# generated using pymatgen
data_ZnH3C7O3
_symmetry_space_group_name_H-M   'P 1'
_cell_length_a   6.72997544
_cell_length_b   21.81840880
_cell_length_c   21.81840294
_cell_angle_alpha   120.00210953
_cell_angle_beta   89.99703112
_cell_angle_gamma   90.00297334
_symmetry_Int_Tables_number   1
_chemical_formula_structural   ZnH3C7O3
_chemical_formula_sum   'Zn6 H18 C42 O18'
_cell_volume   2774.47560568
_cell_formula_units_Z   6
loop_
 _symmetry_equiv_pos_site_id
 _symmetry_equiv_pos_as_xyz
  1  'x, y, z'
loop_
 _atom_site_type_symbol
 _atom_site_label
 _atom_site_symmetry_multiplicity
 _atom_site_fract_x
 _atom_site_fract_y
 _atom_site_fract_z
 _atom_site_occupancy
 _atom_site_hle17_bader_spin_density
 _atom_site_hle17_ddec_charge
 _atom_site_hle17_ddec_spin_density
 _atom_site_hle17_ddec_sum_bond_order
 _atom_site_hle17_magmom
 _atom_site_hse06_10hf_bader_spin_density
 _atom_site_hse06_10hf_ddec_charge
 _atom_site_hse06_10hf_ddec_spin_density
 _atom_site_hse06_10hf_ddec_sum_bond_order
 _atom_site_hse06_10hf_magmom
 _atom_site_hse06_bader_spin_density
 _atom_site_hse06_ddec_charge
 _atom_site_hse06_ddec_spin_density
 _atom_site_hse06_ddec_sum_bond_order
 _atom_site_hse06_magmom
 _atom_site_pbe_bader_spin_density
 _atom_site_pbe_cm5_charge
 _atom_site_pbe_ddec_charge
 _atom_site_pbe_ddec_spin_density
 _atom_site_pbe_ddec_sum_bond_order
 _atom_site_pbe_magmom
Zn  Zn0  1  0.98176017  0.38160306  0.66267895  1  0  1.180127  0  1.694763  0  0  1.019299  0  2.130455  0  0  1.07221  0  2.064639  0  0  0.707171  0.981542  0  2.176096  0
Zn  Zn1  1  0.31517873  0.33730772  0.71888812  1  0  1.180324  0  1.694924  0  0  1.019775  0  2.13019  0  0  1.0726  0  2.064441  0  0  0.707477  0.98205  0  2.175847  0
Zn  Zn2  1  0.64859078  0.28108537  0.61838494  1  0  1.180164  0  1.693984  0  0  1.01928  0  2.129169  0  0  1.072191  0  2.063362  0  0  0.706962  0.981495  0  2.174853  0
Zn  Zn3  1  0.01823916  0.66267912  0.38160301  1  0  1.180163  0  1.694689  0  0  1.019342  0  2.130394  0  0  1.072246  0  2.06459  0  0  0.707196  0.981593  0  2.17602  0
Zn  Zn4  1  0.68482208  0.71888786  0.33730764  1  0  1.180352  0  1.694918  0  0  1.019806  0  2.130185  0  0  1.072631  0  2.064437  0  0  0.70749  0.982081  0  2.175842  0
Zn  Zn5  1  0.35140852  0.61838525  0.28108537  1  0  1.180159  0  1.694002  0  0  1.01928  0  2.129187  0  0  1.072191  0  2.063379  0  0  0.706956  0.981495  0  2.17487  0
H  H6  1  0.27107697  0.45019903  0.53713931  1  0  0.101971  0  0.956258  0  0  0.11156  0  1.019776  0  0  0.114787  0  1.017189  0  0  0.104824  0.109154  0  1.021719  0
H  H7  1  0.60425875  0.46277930  0.91297923  1  0  0.101829  0  0.956732  0  0  0.111109  0  1.020378  0  0  0.114315  0  1.017809  0  0  0.104823  0.108792  0  1.022239  0
H  H8  1  0.93796168  0.08697583  0.54983141  1  0  0.102459  0  0.955993  0  0  0.111613  0  1.019918  0  0  0.114916  0  1.017257  0  0  0.104774  0.109225  0  1.021842  0
H  H9  1  0.72892235  0.53713912  0.45019881  1  0  0.10198  0  0.956244  0  0  0.111568  0  1.019767  0  0  0.114795  0  1.01718  0  0  0.104833  0.109162  0  1.02171  0
H  H10  1  0.39574211  0.91297956  0.46277987  1  0  0.10194  0  0.956617  0  0  0.11122  0  1.020248  0  0  0.114425  0  1.01768  0  0  0.104877  0.108904  0  1.022106  0
H  H11  1  0.06203759  0.54983056  0.08697582  1  0  0.102468  0  0.95598  0  0  0.111621  0  1.019906  0  0  0.114924  0  1.017246  0  0  0.104772  0.109233  0  1.021831  0
H  H12  1  0.97003452  0.36879454  0.49619595  1  0  0.113512  0  0.944026  0  0  0.124123  0  1.002364  0  0  0.12761  0  1.001119  0  0  0.10354  0.121645  0  1.003376  0
H  H13  1  0.30335363  0.50380758  0.87259738  1  0  0.113387  0  0.943549  0  0  0.123421  0  1.002633  0  0  0.126897  0  1.001376  0  0  0.103455  0.120952  0  1.003661  0
H  H14  1  0.63704482  0.12740920  0.63124033  1  0  0.11327  0  0.944345  0  0  0.123853  0  1.002736  0  0  0.127281  0  1.001559  0  0  0.103318  0.121391  0  1.00374  0
H  H15  1  0.02996479  0.49619709  0.36879519  1  0  0.113508  0  0.944069  0  0  0.124121  0  1.002401  0  0  0.127609  0  1.001156  0  0  0.103527  0.121641  0  1.003416  0
H  H16  1  0.69664723  0.87259750  0.50380887  1  0  0.113405  0  0.943545  0  0  0.123428  0  1.002635  0  0  0.126904  0  1.001379  0  0  0.10346  0.120959  0  1.003665  0
H  H17  1  0.36295447  0.63123934  0.12740823  1  0  0.113259  0  0.944336  0  0  0.123865  0  1.002708  0  0  0.127289  0  1.00153  0  0  0.103328  0.121404  0  1.003712  0
H  H18  1  0.83422105  0.42964534  0.43526796  1  0  0.084697  0  0.958326  0  0  0.097724  0  1.017894  0  0  0.100031  0  1.016202  0  0  0.100725  0.096034  0  1.019133  0
H  H19  1  0.16731833  0.56473266  0.99434411  1  0  0.085279  0  0.958133  0  0  0.098147  0  1.017541  0  0  0.100519  0  1.015742  0  0  0.100729  0.096405  0  1.018837  0
H  H20  1  0.50105555  0.00561472  0.57036927  1  0  0.085635  0  0.958086  0  0  0.097985  0  1.018254  0  0  0.100357  0  1.016486  0  0  0.10105  0.096248  0  1.019542  0
H  H21  1  0.16577825  0.43526796  0.42964506  1  0  0.08472  0  0.958333  0  0  0.097751  0  1.017892  0  0  0.100057  0  1.0162  0  0  0.100734  0.096062  0  1.019131  0
H  H22  1  0.83268255  0.99434381  0.56473422  1  0  0.085294  0  0.958145  0  0  0.098162  0  1.017554  0  0  0.100534  0  1.015755  0  0  0.100725  0.09642  0  1.01885  0
H  H23  1  0.49894372  0.57036771  0.00561399  1  0  0.085629  0  0.958083  0  0  0.097973  0  1.018258  0  0  0.100345  0  1.016492  0  0  0.101045  0.096236  0  1.019546  0
C  C24  1  0.69890901  0.37251371  0.54955191  1  0  0.370157  0  3.803491  0  0  0.353434  0  4.059068  0  0  0.370118  0  4.076257  0  0  0.085258  0.342057  0  4.047163  0
C  C25  1  0.03223643  0.45045895  0.82289429  1  0  0.367628  0  3.806602  0  0  0.350451  0  4.062266  0  0  0.367103  0  4.079464  0  0  0.084282  0.339107  0  4.050346  0
C  C26  1  0.36596064  0.17707558  0.62755056  1  0  0.368654  0  3.80497  0  0  0.351579  0  4.060231  0  0  0.368238  0  4.077469  0  0  0.08519  0.340226  0  4.048275  0
C  C27  1  0.30109030  0.54955162  0.37251300  1  0  0.370168  0  3.80363  0  0  0.353415  0  4.05921  0  0  0.3701  0  4.076399  0  0  0.08524  0.342035  0  4.047309  0
C  C28  1  0.96776441  0.82289444  0.45045962  1  0  0.367707  0  3.806544  0  0  0.350518  0  4.062208  0  0  0.36717  0  4.079405  0  0  0.084307  0.339174  0  4.05029  0
C  C29  1  0.63403865  0.62755042  0.17707540  1  0  0.36868  0  3.804957  0  0  0.351618  0  4.060209  0  0  0.368277  0  4.077445  0  0  0.085215  0.340264  0  4.048253  0
C  C30  1  0.35452522  0.38372705  0.60423386  1  0  0.711662  0  3.814159  0  0  0.661726  0  4.096533  0  0  0.700119  0  4.087197  0  0  0.224044  0.635423  0  4.102216  0
C  C31  1  0.68794218  0.39574046  0.77944112  1  0  0.711606  0  3.814858  0  0  0.660735  0  4.098081  0  0  0.699057  0  4.088777  0  0  0.223659  0.634482  0  4.10374  0
C  C32  1  0.02153158  0.22051334  0.61627094  1  0  0.7108  0  3.814256  0  0  0.659524  0  4.097721  0  0  0.697865  0  4.088499  0  0  0.223524  0.633256  0  4.103322  0
C  C33  1  0.64547559  0.60423403  0.38372694  1  0  0.71168  0  3.814111  0  0  0.661683  0  4.096551  0  0  0.700077  0  4.087213  0  0  0.224025  0.635378  0  4.102236  0
C  C34  1  0.31205865  0.77944145  0.39574077  1  0  0.71172  0  3.814704  0  0  0.660843  0  4.097919  0  0  0.699166  0  4.088611  0  0  0.223743  0.63459  0  4.10358  0
C  C35  1  0.97846772  0.61627090  0.22051328  1  0  0.710788  0  3.814272  0  0  0.659518  0  4.097745  0  0  0.69786  0  4.088523  0  0  0.223513  0.63325  0  4.103346  0
C  C36  1  0.49659285  0.39548865  0.55979151  1  0  -0.216598  0  3.749795  0  0  -0.199645  0  3.991614  0  0  -0.216039  0  4.01637  0  0  -0.043357  -0.188862  0  3.974927  0
C  C37  1  0.82993875  0.44016876  0.83563258  1  0  -0.215466  0  3.751281  0  0  -0.197152  0  3.991096  0  0  -0.213446  0  4.01576  0  0  -0.042581  -0.186444  0  3.974499  0
C  C38  1  0.16362644  0.16432943  0.60453470  1  0  -0.215657  0  3.750484  0  0  -0.196636  0  3.990171  0  0  -0.213061  0  4.015075  0  0  -0.042608  -0.185827  0  3.973396  0
C  C39  1  0.50340795  0.55979130  0.39548786  1  0  -0.216682  0  3.749888  0  0  -0.199654  0  3.991652  0  0  -0.216049  0  4.016408  0  0  -0.043381  -0.188872  0  3.974967  0
C  C40  1  0.17006210  0.83563293  0.44016926  1  0  -0.215541  0  3.75131  0  0  -0.197206  0  3.991115  0  0  -0.213499  0  4.015778  0  0  -0.042661  -0.186498  0  3.97452  0
C  C41  1  0.83637285  0.60453415  0.16432962  1  0  -0.215617  0  3.750543  0  0  -0.196617  0  3.990253  0  0  -0.213044  0  4.015158  0  0  -0.042595  -0.185809  0  3.973477  0
C  C42  1  0.42431168  0.43164824  0.52600157  1  0  -0.085044  0  3.7273  0  0  -0.118288  0  3.976758  0  0  -0.115316  0  3.997084  0  0  -0.083843  -0.119864  0  3.962831  0
C  C43  1  0.75747186  0.47397122  0.90558648  1  0  -0.087944  0  3.725136  0  0  -0.118143  0  3.976627  0  0  -0.11518  0  3.996936  0  0  -0.084001  -0.119792  0  3.962732  0
C  C44  1  0.09119837  0.09437520  0.56838968  1  0  -0.08561  0  3.727984  0  0  -0.119268  0  3.975874  0  0  -0.116377  0  3.996185  0  0  -0.084096  -0.120864  0  3.961965  0
C  C45  1  0.57568615  0.52600168  0.43164806  1  0  -0.085053  0  3.727293  0  0  -0.118302  0  3.976745  0  0  -0.115329  0  3.997071  0  0  -0.083842  -0.119877  0  3.962817  0
C  C46  1  0.24252899  0.90558658  0.47397101  1  0  -0.08816  0  3.725116  0  0  -0.11837  0  3.976617  0  0  -0.115409  0  3.996926  0  0  -0.084064  -0.120021  0  3.962722  0
C  C47  1  0.90880091  0.56838980  0.09437577  1  0  -0.085671  0  3.728021  0  0  -0.119326  0  3.975906  0  0  -0.116435  0  3.996217  0  0  -0.08412  -0.120921  0  3.961996  0
C  C48  1  0.54087270  0.44510273  0.48131645  1  0  0.027156  0  3.825294  0  0  0.04164  0  4.062995  0  0  0.03758  0  4.089815  0  0  -0.020443  0.044135  0  4.044848  0
C  C49  1  0.87388573  0.51873126  0.96373792  1  0  0.035938  0  3.812118  0  0  0.040873  0  4.062368  0  0  0.036749  0  4.089278  0  0  -0.020545  0.043413  0  4.044163  0
C  C50  1  0.20772401  0.03623823  0.55499005  1  0  0.023469  0  3.823305  0  0  0.041957  0  4.060636  0  0  0.037976  0  4.087371  0  0  -0.020463  0.044409  0  4.042529  0
C  C51  1  0.45912810  0.48131620  0.44510193  1  0  0.0273  0  3.825211  0  0  0.04174  0  4.062944  0  0  0.03768  0  4.089764  0  0  -0.020419  0.044235  0  4.044797  0
C  C52  1  0.12611365  0.96373851  0.51873101  1  0  0.036078  0  3.812042  0  0  0.041021  0  4.062292  0  0  0.036898  0  4.089201  0  0  -0.020508  0.043563  0  4.044081  0
C  C53  1  0.79227674  0.55498869  0.03623770  1  0  0.023474  0  3.82327  0  0  0.041981  0  4.060572  0  0  0.037998  0  4.087309  0  0  -0.020483  0.044433  0  4.042466  0
C  C54  1  0.81638098  0.38694569  0.50464102  1  0  -0.192262  0  3.745651  0  0  -0.212384  0  4.001776  0  0  -0.221114  0  4.022434  0  0  -0.109467  -0.206706  0  3.98786  0
C  C55  1  0.14962644  0.49539208  0.88225976  1  0  -0.189874  0  3.743777  0  0  -0.2093  0  3.999143  0  0  -0.218008  0  4.019817  0  0  -0.10852  -0.203644  0  3.985186  0
C  C56  1  0.48340455  0.11771870  0.61310508  1  0  -0.19089  0  3.744199  0  0  -0.211157  0  4.000518  0  0  -0.21984  0  4.021249  0  0  -0.108905  -0.205496  0  3.98655  0
C  C57  1  0.18361981  0.50463911  0.38694326  1  0  -0.192257  0  3.745635  0  0  -0.212377  0  4.001762  0  0  -0.221107  0  4.022417  0  0  -0.109464  -0.206696  0  3.987848  0
C  C58  1  0.85037441  0.88226043  0.49539310  1  0  -0.189869  0  3.743757  0  0  -0.209282  0  3.999125  0  0  -0.21799  0  4.019799  0  0  -0.108501  -0.203625  0  3.985166  0
C  C59  1  0.51659474  0.61310403  0.11771802  1  0  -0.19089  0  3.744155  0  0  -0.211179  0  4.000479  0  0  -0.219856  0  4.021205  0  0  -0.108934  -0.20552  0  3.986511  0
C  C60  1  0.73988418  0.42166046  0.47136387  1  0  -0.06482  0  3.755336  0  0  -0.087537  0  4.004288  0  0  -0.085112  0  4.024499  0  0  -0.081313  -0.088732  0  3.990306  0
C  C61  1  0.07293975  0.52869223  0.95024746  1  0  -0.069234  0  3.752008  0  0  -0.088927  0  4.003056  0  0  -0.086539  0  4.023237  0  0  -0.081684  -0.090077  0  3.989067  0
C  C62  1  0.40678632  0.04971790  0.57840571  1  0  -0.065286  0  3.754934  0  0  -0.087721  0  4.002998  0  0  -0.08536  0  4.023117  0  0  -0.081508  -0.088867  0  3.989054  0
C  C63  1  0.26011513  0.47136338  0.42165952  1  0  -0.06492  0  3.755244  0  0  -0.087631  0  4.004215  0  0  -0.085205  0  4.024423  0  0  -0.081337  -0.088827  0  3.990233  0
C  C64  1  0.92706112  0.95024745  0.52869226  1  0  -0.069346  0  3.752061  0  0  -0.089042  0  4.003113  0  0  -0.086654  0  4.023294  0  0  -0.08173  -0.090192  0  3.989122  0
C  C65  1  0.59321296  0.57840457  0.04971768  1  0  -0.065247  0  3.754882  0  0  -0.087683  0  4.002945  0  0  -0.085322  0  4.023065  0  0  -0.081472  -0.088828  0  3.988999  0
O  O66  1  0.78523678  0.33799474  0.57931067  1  0  -0.703543  0  2.161468  0  0  -0.61821  0  2.450251  0  0  -0.649705  0  2.433868  0  0  -0.357951  -0.595636  0  2.460671  0
O  O67  1  0.11858881  0.42066195  0.75862070  1  0  -0.703423  0  2.162277  0  0  -0.617798  0  2.45082  0  0  -0.649259  0  2.434455  0  0  -0.35776  -0.595269  0  2.461241  0
O  O68  1  0.45224132  0.24136595  0.66208581  1  0  -0.703014  0  2.161203  0  0  -0.617842  0  2.450074  0  0  -0.649269  0  2.433658  0  0  -0.357789  -0.595321  0  2.460518  0
O  O69  1  0.21476253  0.57931158  0.33799502  1  0  -0.703503  0  2.161497  0  0  -0.61817  0  2.450288  0  0  -0.649666  0  2.433907  0  0  -0.357908  -0.595596  0  2.460709  0
O  O70  1  0.88141053  0.75862111  0.42066193  1  0  -0.703413  0  2.162254  0  0  -0.61779  0  2.450803  0  0  -0.649249  0  2.434437  0  0  -0.357745  -0.595263  0  2.461225  0
O  O71  1  0.54775799  0.66208569  0.24136559  1  0  -0.703059  0  2.16122  0  0  -0.617897  0  2.450095  0  0  -0.649324  0  2.433678  0  0  -0.357802  -0.595376  0  2.460541  0
O  O72  1  0.18608169  0.41493615  0.61912206  1  0  -0.616965  0  2.006222  0  0  -0.548469  0  2.259335  0  0  -0.577641  0  2.242532  0  0  -0.304536  -0.528092  0  2.270359  0
O  O73  1  0.51939958  0.38090960  0.79576456  1  0  -0.617531  0  2.005954  0  0  -0.54885  0  2.259407  0  0  -0.577971  0  2.242606  0  0  -0.30515  -0.528511  0  2.27044  0
O  O74  1  0.85302472  0.20419808  0.58509645  1  0  -0.617997  0  2.006332  0  0  -0.548775  0  2.259435  0  0  -0.577899  0  2.242654  0  0  -0.305259  -0.528435  0  2.270456  0
O  O75  1  0.81391763  0.61912253  0.41493625  1  0  -0.616984  0  2.006193  0  0  -0.548475  0  2.25933  0  0  -0.577646  0  2.242527  0  0  -0.30457  -0.5281  0  2.270354  0
O  O76  1  0.48060125  0.79576479  0.38090975  1  0  -0.617594  0  2.005914  0  0  -0.548893  0  2.259345  0  0  -0.578014  0  2.242543  0  0  -0.305179  -0.528554  0  2.270379  0
O  O77  1  0.14697606  0.58509610  0.20419780  1  0  -0.618011  0  2.006335  0  0  -0.548784  0  2.259433  0  0  -0.577908  0  2.242652  0  0  -0.305259  -0.528445  0  2.270455  0
O  O78  1  0.39881558  0.34044458  0.62642888  1  0  -0.710394  0  2.228636  0  0  -0.625295  0  2.507302  0  0  -0.657854  0  2.487471  0  0  -0.324727  -0.602394  0  2.520244  0
O  O79  1  0.73217628  0.37353565  0.71395639  1  0  -0.709672  0  2.229417  0  0  -0.624593  0  2.508903  0  0  -0.657158  0  2.489085  0  0  -0.324126  -0.601687  0  2.521834  0
O  O80  1  0.06579810  0.28600345  0.65952983  1  0  -0.708548  0  2.227471  0  0  -0.623858  0  2.507391  0  0  -0.65641  0  2.487602  0  0  -0.324176  -0.60096  0  2.520301  0
O  O81  1  0.60118374  0.62642963  0.34044475  1  0  -0.710393  0  2.228629  0  0  -0.625275  0  2.507311  0  0  -0.657834  0  2.48748  0  0  -0.324698  -0.602374  0  2.520255  0
O  O82  1  0.26782306  0.71395655  0.37353552  1  0  -0.709691  0  2.229379  0  0  -0.624625  0  2.508874  0  0  -0.657188  0  2.489052  0  0  -0.324131  -0.60172  0  2.521806  0
O  O83  1  0.93420121  0.65952984  0.28600357  1  0  -0.708524  0  2.22744  0  0  -0.623857  0  2.507372  0  0  -0.656408  0  2.487583  0  0  -0.324176  -0.60096  0  2.520283  0
