# generated using pymatgen
data_YbH12(C5O3)3
_symmetry_space_group_name_H-M   'P 1'
_cell_length_a   9.91001976
_cell_length_b   11.92388833
_cell_length_c   13.58771245
_cell_angle_alpha   103.72505062
_cell_angle_beta   89.99971181
_cell_angle_gamma   90.00007421
_symmetry_Int_Tables_number   1
_chemical_formula_structural   YbH12(C5O3)3
_chemical_formula_sum   'Yb4 H48 C60 O36'
_cell_volume   1559.75791754
_cell_formula_units_Z   4
loop_
 _symmetry_equiv_pos_site_id
 _symmetry_equiv_pos_as_xyz
  1  'x, y, z'
loop_
 _atom_site_type_symbol
 _atom_site_label
 _atom_site_symmetry_multiplicity
 _atom_site_fract_x
 _atom_site_fract_y
 _atom_site_fract_z
 _atom_site_occupancy
 _atom_site_hle17_bader_spin_density
 _atom_site_hle17_ddec_charge
 _atom_site_hle17_ddec_spin_density
 _atom_site_hle17_ddec_sum_bond_order
 _atom_site_hle17_magmom
 _atom_site_hse06_10hf_bader_spin_density
 _atom_site_hse06_10hf_ddec_charge
 _atom_site_hse06_10hf_ddec_spin_density
 _atom_site_hse06_10hf_ddec_sum_bond_order
 _atom_site_hse06_10hf_magmom
 _atom_site_hse06_bader_spin_density
 _atom_site_hse06_ddec_charge
 _atom_site_hse06_ddec_spin_density
 _atom_site_hse06_ddec_sum_bond_order
 _atom_site_hse06_magmom
 _atom_site_pbe_bader_spin_density
 _atom_site_pbe_cm5_charge
 _atom_site_pbe_ddec_charge
 _atom_site_pbe_ddec_spin_density
 _atom_site_pbe_ddec_sum_bond_order
 _atom_site_pbe_magmom
Yb  Yb0  1  0.21214366  0.05839837  0.07665136  1  0  2.174578  0  1.787215  0  0  2.099719  0  2.134811  0  0  2.155976  0  2.080363  0  0  1.595946  2.066134  0  2.161951  0
Yb  Yb1  1  0.71214206  0.44160245  0.92335087  1  0  2.174627  0  1.787113  0  0  2.099801  0  2.134663  0  0  2.156106  0  2.080142  0  0  1.595985  2.066225  0  2.161784  0
Yb  Yb2  1  0.78785370  0.94160280  0.92335045  1  0  2.174574  0  1.787074  0  0  2.099726  0  2.134645  0  0  2.15602  0  2.080136  0  0  1.595993  2.066148  0  2.161771  0
Yb  Yb3  1  0.28785429  0.55839913  0.07664941  1  0  2.1746  0  1.787165  0  0  2.099701  0  2.134826  0  0  2.155957  0  2.080381  0  0  1.595938  2.066119  0  2.16196  0
H  H4  1  0.22612084  0.42666851  0.32988831  1  0  0.117341  0  0.945003  0  0  0.125801  0  1.007208  0  0  0.129748  0  1.003555  0  0  0.110513  0.122966  0  1.009873  0
H  H5  1  0.72611739  0.07333083  0.67011161  1  0  0.117349  0  0.945025  0  0  0.125786  0  1.007262  0  0  0.12973  0  1.003612  0  0  0.110502  0.122949  0  1.009929  0
H  H6  1  0.77388358  0.57333263  0.67011046  1  0  0.117357  0  0.944993  0  0  0.125792  0  1.007232  0  0  0.129739  0  1.003582  0  0  0.110502  0.122956  0  1.009896  0
H  H7  1  0.27388098  0.92666781  0.32988719  1  0  0.117374  0  0.944934  0  0  0.125802  0  1.007191  0  0  0.129747  0  1.003539  0  0  0.110513  0.122969  0  1.009854  0
H  H8  1  0.25606376  0.54325673  0.50656003  1  0  0.105968  0  0.982972  0  0  0.114151  0  1.047461  0  0  0.116785  0  1.047966  0  0  0.101  0.112297  0  1.047239  0
H  H9  1  0.75606010  0.95674226  0.49343845  1  0  0.105956  0  0.982952  0  0  0.114117  0  1.047468  0  0  0.11675  0  1.047973  0  0  0.100984  0.112263  0  1.047245  0
H  H10  1  0.74394066  0.45674420  0.49343797  1  0  0.105967  0  0.982942  0  0  0.114129  0  1.047458  0  0  0.116764  0  1.047963  0  0  0.100998  0.112276  0  1.047235  0
H  H11  1  0.24393826  0.04325470  0.50656036  1  0  0.10596  0  0.982962  0  0  0.114146  0  1.047445  0  0  0.11678  0  1.047949  0  0  0.101011  0.112293  0  1.047223  0
H  H12  1  0.42196703  0.24773546  0.59425840  1  0  0.114936  0  0.956693  0  0  0.124971  0  1.016629  0  0  0.127604  0  1.017201  0  0  0.106149  0.123032  0  1.016543  0
H  H13  1  0.92196467  0.25226473  0.40574079  1  0  0.114915  0  0.956692  0  0  0.124959  0  1.016616  0  0  0.127592  0  1.017187  0  0  0.106142  0.123024  0  1.016522  0
H  H14  1  0.57803739  0.75226652  0.40574036  1  0  0.114965  0  0.956655  0  0  0.124973  0  1.01661  0  0  0.127605  0  1.017185  0  0  0.106143  0.123036  0  1.01652  0
H  H15  1  0.07803370  0.74773329  0.59425877  1  0  0.114974  0  0.956688  0  0  0.124976  0  1.016649  0  0  0.127608  0  1.017224  0  0  0.106147  0.12304  0  1.016556  0
H  H16  1  0.38947115  0.12936183  0.41635678  1  0  0.097365  0  0.948349  0  0  0.10983  0  1.005488  0  0  0.112814  0  1.003163  0  0  0.106167  0.107723  0  1.007109  0
H  H17  1  0.88946875  0.37063773  0.58364329  1  0  0.097437  0  0.948259  0  0  0.109835  0  1.005455  0  0  0.112822  0  1.003129  0  0  0.106149  0.107728  0  1.007077  0
H  H18  1  0.61053327  0.87063952  0.58364274  1  0  0.097424  0  0.948254  0  0  0.109821  0  1.005456  0  0  0.112807  0  1.00313  0  0  0.106139  0.107714  0  1.007079  0
H  H19  1  0.11052961  0.62936028  0.41635627  1  0  0.097393  0  0.948316  0  0  0.109841  0  1.005475  0  0  0.112824  0  1.003148  0  0  0.106169  0.107735  0  1.007097  0
H  H20  1  0.48178320  0.65739036  0.70468753  1  0  0.115435  0  0.970939  0  0  0.125351  0  1.030643  0  0  0.127966  0  1.030635  0  0  0.107179  0.123427  0  1.030885  0
H  H21  1  0.98178073  0.84260951  0.29531316  1  0  0.115491  0  0.970894  0  0  0.125414  0  1.030587  0  0  0.12803  0  1.030575  0  0  0.107208  0.12349  0  1.030828  0
H  H22  1  0.51822021  0.34261100  0.29531199  1  0  0.115507  0  0.970891  0  0  0.125433  0  1.030575  0  0  0.128049  0  1.030566  0  0  0.107211  0.123509  0  1.030818  0
H  H23  1  0.01821763  0.15738788  0.70468717  1  0  0.115431  0  0.970945  0  0  0.125366  0  1.030641  0  0  0.127981  0  1.030631  0  0  0.107178  0.123442  0  1.030884  0
H  H24  1  0.37774387  0.84439806  0.79950722  1  0  0.104542  0  0.94065  0  0  0.115423  0  0.999152  0  0  0.118154  0  0.997549  0  0  0.108838  0.113541  0  1.000221  0
H  H25  1  0.87773773  0.65560199  0.20049157  1  0  0.104476  0  0.940733  0  0  0.11536  0  0.999231  0  0  0.11809  0  0.99763  0  0  0.10881  0.113483  0  1.000288  0
H  H26  1  0.62226156  0.15560308  0.20049154  1  0  0.104426  0  0.940782  0  0  0.115316  0  0.999278  0  0  0.118045  0  0.997677  0  0  0.108812  0.11344  0  1.000333  0
H  H27  1  0.12225761  0.34439476  0.79950649  1  0  0.10441  0  0.940777  0  0  0.115308  0  0.999267  0  0  0.118032  0  0.997666  0  0  0.108828  0.11343  0  1.000329  0
H  H28  1  0.99208261  0.67648555  0.78885141  1  0  0.121639  0  0.944274  0  0  0.129201  0  1.005684  0  0  0.133015  0  1.003025  0  0  0.113464  0.126652  0  1.007347  0
H  H29  1  0.49207865  0.82351555  0.21114771  1  0  0.121604  0  0.944283  0  0  0.129157  0  1.005706  0  0  0.13297  0  1.003047  0  0  0.113457  0.126607  0  1.007369  0
H  H30  1  0.00792181  0.32351286  0.21114663  1  0  0.121678  0  0.94421  0  0  0.129198  0  1.005665  0  0  0.133012  0  1.003006  0  0  0.113499  0.126649  0  1.007327  0
H  H31  1  0.50791870  0.17648286  0.78885033  1  0  0.121612  0  0.944287  0  0  0.129186  0  1.005689  0  0  0.132999  0  1.003031  0  0  0.113455  0.126636  0  1.007351  0
H  H32  1  0.09614915  0.49002553  0.69651870  1  0  0.115828  0  0.939852  0  0  0.128298  0  0.997059  0  0  0.131282  0  0.99616  0  0  0.110678  0.126108  0  0.997909  0
H  H33  1  0.59614712  0.00997586  0.30348015  1  0  0.115848  0  0.939807  0  0  0.128311  0  0.99702  0  0  0.131296  0  0.996121  0  0  0.110667  0.12612  0  0.997871  0
H  H34  1  0.90385628  0.50997517  0.30347855  1  0  0.115788  0  0.939811  0  0  0.128254  0  0.997032  0  0  0.131238  0  0.996135  0  0  0.110657  0.126068  0  0.997881  0
H  H35  1  0.40385226  0.99002317  0.69651712  1  0  0.115817  0  0.939822  0  0  0.128288  0  0.997028  0  0  0.131272  0  0.996131  0  0  0.110686  0.126097  0  0.997876  0
H  H36  1  0.03005886  0.86238046  0.08078856  1  0  0.45083  0  0.834793  0  0  0.422004  0  0.89475  0  0  0.433071  0  0.878482  0  0  0.307888  0.414392  0  0.905976  0
H  H37  1  0.53005379  0.63761953  0.91920846  1  0  0.450894  0  0.834694  0  0  0.422062  0  0.894642  0  0  0.433124  0  0.878387  0  0  0.307946  0.414452  0  0.905865  0
H  H38  1  0.96994657  0.13761941  0.91920870  1  0  0.450902  0  0.834676  0  0  0.422071  0  0.894623  0  0  0.433134  0  0.878366  0  0  0.307953  0.41446  0  0.905847  0
H  H39  1  0.46993953  0.36238307  0.08078952  1  0  0.450774  0  0.834875  0  0  0.421985  0  0.894781  0  0  0.433053  0  0.878512  0  0  0.307869  0.414374  0  0.906006  0
H  H40  1  0.16581014  0.83882250  0.13796020  1  0  0.457604  0  0.834787  0  0  0.427961  0  0.895341  0  0  0.439292  0  0.878846  0  0  0.306011  0.420277  0  0.906529  0
H  H41  1  0.66580651  0.66117942  0.86204010  1  0  0.457569  0  0.834835  0  0  0.427929  0  0.895385  0  0  0.439259  0  0.878891  0  0  0.306002  0.420245  0  0.906572  0
H  H42  1  0.83419327  0.16117991  0.86204006  1  0  0.457565  0  0.834829  0  0  0.427932  0  0.895376  0  0  0.439262  0  0.878882  0  0  0.30599  0.420247  0  0.906564  0
H  H43  1  0.33418681  0.33882320  0.13796093  1  0  0.457639  0  0.834728  0  0  0.428008  0  0.89527  0  0  0.43934  0  0.878775  0  0  0.306014  0.420325  0  0.906458  0
H  H44  1  0.12724511  0.27195744  0.01708251  1  0  0.44736  0  0.841608  0  0  0.417316  0  0.906487  0  0  0.428964  0  0.889594  0  0  0.309979  0.409366  0  0.918027  0
H  H45  1  0.62724377  0.22804086  0.98292006  1  0  0.447296  0  0.841713  0  0  0.417335  0  0.906444  0  0  0.428979  0  0.889559  0  0  0.310013  0.409386  0  0.917984  0
H  H46  1  0.87275629  0.72804184  0.98291856  1  0  0.447287  0  0.841731  0  0  0.417329  0  0.906455  0  0  0.428975  0  0.889566  0  0  0.310006  0.409377  0  0.918001  0
H  H47  1  0.37275460  0.77195674  0.01708103  1  0  0.447308  0  0.841709  0  0  0.417337  0  0.906451  0  0  0.428984  0  0.889562  0  0  0.310007  0.409387  0  0.917993  0
H  H48  1  0.20030231  0.19067162  0.92409786  1  0  0.424165  0  0.843454  0  0  0.398622  0  0.912987  0  0  0.405985  0  0.906079  0  0  0.315422  0.393653  0  0.917671  0
H  H49  1  0.70030131  0.30933167  0.07590134  1  0  0.424232  0  0.843343  0  0  0.398651  0  0.912943  0  0  0.406014  0  0.906034  0  0  0.315422  0.39368  0  0.917627  0
H  H50  1  0.79970009  0.80933202  0.07590087  1  0  0.424262  0  0.843336  0  0  0.398692  0  0.912925  0  0  0.406054  0  0.906016  0  0  0.315424  0.393722  0  0.917609  0
H  H51  1  0.29969605  0.69067176  0.92409664  1  0  0.424163  0  0.843449  0  0  0.39862  0  0.912977  0  0  0.405984  0  0.906066  0  0  0.315419  0.39365  0  0.917661  0
C  C52  1  0.28254259  0.19740376  0.25911112  1  0  0.641745  0  3.921366  0  0  0.594812  0  4.220252  0  0  0.629762  0  4.212452  0  0  0.190722  0.571304  0  4.225463  0
C  C53  1  0.78253598  0.30259579  0.74088935  1  0  0.641677  0  3.921328  0  0  0.59475  0  4.220233  0  0  0.629685  0  4.21244  0  0  0.190684  0.571241  0  4.225444  0
C  C54  1  0.71746586  0.80259654  0.74088766  1  0  0.641662  0  3.921439  0  0  0.594735  0  4.220358  0  0  0.629668  0  4.21256  0  0  0.19066  0.571226  0  4.225568  0
C  C55  1  0.21745734  0.69740368  0.25910944  1  0  0.641743  0  3.921382  0  0  0.594803  0  4.220277  0  0  0.629751  0  4.212478  0  0  0.190693  0.571293  0  4.225491  0
C  C56  1  0.30239795  0.26914511  0.36284143  1  0  -0.103438  0  3.798696  0  0  -0.082248  0  4.035076  0  0  -0.09307  0  4.058246  0  0  -0.033139  -0.074997  0  4.019148  0
C  C57  1  0.80239497  0.23085277  0.63715899  1  0  -0.103495  0  3.798672  0  0  -0.082352  0  4.035095  0  0  -0.093135  0  4.058214  0  0  -0.03322  -0.075097  0  4.019164  0
C  C58  1  0.69760748  0.73085352  0.63715737  1  0  -0.103387  0  3.79873  0  0  -0.082281  0  4.035196  0  0  -0.093049  0  4.058295  0  0  -0.033151  -0.075026  0  4.019264  0
C  C59  1  0.19760239  0.76914524  0.36284058  1  0  -0.103438  0  3.798766  0  0  -0.082249  0  4.035142  0  0  -0.093071  0  4.058309  0  0  -0.033129  -0.074997  0  4.019213  0
C  C60  1  0.26598935  0.38635045  0.38800107  1  0  -0.031694  0  3.715725  0  0  -0.056303  0  3.964545  0  0  -0.051892  0  3.981315  0  0  -0.076439  -0.058829  0  3.953069  0
C  C61  1  0.76598535  0.11364743  0.61199948  1  0  -0.031636  0  3.715792  0  0  -0.056214  0  3.96461  0  0  -0.051813  0  3.981367  0  0  -0.076361  -0.058742  0  3.953134  0
C  C62  1  0.73401507  0.61364924  0.61199848  1  0  -0.031703  0  3.715801  0  0  -0.056262  0  3.964625  0  0  -0.051869  0  3.981381  0  0  -0.076376  -0.05879  0  3.953151  0
C  C63  1  0.23401201  0.88634891  0.38800010  1  0  -0.031659  0  3.715718  0  0  -0.056252  0  3.964551  0  0  -0.051839  0  3.98132  0  0  -0.076396  -0.058781  0  3.953077  0
C  C64  1  0.28275795  0.45210141  0.48657858  1  0  -0.209924  0  3.767058  0  0  -0.227514  0  4.016657  0  0  -0.235725  0  4.037347  0  0  -0.108287  -0.222325  0  4.002881  0
C  C65  1  0.78275251  0.04789731  0.51342189  1  0  -0.209929  0  3.767051  0  0  -0.227501  0  4.016633  0  0  -0.235713  0  4.037324  0  0  -0.108326  -0.222312  0  4.002857  0
C  C66  1  0.71724748  0.54789911  0.51342095  1  0  -0.209905  0  3.767074  0  0  -0.227483  0  4.01667  0  0  -0.235697  0  4.037365  0  0  -0.108342  -0.222294  0  4.002896  0
C  C67  1  0.21724485  0.95210030  0.48657919  1  0  -0.209913  0  3.76707  0  0  -0.227503  0  4.016645  0  0  -0.235715  0  4.037336  0  0  -0.108325  -0.222316  0  4.002872  0
C  C68  1  0.33736199  0.40058378  0.56013332  1  0  0.301716  0  3.78724  0  0  0.289383  0  4.048887  0  0  0.30285  0  4.063192  0  0  0.096836  0.280259  0  4.039121  0
C  C69  1  0.83735713  0.09941534  0.43986543  1  0  0.301606  0  3.787449  0  0  0.28931  0  4.049058  0  0  0.302777  0  4.063364  0  0  0.09679  0.280186  0  4.039295  0
C  C70  1  0.66264445  0.59941631  0.43986469  1  0  0.301615  0  3.787439  0  0  0.289298  0  4.049062  0  0  0.302763  0  4.063369  0  0  0.096806  0.280174  0  4.039297  0
C  C71  1  0.16264022  0.90058245  0.56013338  1  0  0.301549  0  3.787438  0  0  0.289223  0  4.049048  0  0  0.302687  0  4.063357  0  0  0.096715  0.2801  0  4.039283  0
C  C72  1  0.37779480  0.28458672  0.53562462  1  0  -0.18185  0  3.738188  0  0  -0.20338  0  3.992266  0  0  -0.210412  0  4.012147  0  0  -0.101034  -0.199003  0  3.9792  0
C  C73  1  0.87779197  0.21541095  0.46437477  1  0  -0.181849  0  3.738296  0  0  -0.203369  0  3.992302  0  0  -0.210402  0  4.012187  0  0  -0.10103  -0.198992  0  3.979241  0
C  C74  1  0.62221063  0.71541358  0.46437416  1  0  -0.181934  0  3.738327  0  0  -0.203413  0  3.99234  0  0  -0.210446  0  4.012228  0  0  -0.10106  -0.199035  0  3.979276  0
C  C75  1  0.12220639  0.78458539  0.53562482  1  0  -0.181838  0  3.738318  0  0  -0.203318  0  3.992341  0  0  -0.210348  0  4.012223  0  0  -0.100978  -0.19894  0  3.979277  0
C  C76  1  0.35936222  0.21977682  0.43744365  1  0  -0.042769  0  3.754833  0  0  -0.065459  0  4.000659  0  0  -0.061991  0  4.019303  0  0  -0.079693  -0.067411  0  3.987853  0
C  C77  1  0.85936084  0.28022150  0.56255807  1  0  -0.04279  0  3.754816  0  0  -0.065411  0  4.000634  0  0  -0.061958  0  4.019271  0  0  -0.079618  -0.067366  0  3.987831  0
C  C78  1  0.64064119  0.78022392  0.56255664  1  0  -0.042788  0  3.754871  0  0  -0.065395  0  4.00069  0  0  -0.061944  0  4.019322  0  0  -0.079621  -0.067352  0  3.987886  0
C  C79  1  0.14063853  0.71977589  0.43744226  1  0  -0.042746  0  3.754908  0  0  -0.065429  0  4.000712  0  0  -0.061957  0  4.019351  0  0  -0.079659  -0.067385  0  3.987909  0
C  C80  1  0.29507717  0.56478283  0.69678973  1  0  0.281768  0  3.776683  0  0  0.273209  0  4.037015  0  0  0.284355  0  4.052497  0  0  0.091179  0.265598  0  4.026296  0
C  C81  1  0.79506975  0.93521721  0.30320936  1  0  0.281698  0  3.776691  0  0  0.273152  0  4.037  0  0  0.284296  0  4.052483  0  0  0.091254  0.265542  0  4.026279  0
C  C82  1  0.70493129  0.43521852  0.30320979  1  0  0.281689  0  3.776719  0  0  0.273178  0  4.036986  0  0  0.284321  0  4.052467  0  0  0.09125  0.265568  0  4.026266  0
C  C83  1  0.20492559  0.06478059  0.69678945  1  0  0.281775  0  3.776564  0  0  0.273199  0  4.036933  0  0  0.284345  0  4.052413  0  0  0.091163  0.265588  0  4.026215  0
C  C84  1  0.37485399  0.66361099  0.72316028  1  0  -0.168772  0  3.73092  0  0  -0.189255  0  3.97932  0  0  -0.1947  0  3.998485  0  0  -0.094797  -0.18558  0  3.96633  0
C  C85  1  0.87484962  0.83639054  0.27684078  1  0  -0.168726  0  3.730857  0  0  -0.189192  0  3.979215  0  0  -0.194637  0  3.998382  0  0  -0.094807  -0.185519  0  3.966229  0
C  C86  1  0.62515043  0.33639163  0.27684074  1  0  -0.168781  0  3.730898  0  0  -0.189269  0  3.979255  0  0  -0.194714  0  3.998423  0  0  -0.0948  -0.185595  0  3.966266  0
C  C87  1  0.12514774  0.16360853  0.72315953  1  0  -0.168714  0  3.730773  0  0  -0.18923  0  3.97922  0  0  -0.194676  0  3.998385  0  0  -0.094736  -0.185557  0  3.966235  0
C  C88  1  0.31659568  0.76680756  0.77541660  1  0  -0.05496  0  3.748132  0  0  -0.077908  0  3.998275  0  0  -0.075523  0  4.01656  0  0  -0.081336  -0.079117  0  3.985459  0
C  C89  1  0.81659151  0.73319458  0.22458391  1  0  -0.054967  0  3.748244  0  0  -0.077924  0  3.998374  0  0  -0.075539  0  4.016661  0  0  -0.081333  -0.079133  0  3.985563  0
C  C90  1  0.68340773  0.23319568  0.22458366  1  0  -0.054866  0  3.748269  0  0  -0.077829  0  3.998406  0  0  -0.075443  0  4.016691  0  0  -0.08131  -0.079036  0  3.985592  0
C  C91  1  0.18340484  0.26680448  0.77541640  1  0  -0.054776  0  3.748205  0  0  -0.077742  0  3.998377  0  0  -0.075346  0  4.016652  0  0  -0.081321  -0.078954  0  3.985567  0
C  C92  1  0.17899042  0.77164622  0.80033791  1  0  -0.103969  0  3.756592  0  0  -0.084524  0  3.993057  0  0  -0.092893  0  4.012352  0  0  -0.022103  -0.079026  0  3.979564  0
C  C93  1  0.67898844  0.72835486  0.19966235  1  0  -0.103983  0  3.756733  0  0  -0.084558  0  3.993144  0  0  -0.092925  0  4.012448  0  0  -0.022105  -0.079066  0  3.979644  0
C  C94  1  0.82100996  0.22835619  0.19966236  1  0  -0.103964  0  3.756723  0  0  -0.084527  0  3.993129  0  0  -0.092891  0  4.012425  0  0  -0.022134  -0.079038  0  3.97963  0
C  C95  1  0.32100690  0.27164464  0.80033947  1  0  -0.104011  0  3.756843  0  0  -0.084602  0  3.993245  0  0  -0.092969  0  4.012541  0  0  -0.022128  -0.079106  0  3.979751  0
C  C96  1  0.09892502  0.67222227  0.76919306  1  0  -0.038042  0  3.700629  0  0  -0.06096  0  3.949979  0  0  -0.058407  0  3.967393  0  0  -0.074985  -0.062238  0  3.937694  0
C  C97  1  0.59892197  0.82778004  0.23080595  1  0  -0.038022  0  3.700569  0  0  -0.060952  0  3.949943  0  0  -0.058394  0  3.967348  0  0  -0.075012  -0.062228  0  3.937656  0
C  C98  1  0.90108041  0.32777865  0.23080494  1  0  -0.038149  0  3.700633  0  0  -0.061055  0  3.950028  0  0  -0.0585  0  3.967435  0  0  -0.075056  -0.062333  0  3.937747  0
C  C99  1  0.40107640  0.17222005  0.76919206  1  0  -0.038005  0  3.70056  0  0  -0.060949  0  3.949922  0  0  -0.058395  0  3.967334  0  0  -0.074974  -0.062223  0  3.93763  0
C  C100  1  0.15670099  0.56837520  0.71760772  1  0  -0.175465  0  3.727464  0  0  -0.198107  0  3.982846  0  0  -0.204229  0  4.002586  0  0  -0.09239  -0.194034  0  3.969521  0
C  C101  1  0.65669673  0.93162838  0.28239259  1  0  -0.175465  0  3.72738  0  0  -0.198096  0  3.982736  0  0  -0.204218  0  4.002477  0  0  -0.092407  -0.194021  0  3.969408  0
C  C102  1  0.84330545  0.43162699  0.28239179  1  0  -0.175369  0  3.727344  0  0  -0.198012  0  3.982691  0  0  -0.204134  0  4.002431  0  0  -0.092404  -0.193944  0  3.969368  0
C  C103  1  0.34330164  0.06837297  0.71760693  1  0  -0.175476  0  3.727387  0  0  -0.198105  0  3.982771  0  0  -0.204227  0  4.002513  0  0  -0.09241  -0.194029  0  3.969438  0
C  C104  1  0.12030220  0.87908815  0.86615225  1  0  0.745234  0  3.848005  0  0  0.696946  0  4.144352  0  0  0.73548  0  4.129049  0  0  0.236456  0.671293  0  4.154136  0
C  C105  1  0.62029949  0.62091584  0.13384667  1  0  0.74527  0  3.848234  0  0  0.697091  0  4.144408  0  0  0.735612  0  4.129124  0  0  0.236471  0.671459  0  4.15416  0
C  C106  1  0.87970020  0.12091571  0.13384724  1  0  0.745306  0  3.847953  0  0  0.697105  0  4.144161  0  0  0.735627  0  4.128876  0  0  0.236507  0.671476  0  4.15391  0
C  C107  1  0.37969484  0.37908280  0.86615213  1  0  0.745299  0  3.848011  0  0  0.697191  0  4.144069  0  0  0.735714  0  4.12878  0  0  0.236509  0.671541  0  4.153851  0
C  C108  1  0.49651131  0.93998657  0.01167620  1  0  0.565503  0  3.91803  0  0  0.520559  0  4.22165  0  0  0.551434  0  4.211357  0  0  0.219039  0.499948  0  4.228936  0
C  C109  1  0.99650665  0.56001142  0.98832370  1  0  0.565629  0  3.917907  0  0  0.52071  0  4.221482  0  0  0.551585  0  4.211186  0  0  0.219149  0.500109  0  4.228762  0
C  C110  1  0.50349614  0.06000897  0.98832644  1  0  0.565808  0  3.917752  0  0  0.520876  0  4.22133  0  0  0.551752  0  4.211031  0  0  0.219182  0.500266  0  4.228615  0
C  C111  1  0.00348667  0.43998870  0.01167735  1  0  0.565662  0  3.917968  0  0  0.520726  0  4.221543  0  0  0.551602  0  4.211249  0  0  0.219092  0.500107  0  4.228841  0
O  O112  1  0.29658089  0.08748853  0.24024294  1  0  -0.689436  0  1.937223  0  0  -0.653936  0  2.173572  0  0  -0.679274  0  2.163888  0  0  -0.397713  -0.637607  0  2.179849  0
O  O113  1  0.79657533  0.41250997  0.75975673  1  0  -0.689355  0  1.93724  0  0  -0.653844  0  2.173569  0  0  -0.679188  0  2.16389  0  0  -0.397659  -0.637515  0  2.179836  0
O  O114  1  0.70342555  0.91251032  0.75975661  1  0  -0.689354  0  1.937225  0  0  -0.653836  0  2.173556  0  0  -0.679178  0  2.163877  0  0  -0.397671  -0.637507  0  2.179827  0
O  O115  1  0.20342001  0.58748866  0.24024206  1  0  -0.689426  0  1.937212  0  0  -0.653912  0  2.173556  0  0  -0.679249  0  2.163872  0  0  -0.397685  -0.637587  0  2.179838  0
O  O116  1  0.24836131  0.24443127  0.18658896  1  0  -0.711362  0  2.057529  0  0  -0.660452  0  2.295273  0  0  -0.686343  0  2.28443  0  0  -0.377515  -0.643209  0  2.302058  0
O  O117  1  0.74835413  0.25556806  0.81341088  1  0  -0.711384  0  2.057378  0  0  -0.660485  0  2.295135  0  0  -0.686379  0  2.284298  0  0  -0.377552  -0.643245  0  2.301921  0
O  O118  1  0.75164714  0.75556798  0.81340907  1  0  -0.711371  0  2.05744  0  0  -0.660466  0  2.295205  0  0  -0.686361  0  2.284369  0  0  -0.37752  -0.643223  0  2.301987  0
O  O119  1  0.25163718  0.74443141  0.18658791  1  0  -0.711379  0  2.057506  0  0  -0.660459  0  2.295267  0  0  -0.68635  0  2.284423  0  0  -0.377532  -0.64322  0  2.302058  0
O  O120  1  0.35992169  0.46027002  0.65820609  1  0  -0.286978  0  2.3484  0  0  -0.218074  0  2.569256  0  0  -0.236593  0  2.571085  0  0  -0.143337  -0.204616  0  2.567193  0
O  O121  1  0.85991237  0.03973267  0.34179329  1  0  -0.28685  0  2.348456  0  0  -0.217985  0  2.569327  0  0  -0.236503  0  2.571158  0  0  -0.143286  -0.204528  0  2.567263  0
O  O122  1  0.64008979  0.53973406  0.34179415  1  0  -0.286839  0  2.348466  0  0  -0.217972  0  2.569327  0  0  -0.236491  0  2.571158  0  0  -0.143279  -0.204516  0  2.567261  0
O  O123  1  0.14007994  0.96026742  0.65820472  1  0  -0.286981  0  2.348458  0  0  -0.218069  0  2.569303  0  0  -0.236586  0  2.571135  0  0  -0.143309  -0.20461  0  2.567241  0
O  O124  1  0.99316724  0.88589861  0.87506542  1  0  -0.740157  0  2.106612  0  0  -0.697887  0  2.371472  0  0  -0.726301  0  2.358216  0  0  -0.429833  -0.679834  0  2.380029  0
O  O125  1  0.49316254  0.61410813  0.12493287  1  0  -0.740192  0  2.106609  0  0  -0.69795  0  2.371409  0  0  -0.726354  0  2.35816  0  0  -0.429781  -0.679903  0  2.379957  0
O  O126  1  0.00683920  0.11410860  0.12493403  1  0  -0.740216  0  2.106425  0  0  -0.697994  0  2.371278  0  0  -0.726398  0  2.358029  0  0  -0.429822  -0.67995  0  2.379827  0
O  O127  1  0.50683078  0.38589282  0.87506818  1  0  -0.740306  0  2.10647  0  0  -0.698109  0  2.371257  0  0  -0.726519  0  2.357997  0  0  -0.429891  -0.680057  0  2.379813  0
O  O128  1  0.20128781  0.95618322  0.91343756  1  0  -0.747197  0  2.056238  0  0  -0.707255  0  2.314262  0  0  -0.735652  0  2.304147  0  0  -0.418156  -0.688808  0  2.320584  0
O  O129  1  0.70128228  0.54382080  0.08656410  1  0  -0.747205  0  2.056425  0  0  -0.707307  0  2.314388  0  0  -0.735705  0  2.304276  0  0  -0.418192  -0.688869  0  2.320697  0
O  O130  1  0.79871863  0.04381980  0.08656194  1  0  -0.747199  0  2.056307  0  0  -0.707282  0  2.314268  0  0  -0.73568  0  2.304158  0  0  -0.418208  -0.688843  0  2.320576  0
O  O131  1  0.29871104  0.45618015  0.91343694  1  0  -0.747181  0  2.056256  0  0  -0.707297  0  2.314195  0  0  -0.735689  0  2.304086  0  0  -0.41817  -0.688854  0  2.320516  0
O  O132  1  0.39075656  0.91732314  0.05610448  1  0  -0.645745  0  2.100059  0  0  -0.598152  0  2.334946  0  0  -0.624116  0  2.326587  0  0  -0.344418  -0.581218  0  2.340288  0
O  O133  1  0.89075930  0.58267702  0.94390642  1  0  -0.645772  0  2.100386  0  0  -0.59819  0  2.335262  0  0  -0.624156  0  2.326897  0  0  -0.344466  -0.581268  0  2.340603  0
O  O134  1  0.60923575  0.08267462  0.94391181  1  0  -0.645821  0  2.100498  0  0  -0.598213  0  2.335366  0  0  -0.624173  0  2.327001  0  0  -0.344472  -0.581285  0  2.34071  0
O  O135  1  0.10923806  0.41732547  0.05610297  1  0  -0.64581  0  2.100163  0  0  -0.598173  0  2.335034  0  0  -0.624135  0  2.326674  0  0  -0.344397  -0.581242  0  2.340381  0
O  O136  1  0.59495977  0.87290612  0.98409508  1  0  -0.654878  0  2.089378  0  0  -0.618592  0  2.338583  0  0  -0.6432  0  2.330708  0  0  -0.382045  -0.602981  0  2.343601  0
O  O137  1  0.09497199  0.62709576  0.01590243  1  0  -0.65495  0  2.088997  0  0  -0.618666  0  2.338203  0  0  -0.643279  0  2.33034  0  0  -0.382096  -0.603043  0  2.343192  0
O  O138  1  0.40502547  0.12709551  0.01591128  1  0  -0.655037  0  2.088889  0  0  -0.618722  0  2.338018  0  0  -0.643332  0  2.330141  0  0  -0.382089  -0.603127  0  2.343074  0
O  O139  1  0.90502839  0.37291002  0.98410083  1  0  -0.654956  0  2.089223  0  0  -0.618672  0  2.338415  0  0  -0.643285  0  2.330542  0  0  -0.382077  -0.603059  0  2.343432  0
O  O140  1  0.11686690  0.89635363  0.10861280  1  0  -0.925752  0  1.864156  0  0  -0.888742  0  2.061228  0  0  -0.908976  0  2.026572  0  0  -0.664119  -0.875744  0  2.084471  0
O  O141  1  0.61686196  0.60364763  0.89138540  1  0  -0.925749  0  1.864084  0  0  -0.888729  0  2.061199  0  0  -0.908964  0  2.026535  0  0  -0.664142  -0.875733  0  2.084443  0
O  O142  1  0.88313752  0.10364834  0.89138595  1  0  -0.925756  0  1.864082  0  0  -0.888747  0  2.06117  0  0  -0.908984  0  2.026509  0  0  -0.664143  -0.875752  0  2.084415  0
O  O143  1  0.38312934  0.39635432  0.10861031  1  0  -0.925725  0  1.864212  0  0  -0.888768  0  2.061203  0  0  -0.909002  0  2.026546  0  0  -0.664089  -0.87577  0  2.084444  0
O  O144  1  0.13773918  0.18904311  0.97937227  1  0  -0.871233  0  1.950729  0  0  -0.824917  0  2.149173  0  0  -0.845358  0  2.122051  0  0  -0.612192  -0.811485  0  2.167335  0
O  O145  1  0.63773755  0.31095767  0.02062719  1  0  -0.871216  0  1.950682  0  0  -0.824944  0  2.14914  0  0  -0.845388  0  2.122005  0  0  -0.612219  -0.811528  0  2.167325  0
O  O146  1  0.86226322  0.81095781  0.02062574  1  0  -0.871263  0  1.950701  0  0  -0.824997  0  2.149122  0  0  -0.84544  0  2.12199  0  0  -0.612208  -0.811586  0  2.167311  0
O  O147  1  0.36226082  0.68904220  0.97937007  1  0  -0.871199  0  1.950768  0  0  -0.824925  0  2.149162  0  0  -0.845362  0  2.122026  0  0  -0.612224  -0.81151  0  2.167347  0
