# generated using pymatgen
data_Cu3H4C8(N11O)2
_symmetry_space_group_name_H-M   'P 1'
_cell_length_a   8.63310931
_cell_length_b   8.63618883
_cell_length_c   12.72041218
_cell_angle_alpha   90.57082004
_cell_angle_beta   90.02015187
_cell_angle_gamma   90.02906789
_symmetry_Int_Tables_number   1
_chemical_formula_structural   Cu3H4C8(N11O)2
_chemical_formula_sum   'Cu6 H8 C16 N44 O4'
_cell_volume   948.35058468
_cell_formula_units_Z   2
loop_
 _symmetry_equiv_pos_site_id
 _symmetry_equiv_pos_as_xyz
  1  'x, y, z'
loop_
 _atom_site_type_symbol
 _atom_site_label
 _atom_site_symmetry_multiplicity
 _atom_site_fract_x
 _atom_site_fract_y
 _atom_site_fract_z
 _atom_site_occupancy
 _atom_site_hle17_ddec_charge
 _atom_site_hle17_ddec_spin_density
 _atom_site_hle17_ddec_sum_bond_order
 _atom_site_hle17_magmom
 _atom_site_hse06_10hf_bader_charge
 _atom_site_hse06_10hf_bader_spin_density
 _atom_site_hse06_10hf_ddec_charge
 _atom_site_hse06_10hf_ddec_spin_density
 _atom_site_hse06_10hf_ddec_sum_bond_order
 _atom_site_hse06_10hf_magmom
 _atom_site_hse06_ddec_charge
 _atom_site_hse06_ddec_spin_density
 _atom_site_hse06_ddec_sum_bond_order
 _atom_site_hse06_magmom
 _atom_site_pbe_cm5_charge
 _atom_site_pbe_ddec_charge
 _atom_site_pbe_ddec_spin_density
 _atom_site_pbe_ddec_sum_bond_order
 _atom_site_pbe_magmom
Cu  Cu0  1  0.99992938  0.00026009  0.50001678  1  0.864868  0.727339  1.856903  0.552  1.170553  0.673314  0.835616  0.819986  2.251857  0.67  0.92052  0.881242  2.18666  0.75  0.784284  0.781571  0.767272  2.296499  0.61
Cu  Cu1  1  0.49994844  0.99998294  0.99997546  1  0.86516  0.731462  1.85581  0.555  1.170486  0.67544  0.836336  0.823001  2.25049  0.672  0.920431  0.882269  2.186588  0.75  0.784801  0.783409  0.778311  2.29462  0.619
Cu  Cu2  1  0.53927513  0.35872455  0.87812235  1  0.717834  0.702293  2.022357  0.531  1.111543  0.642231  0.667411  0.784237  2.42914  0.639  0.747987  0.848906  2.373023  0.72  0.811355  0.61841  0.735873  2.467881  0.583
Cu  Cu3  1  0.03946156  0.64101627  0.62162685  1  0.717236  0.698715  2.023258  0.528  1.112332  0.639646  0.665883  0.781416  2.43082  0.636  0.746961  0.848123  2.374082  0.719  0.811161  0.617588  0.72432  2.468369  0.574
Cu  Cu4  1  0.46078866  0.64134990  0.12187972  1  0.717648  0.699505  2.023569  0.529  1.111298  0.641552  0.667014  0.783491  2.430938  0.638  0.747946  0.848495  2.374159  0.719  0.811795  0.618277  0.733556  2.469243  0.581
Cu  Cu5  1  0.96055702  0.35896060  0.37832766  1  0.716958  -0.78367  2.024032  -0.522  1.111262  -0.637668  0.665398  -0.858822  2.431875  -0.634  0.746274  -0.954668  2.375264  -0.718  0.811426  0.616864  -0.768684  2.469282  -0.563
H  H6  1  0.22610675  0.11293072  0.39628790  1  0.399039  6.9e-05  0.908866  -0.001  0.656667  9e-05  0.359585  0.000674  0.991068  0.0  0.372571  0.000376  0.973088  0.0  0.286581  0.350469  0.000931  1.003702  0.0
H  H7  1  0.72588530  0.88707307  0.10378176  1  0.398476  -4.5e-05  0.90822  -0.001  0.657097  -0.000104  0.359095  0.000528  0.991371  0.0  0.372129  0.000288  0.973334  0.0  0.286644  0.349922  0.000733  1.004049  0.0
H  H8  1  0.77415852  0.88677136  0.60378194  1  0.398481  0.000124  0.908595  -0.001  0.659062  5.1e-05  0.359125  0.000732  0.991449  0.0  0.372123  0.000429  0.973469  0.0  0.286556  0.349987  0.000987  1.004083  0.0
H  H9  1  0.27415301  0.11300142  0.89622738  1  0.398358  0.000114  0.908171  -0.001  0.657556  4.7e-05  0.359025  0.000723  0.991507  0.0  0.372043  0.000424  0.973498  0.0  0.286571  0.349869  0.000972  1.004153  0.0
H  H10  1  0.21988034  0.22374714  0.50528227  1  0.398518  0.000514  0.906657  0.0  0.664328  0.000673  0.357399  0.001177  0.994082  0.001  0.370207  0.000851  0.976234  0.001  0.290097  0.348314  0.00141  1.00673  0.002
H  H11  1  0.71948677  0.77653474  0.99465460  1  0.398192  0.000489  0.905899  0.0  0.656318  0.000621  0.35729  0.001166  0.993808  0.001  0.370118  0.000844  0.975929  0.001  0.29004  0.348192  0.001394  1.00643  0.002
H  H12  1  0.78043364  0.77632378  0.49470094  1  0.397947  0.000524  0.906669  0.0  0.663941  0.000628  0.357077  0.001199  0.994307  0.001  0.369894  0.000863  0.976449  0.001  0.289888  0.347972  0.00145  1.006963  0.002
H  H13  1  0.28050173  0.22349252  0.00539601  1  0.398153  -7.8e-05  0.906291  0.0  0.655695  0.000313  0.357346  0.00074  0.993859  0.001  0.370197  0.000577  0.975952  0.001  0.29008  0.348213  0.000818  1.006534  0.001
C  C14  1  0.83527103  0.50698775  0.77073385  1  0.272656  -0.004227  3.844908  -0.002  1.062482  -0.001748  0.256616  -0.001157  4.111783  0.0  0.26973  -0.001851  4.127434  -0.001  0.219232  0.247963  -0.000623  4.101635  0.001
C  C15  1  0.33520744  0.49300038  0.72930198  1  0.273442  -0.003369  3.845434  -0.002  1.063796  -0.000872  0.257123  -0.000512  4.112219  0.001  0.270178  -0.001249  4.127896  -0.001  0.219958  0.248545  1.2e-05  4.102047  0.001
C  C16  1  0.16472549  0.49285674  0.22916356  1  0.27392  0.003198  3.843162  0.002  1.064962  0.001239  0.25786  0.00056  4.110099  0.0  0.27093  0.001205  4.12578  0.001  0.219784  0.249282  0.000103  4.099873  -0.001
C  C17  1  0.66463397  0.50705740  0.27082027  1  0.274157  -0.002736  3.843954  -0.001  1.063723  -0.000218  0.257856  -6.4e-05  4.110874  0.001  0.270875  -0.000819  4.12657  0.0  0.219895  0.249318  0.00046  4.100725  0.002
C  C18  1  0.83027269  0.39805301  0.68475660  1  0.058832  -0.00338  3.757044  -0.003  0.437885  -0.001571  0.044214  -0.001513  4.01949  -0.001  0.048332  -0.001581  4.034656  -0.002  0.104174  0.041409  -0.001324  4.00964  -0.001
C  C19  1  0.33030086  0.60182619  0.81529649  1  0.058549  0.002105  3.758573  0.004  0.502638  0.001655  0.044636  0.001456  4.019888  0.003  0.049035  1.5e-05  4.034979  0.001  0.103647  0.041495  0.002762  4.010081  0.004
C  C20  1  0.16968213  0.60179375  0.31513452  1  0.058266  0.004259  3.757294  0.004  0.507447  0.001109  0.043721  0.000784  4.019569  0.001  0.047849  0.000608  4.034753  0.001  0.104015  0.040881  0.000899  4.009672  0.001
C  C21  1  0.66965754  0.39825453  0.18478577  1  0.059018  0.001658  3.758107  0.003  0.502912  0.001909  0.044407  0.001653  4.020308  0.003  0.048805  0.000421  4.035445  0.001  0.10367  0.041313  0.002782  4.010464  0.004
C  C22  1  0.78494823  0.24522970  0.66418820  1  0.061513  -0.000266  3.773282  -0.001  0.574079  -0.00101  0.050778  -0.000983  4.048336  -0.002  0.052662  -0.000521  4.062677  -0.001  0.108538  0.04966  -0.00121  4.038538  -0.002
C  C23  1  0.28519087  0.75468836  0.83557903  1  0.059556  0.005967  3.775183  0.007  0.504438  0.003222  0.048901  0.002574  4.049884  0.004  0.050729  0.001694  4.064033  0.003  0.107794  0.047677  0.003579  4.040384  0.005
C  C24  1  0.21504251  0.75460232  0.33575004  1  0.060653  0.002983  3.773968  0.004  0.501325  0.001013  0.049996  0.000685  4.049411  0.002  0.051825  0.000281  4.063795  0.001  0.108322  0.048854  0.001124  4.039653  0.002
C  C25  1  0.71490306  0.24544067  0.16444683  1  0.059493  0.005518  3.77439  0.007  0.50324  0.003311  0.049246  0.002765  4.049098  0.004  0.051068  0.001744  4.063324  0.002  0.107658  0.04793  0.003796  4.039635  0.005
C  C26  1  0.71087078  0.13244981  0.73060265  1  0.289173  0.003679  3.773435  0.006  1.017374  0.00379  0.261006  0.003369  4.049035  0.005  0.275025  0.001815  4.06149  0.003  0.234082  0.251556  0.004644  4.040988  0.006
C  C27  1  0.21120807  0.86741767  0.76913796  1  0.291219  0.004514  3.771675  0.006  1.015807  0.004713  0.262566  0.003972  4.047795  0.006  0.276685  0.002363  4.060075  0.004  0.234477  0.253013  0.005203  4.040086  0.007
C  C28  1  0.28900876  0.86741807  0.26933493  1  0.289616  0.004142  3.773118  0.006  1.018996  0.00426  0.260338  0.003689  4.050332  0.005  0.274416  0.002115  4.062751  0.003  0.23381  0.250861  0.004992  4.042289  0.007
C  C29  1  0.78898315  0.13271245  0.23087377  1  0.289483  -0.000128  3.770927  0.0  1.015062  -0.000438  0.260907  -0.000759  4.04735  -0.001  0.274862  -0.000387  4.059707  0.0  0.234234  0.251571  -0.000951  4.039518  -0.001
N  N30  1  0.83004202  0.21050789  0.56395756  1  -0.241499  0.008964  3.00172  0.013  -0.614655  0.005051  -0.239251  0.003021  3.309426  0.006  -0.248007  0.001602  3.323789  0.004  -0.212886  -0.2325  0.005111  3.30009  0.008
N  N31  1  0.33003805  0.78950738  0.93584442  1  -0.239167  0.011482  3.008946  0.016  -0.612982  0.013106  -0.23692  0.007631  3.316532  0.011  -0.245561  0.002978  3.330916  0.005  -0.211737  -0.229766  0.013488  3.307  0.018
N  N32  1  0.17001125  0.78928014  0.43598051  1  -0.240463  -0.012859  3.000954  -0.013  -0.616313  -0.006737  -0.238027  -0.004804  3.308514  -0.005  -0.246704  -0.003931  3.322955  -0.004  -0.212294  -0.231254  -0.0058  3.299106  -0.006
N  N33  1  0.67004429  0.21064239  0.06416501  1  -0.239495  0.011786  3.007564  0.017  -0.612238  0.013255  -0.237431  0.007732  3.314966  0.011  -0.246055  0.003222  3.329292  0.006  -0.21205  -0.230267  0.013466  3.305461  0.018
N  N34  1  0.89887132  0.33572537  0.52653365  1  -0.025091  -0.072745  3.313795  -0.083  -0.190867  -0.071317  0.001101  -0.052646  3.65204  -0.066  -0.015395  -0.045283  3.67536  -0.058  -0.141097  0.010255  -0.055216  3.638628  -0.067
N  N35  1  0.39845617  0.66468660  0.97371243  1  -0.0257  0.065299  3.304495  0.085  -0.177089  0.074209  -2e-06  0.049725  3.643297  0.067  -0.016327  0.040588  3.666537  0.058  -0.141681  0.008556  0.054858  3.630032  0.072
N  N36  1  0.10112868  0.66409262  0.47338331  1  -0.025501  0.066223  3.314004  0.086  -0.18542  0.070044  0.000557  0.046846  3.652405  0.065  -0.016046  0.039067  3.675856  0.057  -0.141337  0.009477  0.050398  3.639088  0.067
N  N37  1  0.60154278  0.33545066  0.02633782  1  -0.026407  0.064943  3.304789  0.084  -0.191899  0.074768  -0.00017  0.050046  3.642637  0.068  -0.016379  0.040904  3.665859  0.058  -0.141634  0.008332  0.055128  3.629456  0.072
N  N38  1  0.90125706  0.44969641  0.59648779  1  -0.215284  0.066189  3.207764  0.086  -0.667434  0.071554  -0.196023  0.047747  3.525882  0.065  -0.216548  0.03894  3.546137  0.057  -0.236107  -0.183683  0.052123  3.514335  0.068
N  N39  1  0.40112752  0.55010925  0.90362607  1  -0.216679  0.068815  3.191079  0.09  -0.680684  0.078584  -0.197846  0.051425  3.509021  0.07  -0.218408  0.040382  3.529453  0.058  -0.236694  -0.185294  0.058345  3.49716  0.077
N  N40  1  0.09864100  0.55015944  0.40337741  1  -0.214753  -0.074832  3.209278  -0.086  -0.669922  -0.071104  -0.195379  -0.052251  3.52739  -0.065  -0.216008  -0.043855  3.54777  -0.056  -0.235827  -0.182605  -0.055274  3.515554  -0.067
N  N41  1  0.59881003  0.44997726  0.09645700  1  -0.216887  0.068686  3.192687  0.09  -0.66429  0.07833  -0.197577  0.051267  3.51031  0.07  -0.21821  0.040251  3.530681  0.058  -0.23669  -0.185022  0.058156  3.498366  0.076
N  N42  1  0.93649065  0.62551138  0.76188500  1  -0.291075  0.085146  3.253092  0.111  -0.749196  0.085131  -0.263465  0.055606  3.574818  0.076  -0.295127  0.044739  3.595332  0.064  -0.255249  -0.244385  0.061096  3.562205  0.08
N  N43  1  0.43621507  0.37442629  0.73814741  1  -0.291  0.084986  3.254926  0.111  -0.748606  0.085125  -0.263519  0.055601  3.577228  0.076  -0.295131  0.04457  3.59768  0.064  -0.25565  -0.244418  0.061714  3.56481  0.081
N  N44  1  0.06355914  0.37426611  0.23803417  1  -0.291583  -0.094543  3.25295  -0.109  -0.748258  -0.084567  -0.264541  -0.060952  3.575314  -0.075  -0.296139  -0.050537  3.59582  -0.064  -0.255382  -0.245288  -0.065084  3.56249  -0.079
N  N45  1  0.56361010  0.62561479  0.26189617  1  -0.291192  0.08425  3.256151  0.11  -0.748226  0.084855  -0.26342  0.055416  3.578161  0.076  -0.29508  0.044462  3.598587  0.064  -0.255927  -0.244395  0.061452  3.565793  0.081
N  N46  1  0.91757377  0.71594870  0.84691275  1  -0.041808  -0.000327  2.920281  0.0  -0.067996  0.00227  -0.044934  0.001459  3.215007  0.002  -0.038277  0.000702  3.226205  0.001  -0.085531  -0.04871  0.002118  3.207334  0.003
N  N47  1  0.41729508  0.28417884  0.65298927  1  -0.041604  -0.000233  2.918081  0.001  -0.07137  0.002139  -0.044982  0.001378  3.212866  0.002  -0.03829  0.000585  3.224012  0.001  -0.085642  -0.048781  0.002137  3.205126  0.003
N  N48  1  0.08247488  0.28383361  0.15303631  1  -0.041236  -1.4e-05  2.919796  0.0  -0.068476  -0.002602  -0.044345  -0.002122  3.214688  -0.002  -0.037708  -0.001437  3.225909  -0.001  -0.085287  -0.048124  -0.002433  3.206919  -0.003
N  N49  1  0.58244554  0.71592445  0.34700894  1  -0.042423  -0.000424  2.91994  0.0  -0.071349  0.002373  -0.04543  0.001536  3.214476  0.002  -0.038744  0.000779  3.225645  0.001  -0.085641  -0.049296  0.002218  3.206873  0.003
N  N50  1  0.80863425  0.65363000  0.90499372  1  -0.069651  0.011247  3.005277  0.015  -0.152836  0.009783  -0.0379  0.006001  3.297433  0.008  -0.041122  0.003267  3.307212  0.005  -0.076657  -0.035347  0.008448  3.290464  0.011
N  N51  1  0.30855525  0.34675813  0.59488630  1  -0.069299  0.012503  3.004586  0.016  -0.147372  0.010549  -0.037233  0.006433  3.29623  0.009  -0.040535  0.00354  3.306069  0.005  -0.076391  -0.034434  0.009144  3.289183  0.012
N  N52  1  0.19138892  0.34621931  0.09493201  1  -0.070276  -0.007823  3.006072  -0.009  -0.15397  -0.006176  -0.038815  -0.004127  3.298358  -0.005  -0.042095  -0.00255  3.308166  -0.003  -0.077428  -0.036053  -0.005198  3.291334  -0.006
N  N53  1  0.69118425  0.65341621  0.40517742  1  -0.069067  0.012442  3.0054  0.016  -0.148855  0.011054  -0.037492  0.006627  3.297263  0.009  -0.040794  0.003741  3.307028  0.006  -0.076752  -0.034757  0.009285  3.290439  0.012
N  N54  1  0.75369552  0.52176869  0.85895081  1  -0.297255  0.005924  3.043986  0.009  -0.750691  0.001767  -0.287027  0.001309  3.350384  0.003  -0.304049  0.000375  3.363587  0.002  -0.228673  -0.27557  0.003033  3.341647  0.005
N  N55  1  0.25375367  0.47853165  0.64098173  1  -0.297211  0.00584  3.044119  0.009  -0.753364  0.001749  -0.286791  0.001284  3.350309  0.003  -0.303739  0.000227  3.363351  0.001  -0.229133  -0.27578  0.003146  3.341852  0.005
N  N56  1  0.24627668  0.47808964  0.14093721  1  -0.2971  -0.006128  3.04397  -0.005  -0.753028  -0.003834  -0.286581  -0.00257  3.350106  -0.002  -0.30359  -0.002383  3.363281  -0.002  -0.228165  -0.275374  -0.002463  3.341436  -0.001
N  N57  1  0.74604492  0.52163162  0.35915979  1  -0.298218  0.006353  3.043963  0.007  -0.754284  0.003833  -0.287068  0.002299  3.349757  0.002  -0.303899  0.001787  3.362726  0.001  -0.229025  -0.276384  0.003146  3.341565  0.003
N  N58  1  0.64532502  0.16231000  0.82482492  1  -0.265597  0.066217  3.159869  0.087  -0.729723  0.074815  -0.242474  0.048824  3.472885  0.067  -0.267069  0.039457  3.493215  0.057  -0.243114  -0.228119  0.054057  3.461572  0.071
N  N59  1  0.14532612  0.83756848  0.67498328  1  -0.266524  0.065603  3.158404  0.086  -0.729606  0.074109  -0.243059  0.048402  3.47122  0.066  -0.267779  0.039153  3.491554  0.056  -0.242929  -0.228606  0.053064  3.45963  0.07
N  N60  1  0.35464606  0.83760792  0.17514902  1  -0.265208  0.066678  3.160091  0.087  -0.730358  0.075118  -0.241853  0.04904  3.473591  0.067  -0.266562  0.039504  3.493912  0.057  -0.242918  -0.227498  0.054422  3.462254  0.071
N  N61  1  0.85495082  0.16254661  0.32502762  1  -0.265267  -0.070766  3.162968  -0.082  -0.709246  -0.067958  -0.241863  -0.049824  3.476469  -0.062  -0.26659  -0.042478  3.496857  -0.055  -0.242775  -0.227119  -0.052102  3.464682  -0.063
N  N62  1  0.59457409  0.02403700  0.85828442  1  -0.077565  0.063503  3.254359  0.083  -0.203247  0.069817  -0.05195  0.046534  3.589798  0.063  -0.071768  0.037705  3.612695  0.054  -0.131997  -0.040818  0.05136  3.577082  0.067
N  N63  1  0.09448912  0.97588582  0.64163517  1  -0.077449  0.064032  3.255094  0.083  -0.203592  0.069979  -0.051628  0.046611  3.590167  0.063  -0.071698  0.037774  3.613204  0.054  -0.132398  -0.040084  0.051465  3.57697  0.067
N  N64  1  0.40529739  0.97594460  0.14169290  1  -0.078276  0.064101  3.254087  0.083  -0.202734  0.070187  -0.05279  0.046769  3.589783  0.064  -0.072626  0.037877  3.612712  0.054  -0.132237  -0.041668  0.051638  3.577111  0.068
N  N65  1  0.90566744  0.02449936  0.35842548  1  -0.075583  0.068958  3.256994  0.09  -0.223612  0.067925  -0.0497  0.045538  3.592406  0.063  -0.069774  0.037707  3.615424  0.055  -0.131546  -0.038102  0.049418  3.579202  0.065
N  N66  1  0.62592174  0.91472689  0.78903835  1  -0.023149  0.005747  2.899565  0.008  -0.041793  0.00684  -0.032954  0.004168  3.196632  0.006  -0.027184  0.001313  3.209789  0.002  -0.077248  -0.036516  0.006577  3.188368  0.009
N  N67  1  0.12608748  0.08511810  0.71087357  1  -0.023065  0.005774  2.899625  0.008  -0.041589  0.006699  -0.033103  0.004077  3.196909  0.006  -0.027293  0.001267  3.210147  0.002  -0.077176  -0.036636  0.006413  3.188442  0.008
N  N68  1  0.37376787  0.08522211  0.21091681  1  -0.023145  0.005314  2.899272  0.008  -0.041852  0.006397  -0.033023  0.003934  3.196269  0.005  -0.027214  0.001177  3.209423  0.002  -0.07739  -0.036646  0.006248  3.188014  0.008
N  N69  1  0.87400532  0.91505909  0.28925940  1  -0.024662  -0.014263  2.897474  -0.015  -0.035154  -0.007311  -0.034522  -0.005091  3.194847  -0.005  -0.0288  -0.004339  3.208096  -0.005  -0.077371  -0.037904  -0.005664  3.186295  -0.006
N  N70  1  0.69903928  0.97981513  0.70815132  1  -0.261239  0.010775  2.988255  0.014  -0.667998  0.010832  -0.218075  0.006474  3.256237  0.009  -0.231261  0.004161  3.264967  0.006  -0.185611  -0.209395  0.00852  3.250643  0.011
N  N71  1  0.19949535  0.02003525  0.79166265  1  -0.261229  0.010359  2.987597  0.013  -0.664842  0.010277  -0.218324  0.006106  3.256174  0.008  -0.23155  0.003823  3.264855  0.005  -0.185668  -0.209681  0.00814  3.250664  0.01
N  N72  1  0.30064798  0.02006997  0.29177057  1  -0.26068  0.010426  2.988307  0.014  -0.665354  0.010249  -0.217048  0.006061  3.256223  0.008  -0.230323  0.003781  3.265001  0.005  -0.185182  -0.208193  0.008112  3.250494  0.01
N  N73  1  0.80062060  0.98006538  0.20844880  1  -0.260259  0.003771  2.988438  0.006  -0.669202  0.002069  -0.217369  0.000902  3.257137  0.002  -0.230482  -0.000156  3.265804  0.001  -0.185697  -0.208811  0.002038  3.251592  0.004
O  O74  1  0.15738890  0.16054712  0.45303544  1  -0.822367  0.075581  2.109567  0.103  -1.274548  0.083165  -0.802221  0.051524  2.379729  0.075  -0.841218  0.038841  2.343382  0.059  -0.572939  -0.775635  0.060398  2.405138  0.084
O  O75  1  0.65694707  0.83950265  0.04702651  1  -0.819649  0.074844  2.109828  0.105  -1.265915  0.082026  -0.80027  0.05066  2.38117  0.075  -0.839503  0.037199  2.344948  0.059  -0.571272  -0.772579  0.061159  2.406267  0.087
O  O76  1  0.84307332  0.83932177  0.54703822  1  -0.819199  0.076095  2.108938  0.106  -1.276108  0.082507  -0.800604  0.051055  2.38028  0.076  -0.83995  0.037489  2.344086  0.059  -0.571456  -0.773038  0.061531  2.405289  0.087
O  O77  1  0.34309588  0.16058351  0.95299682  1  -0.81938  0.074825  2.109967  0.105  -1.266158  0.081871  -0.80043  0.050551  2.381039  0.075  -0.839792  0.037142  2.344923  0.059  -0.57108  -0.772467  0.06107  2.406026  0.087
