# generated using pymatgen
data_CdH9C16N3ClO4
_symmetry_space_group_name_H-M   'P 1'
_cell_length_a   16.07712052
_cell_length_b   17.65468242
_cell_length_c   17.65253653
_cell_angle_alpha   78.03214423
_cell_angle_beta   62.92156258
_cell_angle_gamma   62.91159458
_symmetry_Int_Tables_number   1
_chemical_formula_structural   CdH9C16N3ClO4
_chemical_formula_sum   'Cd8 H72 C128 N24 Cl8 O32'
_cell_volume   3971.83801139
_cell_formula_units_Z   8
loop_
 _symmetry_equiv_pos_site_id
 _symmetry_equiv_pos_as_xyz
  1  'x, y, z'
loop_
 _atom_site_type_symbol
 _atom_site_label
 _atom_site_symmetry_multiplicity
 _atom_site_fract_x
 _atom_site_fract_y
 _atom_site_fract_z
 _atom_site_occupancy
 _atom_site_pbe_bader_charge
 _atom_site_pbe_bader_spin_density
 _atom_site_pbe_cm5_charge
 _atom_site_pbe_ddec_charge
 _atom_site_pbe_ddec_spin_density
 _atom_site_pbe_ddec_sum_bond_order
 _atom_site_pbe_magmom
Cd  Cd0  1  0.63089474  0.40768493  0.43403715  1  1.254683  0  0.79906  0.849443  0  2.238743  0
Cd  Cd1  1  0.47258365  0.09232507  0.06591021  1  1.255159  0  0.799505  0.849798  0  2.237827  0
Cd  Cd2  1  0.56487572  0.06597080  0.40767646  1  1.254922  0  0.799329  0.849614  0  2.237958  0
Cd  Cd3  1  0.03850074  0.43405253  0.09234438  1  1.255944  0  0.799286  0.849377  0  2.238356  0
Cd  Cd4  1  0.36910505  0.59231479  0.56596244  1  1.25469  0  0.799047  0.849431  0  2.238775  0
Cd  Cd5  1  0.52741680  0.90767528  0.93408911  1  1.255159  0  0.799513  0.849822  0  2.237797  0
Cd  Cd6  1  0.43512463  0.93402892  0.59232257  1  1.254948  0  0.799324  0.849596  0  2.23801  0
Cd  Cd7  1  0.96149864  0.56594656  0.90765663  1  1.255978  0  0.799278  0.849355  0  2.238362  0
H  H8  1  0.93548193  0.21604012  0.18247487  1  0.093939  0  0.105169  0.12425  0  0.998497  0
H  H9  1  0.33404199  0.28408210  0.31750309  1  0.097046  0  0.10485  0.122775  0  0.999891  0
H  H10  1  0.61791767  0.31750463  0.21598593  1  0.100447  0  0.104951  0.122673  0  0.999019  0
H  H11  1  0.15150775  0.18249285  0.28403884  1  0.095691  0  0.105035  0.123793  0  0.998831  0
H  H12  1  0.06451933  0.78396023  0.81752504  1  0.093961  0  0.10517  0.12425  0  0.998469  0
H  H13  1  0.66595804  0.71591762  0.68249765  1  0.097051  0  0.104835  0.122748  0  0.99996  0
H  H14  1  0.38208277  0.68249509  0.78401510  1  0.100445  0  0.104945  0.122642  0  0.999021  0
H  H15  1  0.84849222  0.81750814  0.71596133  1  0.095673  0  0.105028  0.123752  0  0.998855  0
H  H16  1  0.70802363  0.15063706  0.64579236  1  0.128582  0  0.112325  0.132377  0  1.019201  0
H  H17  1  0.50436514  0.34938767  0.85433122  1  0.127467  0  0.112562  0.132571  0  1.017882  0
H  H18  1  0.85372473  0.85436771  0.15054046  1  0.126204  0  0.112179  0.1321  0  1.018766  0
H  H19  1  0.85860068  0.64572987  0.34938889  1  0.12709  0  0.112375  0.131956  0  1.018515  0
H  H20  1  0.29197616  0.84936266  0.35420723  1  0.128507  0  0.112332  0.132363  0  1.019216  0
H  H21  1  0.49563433  0.65061268  0.14566837  1  0.127475  0  0.112542  0.132516  0  1.01798  0
H  H22  1  0.14627643  0.14563201  0.84945915  1  0.126045  0  0.112204  0.132151  0  1.018747  0
H  H23  1  0.14140080  0.35426921  0.65061072  1  0.127072  0  0.112369  0.13196  0  1.018534  0
H  H24  1  0.76198370  0.06332176  0.42817816  1  0.106566  0  0.101669  0.110724  0  1.037924  0
H  H25  1  0.25341637  0.43668284  0.07179391  1  0.149838  0  0.101538  0.110308  0  1.037688  0
H  H26  1  0.69009220  0.07176018  0.06330994  1  0.144625  0  0.101317  0.109962  0  1.036605  0
H  H27  1  0.82528771  0.42822411  0.43666974  1  0.107011  0  0.101386  0.110102  0  1.036828  0
H  H28  1  0.23801568  0.93667796  0.57182114  1  0.106569  0  0.101665  0.110711  0  1.037936  0
H  H29  1  0.74658212  0.56331688  0.92820767  1  0.149815  0  0.101526  0.110284  0  1.037725  0
H  H30  1  0.30990831  0.92823891  0.93668995  1  0.144635  0  0.101323  0.10999  0  1.036598  0
H  H31  1  0.17471063  0.57177688  0.56332926  1  0.106912  0  0.101394  0.110118  0  1.036811  0
H  H32  1  0.64004313  0.45319201  0.59606059  1  0.119168  0  0.114328  0.091291  0  1.01693  0
H  H33  1  0.68931980  0.04679860  0.90388470  1  0.120478  0  0.114386  0.091073  0  1.016578  0
H  H34  1  0.73608214  0.90389853  0.45314133  1  0.12162  0  0.114246  0.091455  0  1.016028  0
H  H35  1  0.09314398  0.59603567  0.04686055  1  0.120951  0  0.114149  0.091566  0  1.015771  0
H  H36  1  0.35995764  0.54680771  0.40393872  1  0.119166  0  0.114332  0.091283  0  1.016954  0
H  H37  1  0.31067967  0.95320112  0.09611661  1  0.120475  0  0.114401  0.091085  0  1.016624  0
H  H38  1  0.26391887  0.09610119  0.54685914  1  0.121607  0  0.11426  0.091494  0  1.016048  0
H  H39  1  0.90685572  0.40396342  0.95313875  1  0.120898  0  0.114169  0.091606  0  1.015725  0
H  H40  1  0.61802566  0.39594076  0.74089012  1  0.11263  0  0.107577  0.116017  0  1.024706  0
H  H41  1  0.75487153  0.10414799  0.75912712  1  0.122925  0  0.107437  0.115793  0  1.024868  0
H  H42  1  0.85877046  0.75907617  0.39586532  1  0.103648  0  0.107168  0.114662  0  1.02577  0
H  H43  1  0.01374534  0.74088366  0.10406717  1  0.115021  0  0.107611  0.11639  0  1.023956  0
H  H44  1  0.38197324  0.60405960  0.25911004  1  0.112649  0  0.107567  0.116004  0  1.024737  0
H  H45  1  0.24512762  0.89585237  0.24087418  1  0.122892  0  0.107442  0.115811  0  1.024832  0
H  H46  1  0.14123030  0.24092355  0.60413400  1  0.103645  0  0.107173  0.114679  0  1.025777  0
H  H47  1  0.98625631  0.25911543  0.89593158  1  0.115012  0  0.107617  0.116376  0  1.023939  0
H  H48  1  0.95154556  0.99478066  0.34427950  1  0.098088  0  0.105908  0.119025  0  0.985915  0
H  H49  1  0.29052908  0.50528876  0.15565465  1  0.090441  0  0.106007  0.119066  0  0.985593  0
H  H50  1  0.79568481  0.15572871  0.99473702  1  0.078269  0  0.105854  0.118868  0  0.985926  0
H  H51  1  0.94626492  0.34425334  0.50527467  1  0.09401  0  0.105985  0.119352  0  0.986125  0
H  H52  1  0.04845520  0.00521906  0.65571982  1  0.098083  0  0.105916  0.119041  0  0.985924  0
H  H53  1  0.70946941  0.49471096  0.84434693  1  0.090902  0  0.106031  0.119098  0  0.985602  0
H  H54  1  0.20431636  0.84427101  0.00526259  1  0.078276  0  0.105879  0.118913  0  0.985885  0
H  H55  1  0.05373294  0.65574829  0.49472520  1  0.093445  0  0.106002  0.11939  0  0.986101  0
H  H56  1  0.72521221  0.21888053  0.50451757  1  0.111165  0  0.114626  0.084643  0  1.017202  0
H  H57  1  0.44864424  0.28105229  0.99555774  1  0.089886  0  0.114702  0.085005  0  1.017467  0
H  H58  1  0.72970241  0.99561334  0.21883071  1  0.103019  0  0.114903  0.085346  0  1.017026  0
H  H59  1  0.94405162  0.50447059  0.28115550  1  0.123518  0  0.114528  0.084205  0  1.018164  0
H  H60  1  0.27478937  0.78111919  0.49548233  1  0.111168  0  0.114632  0.084629  0  1.017189  0
H  H61  1  0.55135475  0.71894870  0.00444271  1  0.0899  0  0.114675  0.08496  0  1.017477  0
H  H62  1  0.27029973  0.00438638  0.78116863  1  0.103185  0  0.114894  0.085336  0  1.017012  0
H  H63  1  0.05594817  0.49552913  0.71884409  1  0.123518  0  0.11454  0.084221  0  1.018161  0
H  H64  1  0.74796038  0.28475094  0.26715203  1  0.093512  0  0.100575  0.099504  0  1.033498  0
H  H65  1  0.29994758  0.21531264  0.23282484  1  0.077775  0  0.100674  0.098189  0  1.034954  0
H  H66  1  0.51515926  0.23274808  0.28473049  1  0.098514  0  0.100285  0.098729  0  1.035059  0
H  H67  1  0.03271438  0.26719967  0.21527922  1  0.081388  0  0.100698  0.099396  0  1.03413  0
H  H68  1  0.25203974  0.71525005  0.73284729  1  0.093538  0  0.100543  0.099459  0  1.033512  0
H  H69  1  0.70005245  0.78468708  0.76717590  1  0.077714  0  0.100688  0.098203  0  1.034923  0
H  H70  1  0.48484094  0.76725164  0.71526939  1  0.098519  0  0.100301  0.098751  0  1.03498  0
H  H71  1  0.96728549  0.73280069  0.78472066  1  0.081382  0  0.100715  0.099439  0  1.034093  0
H  H72  1  0.29393289  0.36319833  0.52397004  1  0.642274  0  0.287906  0.342447  0  1.017883  0
H  H73  1  0.18099987  0.13686547  0.97601932  1  0.644638  0  0.288124  0.342007  0  1.018627  0
H  H74  1  0.31782365  0.97599006  0.36316828  1  0.645398  0  0.288465  0.343521  0  1.017369  0
H  H75  1  0.65706901  0.52398881  0.13676303  1  0.641491  0  0.287769  0.342005  0  1.019438  0
H  H76  1  0.70606787  0.63680139  0.47602928  1  0.642238  0  0.287925  0.342481  0  1.017813  0
H  H77  1  0.81900064  0.86313298  0.02398228  1  0.644637  0  0.288127  0.342081  0  1.018501  0
H  H78  1  0.68217623  0.02401030  0.63683160  1  0.645395  0  0.288445  0.343472  0  1.017429  0
H  H79  1  0.34293191  0.47601091  0.86323543  1  0.641627  0  0.287778  0.342006  0  1.019459  0
C  C80  1  0.65983774  0.26783656  0.70651372  1  -0.031233  0  0.016519  0.111758  0  3.960947  0
C  C81  1  0.63414359  0.23220328  0.79357894  1  -0.070827  0  0.015667  0.110011  0  3.961002  0
C  C82  1  0.86618701  0.79354625  0.26778229  1  -0.070183  0  0.015324  0.109923  0  3.959549  0
C  C83  1  0.92749442  0.70647737  0.23216245  1  -0.045093  0  0.015849  0.10971  0  3.962822  0
C  C84  1  0.34016157  0.73216379  0.29348673  1  -0.030907  0  0.016459  0.11166  0  3.960878  0
C  C85  1  0.36585434  0.76779708  0.20642149  1  -0.071155  0  0.015647  0.110031  0  3.960964  0
C  C86  1  0.13381488  0.20645283  0.73221761  1  -0.070167  0  0.015295  0.109888  0  3.959657  0
C  C87  1  0.07250635  0.29352235  0.76783687  1  -0.045055  0  0.015859  0.109814  0  3.962717  0
C  C88  1  0.63078636  0.22281447  0.40294274  1  0.993725  0  0.214113  0.306936  0  4.020655  0
C  C89  1  0.25650691  0.27720292  0.09705692  1  0.98611  0  0.214849  0.308757  0  4.019725  0
C  C90  1  0.53365476  0.09701808  0.22280521  1  0.975738  0  0.213477  0.305369  0  4.019161  0
C  C91  1  0.85357200  0.40293447  0.27717907  1  0.994987  0  0.21369  0.305991  0  4.021412  0
C  C92  1  0.36921384  0.77718588  0.59705543  1  0.993718  0  0.214121  0.306924  0  4.02072  0
C  C93  1  0.74349401  0.72279616  0.90294325  1  0.986128  0  0.214886  0.308845  0  4.019656  0
C  C94  1  0.46634544  0.90298164  0.77719467  1  0.975752  0  0.213474  0.305367  0  4.019112  0
C  C95  1  0.14642722  0.59706525  0.72282108  1  0.995  0  0.213712  0.305962  0  4.021379  0
C  C96  1  0.89778616  0.18323641  0.23695574  1  0.058387  0  -0.096118  -0.149281  0  3.99052  0
C  C97  1  0.31799936  0.31685282  0.26301275  1  0.036609  0  -0.09527  -0.145582  0  3.987767  0
C  C98  1  0.63468717  0.26301667  0.18319702  1  0.017515  0  -0.095466  -0.145572  0  3.990218  0
C  C99  1  0.08098296  0.23694718  0.31684097  1  0.022866  0  -0.09692  -0.149732  0  3.98915  0
C  C100  1  0.10221438  0.81676458  0.76304387  1  0.058373  0  -0.096095  -0.149237  0  3.990475  0
C  C101  1  0.68200125  0.68314690  0.73698743  1  0.036586  0  -0.095219  -0.145504  0  3.987743  0
C  C102  1  0.36531271  0.73698368  0.81680286  1  0.017512  0  -0.095451  -0.145538  0  3.990175  0
C  C103  1  0.91901635  0.76305318  0.68315948  1  0.022876  0  -0.09691  -0.149644  0  3.989134  0
C  C104  1  0.69408654  0.21764221  0.63723190  1  -0.071521  0  -0.079702  -0.167886  0  3.904234  0
C  C105  1  0.54891721  0.28238366  0.86286518  1  -0.055169  0  -0.079386  -0.16705  0  3.901031  0
C  C106  1  0.83120921  0.86285815  0.21756676  1  -0.031568  0  -0.07894  -0.166609  0  3.900903  0
C  C107  1  0.91161147  0.63718076  0.28237560  1  -0.018174  0  -0.078739  -0.1658  0  3.902592  0
C  C108  1  0.30591309  0.78235751  0.36276855  1  -0.071474  0  -0.079624  -0.167759  0  3.904094  0
C  C109  1  0.45108210  0.71761670  0.13713527  1  -0.05517  0  -0.079385  -0.167068  0  3.901109  0
C  C110  1  0.16879156  0.13714157  0.78243256  1  -0.031395  0  -0.078922  -0.16662  0  3.900989  0
C  C111  1  0.08838961  0.36281833  0.71762372  1  -0.01822  0  -0.078769  -0.165886  0  3.902591  0
C  C112  1  0.79997087  0.09643465  0.37398152  1  0.013043  0  -0.087751  -0.103194  0  3.972437  0
C  C113  1  0.27031693  0.40360801  0.12599707  1  -0.077236  0  -0.087152  -0.102389  0  3.972362  0
C  C114  1  0.67385085  0.12599362  0.09639453  1  -0.066913  0  -0.087475  -0.101932  0  3.970281  0
C  C115  1  0.89633799  0.37396892  0.40360996  1  -0.04508  0  -0.086905  -0.101755  0  3.970504  0
C  C116  1  0.20002990  0.90356507  0.62601780  1  0.013031  0  -0.087757  -0.103179  0  3.972354  0
C  C117  1  0.72968245  0.59639107  0.87400395  1  -0.07715  0  -0.08715  -0.102401  0  3.97242  0
C  C118  1  0.32614934  0.87400610  0.90360536  1  -0.066926  0  -0.0875  -0.101991  0  3.970367  0
C  C119  1  0.10366091  0.62603144  0.59639019  1  -0.044981  0  -0.086898  -0.101789  0  3.970504  0
C  C120  1  0.48152495  0.32455455  0.46936812  1  0.428074  0  0.070458  -0.002129  0  4.025863  0
C  C121  1  0.27538546  0.17546615  0.03064645  1  0.405103  0  0.070749  -0.002502  0  4.029695  0
C  C122  1  0.45081297  0.03060966  0.32455381  1  0.441548  0  0.069197  -0.004546  0  4.032611  0
C  C123  1  0.80605643  0.46934110  0.17541418  1  0.438487  0  0.070326  -0.002882  0  4.027466  0
C  C124  1  0.51847428  0.67544581  0.53063033  1  0.42796  0  0.070413  -0.002186  0  4.025798  0
C  C125  1  0.72461570  0.82453357  0.96935316  1  0.405082  0  0.070709  -0.002479  0  4.029697  0
C  C126  1  0.54918811  0.96938942  0.67544551  1  0.44147  0  0.069159  -0.004588  0  4.032648  0
C  C127  1  0.19394344  0.53065925  0.82458571  1  0.438326  0  0.070323  -0.002916  0  4.027513  0
C  C128  1  0.65555819  0.38625715  0.60929933  1  0.521791  0  0.048824  0.110387  0  3.941305  0
C  C129  1  0.65112255  0.11374484  0.89071856  1  0.485108  0  0.049643  0.112467  0  3.93883  0
C  C130  1  0.76476916  0.89072229  0.38620400  1  0.472941  0  0.049431  0.111366  0  3.937741  0
C  C131  1  0.04167987  0.60927993  0.11377302  1  0.501537  0  0.049826  0.111834  0  3.937099  0
C  C132  1  0.34444201  0.61374257  0.39070055  1  0.521765  0  0.048828  0.110404  0  3.941327  0
C  C133  1  0.34887716  0.88625552  0.10928218  1  0.484805  0  0.049622  0.112419  0  3.938948  0
C  C134  1  0.23523299  0.10927743  0.61379534  1  0.472754  0  0.049422  0.111339  0  3.937823  0
C  C135  1  0.95831992  0.39071979  0.88622657  1  0.501613  0  0.04981  0.111772  0  3.936969  0
C  C136  1  0.64353679  0.35347089  0.69054771  1  -0.030051  0  -0.079692  -0.166207  0  3.924631  0
C  C137  1  0.68754496  0.14655657  0.80950458  1  0.030201  0  -0.0797  -0.166623  0  3.925972  0
C  C138  1  0.83395054  0.80947875  0.35341930  1  0.030207  0  -0.079017  -0.164295  0  3.922187  0
C  C139  1  0.99686316  0.69051721  0.14654041  1  0.005666  0  -0.079644  -0.166847  0  3.924472  0
C  C140  1  0.35646308  0.64652947  0.30945217  1  -0.029903  0  -0.079703  -0.166225  0  3.924653  0
C  C141  1  0.31245306  0.85344442  0.19049615  1  0.030478  0  -0.079699  -0.166627  0  3.925938  0
C  C142  1  0.16605079  0.19052097  0.64657946  1  0.03022  0  -0.078995  -0.16431  0  3.922205  0
C  C143  1  0.00313849  0.30948187  0.85345835  1  0.005671  0  -0.079658  -0.166859  0  3.924359  0
C  C144  1  0.90613336  0.05806537  0.32742843  1  -0.028658  0  -0.097443  -0.152494  0  3.992255  0
C  C145  1  0.29156694  0.44200205  0.17252599  1  0.018463  0  -0.096403  -0.150031  0  3.994085  0
C  C146  1  0.73343130  0.17258805  0.05801989  1  0.042137  0  -0.097  -0.151348  0  3.995335  0
C  C147  1  0.96414557  0.32740943  0.44198738  1  0.018892  0  -0.097783  -0.152866  0  3.995188  0
C  C148  1  0.09386668  0.94193498  0.67257060  1  -0.028661  0  -0.097462  -0.152524  0  3.992274  0
C  C149  1  0.70843398  0.55799704  0.82747419  1  0.017951  0  -0.096412  -0.150057  0  3.994166  0
C  C150  1  0.26656953  0.82741040  0.94197999  1  0.042148  0  -0.096998  -0.151372  0  3.995342  0
C  C151  1  0.03585326  0.67259220  0.55801221  1  0.019464  0  -0.097775  -0.152864  0  3.995193  0
C  C152  1  0.74211961  0.17901270  0.35361568  1  -0.096089  0  -0.013778  -0.000727  0  4.023879  0
C  C153  1  0.27471877  0.32103068  0.14636676  1  -0.042487  0  -0.014999  -0.002532  0  4.025046  0
C  C154  1  0.59567388  0.14633445  0.17897577  1  -0.036253  0  -0.014438  -0.002045  0  4.023249  0
C  C155  1  0.92109089  0.35362944  0.32101889  1  -0.012824  0  -0.01388  -0.000194  0  4.021416  0
C  C156  1  0.25788116  0.82098702  0.64638364  1  -0.096109  0  -0.01378  -0.000745  0  4.023913  0
C  C157  1  0.72528085  0.67896904  0.85363369  1  -0.04273  0  -0.014993  -0.002492  0  4.025081  0
C  C158  1  0.40432558  0.85366527  0.82102554  1  -0.036241  0  -0.014386  -0.002005  0  4.023198  0
C  C159  1  0.07890849  0.64637028  0.67898041  1  -0.012793  0  -0.013908  -0.000134  0  4.021307  0
C  C160  1  0.95439887  0.10204899  0.25970489  1  0.022791  0  0.014037  0.151933  0  4.059534  0
C  C161  1  0.31612190  0.39804585  0.24026868  1  -0.027398  0  0.012825  0.147819  0  4.064339  0
C  C162  1  0.71399608  0.24031669  0.10199470  1  -0.017101  0  0.012816  0.148007  0  4.06119  0
C  C163  1  0.05641382  0.25968904  0.39802376  1  -0.000847  0  0.01257  0.149395  0  4.059603  0
C  C164  1  0.04560158  0.89795137  0.74029443  1  0.022777  0  0.014059  0.151927  0  4.059542  0
C  C165  1  0.68387627  0.60195450  0.75973290  1  -0.027347  0  0.012791  0.147804  0  4.064353  0
C  C166  1  0.28600484  0.75968240  0.89800548  1  -0.01713  0  0.012797  0.148016  0  4.061236  0
C  C167  1  0.94358477  0.74031196  0.60197640  1  -0.000858  0  0.012569  0.149351  0  4.059669  0
C  C168  1  0.70306098  0.25565927  0.55833493  1  0.517229  0  0.046361  0.102547  0  3.955593  0
C  C169  1  0.51703719  0.24431628  0.94171154  1  0.51082  0  0.046468  0.102119  0  3.955843  0
C  C170  1  0.76133273  0.94173917  0.25558946  1  0.493182  0  0.046071  0.102346  0  3.953943  0
C  C171  1  0.95865806  0.55828887  0.24437664  1  0.46455  0  0.046262  0.103256  0  3.955943  0
C  C172  1  0.29693994  0.74433981  0.44166524  1  0.517279  0  0.046375  0.102577  0  3.955544  0
C  C173  1  0.48296131  0.75568407  0.05828832  1  0.510848  0  0.046523  0.102254  0  3.955772  0
C  C174  1  0.23866933  0.05825992  0.74440958  1  0.493004  0  0.046084  0.102363  0  3.953938  0
C  C175  1  0.04134270  0.44171085  0.75562268  1  0.464579  0  0.046226  0.103204  0  3.95591  0
C  C176  1  0.79225308  0.22139184  0.28450979  1  -0.033969  0  -0.087656  -0.097368  0  3.977173  0
C  C177  1  0.29816007  0.27868211  0.21547115  1  -0.001677  0  -0.087162  -0.0956  0  3.976837  0
C  C178  1  0.57674161  0.21543101  0.22134855  1  -0.020529  0  -0.086552  -0.095939  0  3.978842  0
C  C179  1  0.01361538  0.28452266  0.27866061  1  -0.031756  0  -0.086174  -0.095215  0  3.975582  0
C  C180  1  0.20774736  0.77860851  0.71548953  1  -0.033949  0  -0.087635  -0.09731  0  3.97717  0
C  C181  1  0.70183883  0.72131761  0.78453072  1  -0.001419  0  -0.087211  -0.095673  0  3.976831  0
C  C182  1  0.42325931  0.78456807  0.77865162  1  -0.020535  0  -0.086589  -0.095964  0  3.978743  0
C  C183  1  0.98638377  0.71547834  0.72133898  1  -0.031769  0  -0.086194  -0.095316  0  3.97554  0
C  C184  1  0.46666829  0.25461755  0.46227640  1  0.402945  0  0.064404  -0.029434  0  4.047946  0
C  C185  1  0.18347882  0.24538677  0.03776479  1  0.422912  0  0.064413  -0.029638  0  4.048128  0
C  C186  1  0.42882827  0.03772531  0.25461651  1  0.418925  0  0.065219  -0.028585  0  4.04815  0
C  C187  1  0.72125793  0.46223707  0.24533590  1  0.413439  0  0.06538  -0.027741  0  4.050088  0
C  C188  1  0.53333150  0.74538281  0.53772147  1  0.403071  0  0.064429  -0.029326  0  4.047893  0
C  C189  1  0.81652187  0.75461359  0.96223568  1  0.422798  0  0.064352  -0.02973  0  4.04817  0
C  C190  1  0.57117152  0.96227441  0.74538308  1  0.418978  0  0.065228  -0.028568  0  4.0482  0
C  C191  1  0.27874275  0.53776201  0.75466313  1  0.413466  0  0.065379  -0.027742  0  4.050103  0
C  C192  1  0.37287182  0.24356520  0.48433145  1  1.539598  0  0.21764  0.558867  0  4.190295  0
C  C193  1  0.10067276  0.25641179  0.01573179  1  1.532699  0  0.217425  0.557714  0  4.191614  0
C  C194  1  0.35706179  0.01569927  0.24355042  1  1.538649  0  0.216794  0.556087  0  4.190846  0
C  C195  1  0.61638434  0.48431467  0.25638940  1  1.547212  0  0.217147  0.556702  0  4.192243  0
C  C196  1  0.62712708  0.75643580  0.51566699  1  1.539541  0  0.217572  0.558617  0  4.190473  0
C  C197  1  0.89932726  0.74358602  0.98426922  1  1.532797  0  0.217484  0.557818  0  4.191408  0
C  C198  1  0.64293857  0.98430045  0.75644860  1  1.538652  0  0.216751  0.555984  0  4.190936  0
C  C199  1  0.38361530  0.51568569  0.74360934  1  1.54716  0  0.217225  0.556838  0  4.192067  0
C  C200  1  0.40726832  0.40842972  0.50985113  1  1.56322  0  0.213195  0.566996  0  4.225167  0
C  C201  1  0.32550351  0.09160910  0.99011776  1  1.602262  0  0.21376  0.569069  0  4.218793  0
C  C202  1  0.41706383  0.99012186  0.40843000  1  1.561029  0  0.212463  0.566379  0  4.22004  0
C  C203  1  0.81567771  0.50985937  0.09154248  1  1.579255  0  0.212386  0.565601  0  4.221819  0
C  C204  1  0.59273099  0.59157064  0.49014932  1  1.563334  0  0.213302  0.567146  0  4.224917  0
C  C205  1  0.67449961  0.90839062  0.00988130  1  1.602276  0  0.213666  0.568858  0  4.219057  0
C  C206  1  0.58293668  0.00987723  0.59156989  1  1.561021  0  0.212401  0.566232  0  4.22023  0
C  C207  1  0.18432353  0.49013972  0.90845598  1  1.579108  0  0.212448  0.565647  0  4.22178  0
N  N208  1  0.58479140  0.30345391  0.43168092  1  -1.204805  0  -0.356006  -0.367798  0  3.464207  0
N  N209  1  0.31989771  0.19656432  0.06830612  1  -1.20145  0  -0.355429  -0.367031  0  3.466118  0
N  N210  1  0.51641132  0.06827887  0.30344980  1  -1.195573  0  -0.355402  -0.366074  0  3.466033  0
N  N211  1  0.88821379  0.43167133  0.19653418  1  -1.201005  0  -0.355598  -0.36682  0  3.464674  0
N  N212  1  0.41520864  0.69654645  0.56831811  1  -1.204825  0  -0.35597  -0.367734  0  3.464208  0
N  N213  1  0.68010192  0.80343540  0.93169433  1  -1.201404  0  -0.355384  -0.367006  0  3.466021  0
N  N214  1  0.48359017  0.93172022  0.69654981  1  -1.195571  0  -0.355396  -0.366059  0  3.466033  0
N  N215  1  0.11178623  0.56832712  0.80346512  1  -1.200777  0  -0.355608  -0.366784  0  3.46466  0
N  N216  1  0.68184394  0.33919157  0.54451849  1  -1.246181  0  -0.33112  -0.257406  0  3.512162  0
N  N217  1  0.56556251  0.16078011  0.95550060  1  -1.258512  0  -0.331434  -0.258235  0  3.510837  0
N  N218  1  0.72630851  0.95552659  0.33913568  1  -1.254131  0  -0.331406  -0.258884  0  3.511634  0
N  N219  1  0.02094509  0.54448794  0.16083759  1  -1.25501  0  -0.33187  -0.25932  0  3.510453  0
N  N220  1  0.31815714  0.66080751  0.45548083  1  -1.246342  0  -0.331146  -0.257436  0  3.512237  0
N  N221  1  0.43443802  0.83922088  0.04449901  1  -1.258511  0  -0.331443  -0.258278  0  3.510869  0
N  N222  1  0.27369298  0.04447249  0.66086393  1  -1.253996  0  -0.331432  -0.258907  0  3.511713  0
N  N223  1  0.97905429  0.45551178  0.83916171  1  -1.255011  0  -0.33186  -0.259269  0  3.510404  0
N  N224  1  0.56160988  0.19076827  0.42155160  1  -1.194617  0  -0.35775  -0.363628  0  3.489515  0
N  N225  1  0.17383903  0.30922879  0.07851498  1  -1.20787  0  -0.359009  -0.365845  0  3.490423  0
N  N226  1  0.48304843  0.07843973  0.19076709  1  -1.196412  0  -0.35717  -0.361723  0  3.485923  0
N  N227  1  0.75236650  0.42149886  0.30919005  1  -1.226873  0  -0.358379  -0.364698  0  3.492945  0
N  N228  1  0.43839032  0.80923208  0.57844657  1  -1.194728  0  -0.357779  -0.363695  0  3.489596  0
N  N229  1  0.82616101  0.69077093  0.92148576  1  -1.207909  0  -0.359014  -0.365897  0  3.490431  0
N  N230  1  0.51695145  0.92156063  0.80923279  1  -1.196413  0  -0.357159  -0.361689  0  3.485974  0
N  N231  1  0.24763297  0.57850149  0.69080954  1  -1.226881  0  -0.358395  -0.364735  0  3.49293  0
Cl  Cl232  1  0.08675033  0.05680727  0.20374011  1  -0.23493  0  -0.001231  -0.081871  0  1.512387  0
Cl  Cl233  1  0.34721128  0.44334187  0.29623799  1  -0.226005  0  -0.001604  -0.082003  0  1.514216  0
Cl  Cl234  1  0.79035075  0.29632055  0.05671482  1  -0.237248  0  -0.000945  -0.080921  0  1.510161  0
Cl  Cl235  1  0.14346725  0.20365430  0.44334009  1  -0.229213  0  -0.000534  -0.081009  0  1.511054  0
Cl  Cl236  1  0.91325092  0.94319309  0.79625979  1  -0.234905  0  -0.001242  -0.081881  0  1.512362  0
Cl  Cl237  1  0.65278875  0.55665785  0.70376275  1  -0.225994  0  -0.001601  -0.082014  0  1.514229  0
Cl  Cl238  1  0.20964985  0.70367917  0.94328536  1  -0.23724  0  -0.000942  -0.080933  0  1.510172  0
Cl  Cl239  1  0.85653117  0.79634669  0.55666093  1  -0.229245  0  -0.000544  -0.081007  0  1.511056  0
O  O240  1  0.28359234  0.30924833  0.51750723  1  -1.171319  0  -0.332624  -0.491565  0  2.311926  0
O  O241  1  0.11025638  0.19074946  0.98251447  1  -1.170627  0  -0.334032  -0.491862  0  2.313219  0
O  O242  1  0.30100398  0.98248367  0.30922851  1  -1.175736  0  -0.332989  -0.491532  0  2.312801  0
O  O243  1  0.59278954  0.51751188  0.19068881  1  -1.168349  0  -0.333607  -0.491802  0  2.312812  0
O  O244  1  0.71640641  0.69075267  0.48249207  1  -1.171247  0  -0.33265  -0.491537  0  2.311936  0
O  O245  1  0.88974363  0.80924772  0.01748826  1  -1.170616  0  -0.33405  -0.491951  0  2.313044  0
O  O246  1  0.69899646  0.01751669  0.69077081  1  -1.175757  0  -0.332962  -0.491469  0  2.312884  0
O  O247  1  0.40721050  0.48248847  0.80931022  1  -1.168351  0  -0.333703  -0.491917  0  2.312698  0
O  O248  1  0.31147611  0.43075436  0.53492233  1  -1.152734  0  -0.312344  -0.522482  0  2.199615  0
O  O249  1  0.27711708  0.06928621  0.96502766  1  -1.166862  0  -0.313199  -0.523728  0  2.198324  0
O  O250  1  0.34636208  0.96502472  0.43073298  1  -1.169445  0  -0.311398  -0.521532  0  2.198436  0
O  O251  1  0.74218550  0.53496971  0.06922247  1  -1.167177  0  -0.312478  -0.522218  0  2.199445  0
O  O252  1  0.68852408  0.56924536  0.46507755  1  -1.152725  0  -0.312431  -0.522594  0  2.199522  0
O  O253  1  0.72288620  0.93071351  0.03497055  1  -1.166923  0  -0.313086  -0.523606  0  2.198477  0
O  O254  1  0.65363811  0.03497500  0.56926691  1  -1.169442  0  -0.31139  -0.521467  0  2.198487  0
O  O255  1  0.25781485  0.46503001  0.93077655  1  -1.167212  0  -0.312493  -0.522214  0  2.199414  0
O  O256  1  0.37845272  0.17497561  0.46978669  1  -1.146253  0  -0.299437  -0.502409  0  2.223362  0
O  O257  1  0.02307141  0.32495994  0.03031402  1  -1.147384  0  -0.298715  -0.501134  0  2.223895  0
O  O258  1  0.34803319  0.03026954  0.17497906  1  -1.152406  0  -0.299689  -0.501617  0  2.222786  0
O  O259  1  0.55335240  0.46979331  0.32497366  1  -1.155885  0  -0.29848  -0.500383  0  2.223355  0
O  O260  1  0.62154707  0.82502475  0.53021118  1  -1.14624  0  -0.299366  -0.502246  0  2.223416  0
O  O261  1  0.97693065  0.67503914  0.96968503  1  -1.147454  0  -0.298718  -0.501131  0  2.223767  0
O  O262  1  0.65196628  0.96973082  0.82502053  1  -1.152367  0  -0.29966  -0.501569  0  2.222823  0
O  O263  1  0.44664578  0.53020768  0.67502621  1  -1.155877  0  -0.298451  -0.500363  0  2.223376  0
O  O264  1  0.44524006  0.45501175  0.51691676  1  -1.164677  0  -0.322194  -0.523243  0  2.385204  0
O  O265  1  0.41714848  0.04506449  0.98301161  1  -1.167733  0  -0.321846  -0.523452  0  2.38132  0
O  O266  1  0.46213240  0.98303376  0.45499726  1  -1.166868  0  -0.321864  -0.522763  0  2.380754  0
O  O267  1  0.90019902  0.51697408  0.04500302  1  -1.16898  0  -0.321089  -0.521155  0  2.380937  0
O  O268  1  0.55476070  0.54498797  0.48308256  1  -1.164652  0  -0.322186  -0.523261  0  2.385109  0
O  O269  1  0.58285391  0.95493586  0.01698716  1  -1.167658  0  -0.321844  -0.523401  0  2.381277  0
O  O270  1  0.53786812  0.01696532  0.54500263  1  -1.166917  0  -0.32182  -0.522689  0  2.380838  0
O  O271  1  0.09980134  0.48302564  0.95499600  1  -1.16893  0  -0.321142  -0.521218  0  2.38088  0
