# generated using pymatgen
data_TlH13C13(NO2)2
_symmetry_space_group_name_H-M   'P 1'
_cell_length_a   6.04031558
_cell_length_b   7.87289858
_cell_length_c   14.27809677
_cell_angle_alpha   101.60173364
_cell_angle_beta   100.42242096
_cell_angle_gamma   98.33355963
_symmetry_Int_Tables_number   1
_chemical_formula_structural   TlH13C13(NO2)2
_chemical_formula_sum   'Tl2 H26 C26 N4 O8'
_cell_volume   642.45598618
_cell_formula_units_Z   2
loop_
 _symmetry_equiv_pos_site_id
 _symmetry_equiv_pos_as_xyz
  1  'x, y, z'
loop_
 _atom_site_type_symbol
 _atom_site_label
 _atom_site_symmetry_multiplicity
 _atom_site_fract_x
 _atom_site_fract_y
 _atom_site_fract_z
 _atom_site_occupancy
 _atom_site_pbe_bader_spin_density
 _atom_site_pbe_cm5_charge
 _atom_site_pbe_ddec_charge
 _atom_site_pbe_ddec_spin_density
 _atom_site_pbe_ddec_sum_bond_order
 _atom_site_pbe_magmom
Tl  Tl0  1  0.93745585  0.68836632  0.90829487  1  0  0.390595  0.675811  0  1.156939  0
Tl  Tl1  1  0.06254058  0.31163114  0.09170392  1  0  0.390601  0.675808  0  1.15691  0
H  H2  1  0.05805257  0.08038319  0.85593210  1  0  0.309306  0.284359  0  0.98792  0
H  H3  1  0.94195237  0.91961436  0.14407292  1  0  0.309338  0.284416  0  0.987876  0
H  H4  1  0.70564693  0.86705154  0.75507611  1  0  0.302118  0.266205  0  1.02216  0
H  H5  1  0.29435852  0.13294857  0.24492222  1  0  0.302114  0.266175  0  1.022203  0
H  H6  1  0.49019982  0.30765420  0.78605618  1  0  0.096461  0.115156  0  1.044309  0
H  H7  1  0.50979736  0.69233932  0.21394363  1  0  0.096444  0.115143  0  1.044346  0
H  H8  1  0.66056152  0.37579495  0.90608372  1  0  0.102999  0.118338  0  1.036849  0
H  H9  1  0.33944015  0.62421043  0.09391491  1  0  0.102997  0.118328  0  1.036835  0
H  H10  1  0.42410591  0.15137111  0.96159786  1  0  0.125591  0.096084  0  0.964947  0
H  H11  1  0.57590664  0.84863036  0.03840325  1  0  0.12565  0.096198  0  0.964859  0
H  H12  1  0.30592876  0.70381993  0.69698696  1  0  0.121885  0.089641  0  0.967055  0
H  H13  1  0.69407669  0.29618018  0.30301138  1  0  0.121906  0.089652  0  0.96706  0
H  H14  1  0.46877778  0.80995213  0.57398133  1  0  0.099509  0.11235  0  1.002143  0
H  H15  1  0.53121589  0.19004795  0.42601613  1  0  0.099507  0.112325  0  1.002131  0
H  H16  1  0.18186925  0.84123580  0.56025924  1  0  0.097388  0.104317  0  1.011592  0
H  H17  1  0.81812645  0.15876563  0.43974062  1  0  0.097372  0.104313  0  1.011601  0
H  H18  1  0.09992084  0.13395125  0.56029792  1  0  0.096174  0.094558  0  1.039174  0
H  H19  1  0.90008215  0.86605278  0.43969786  1  0  0.09618  0.094558  0  1.039141  0
H  H20  1  0.23859871  0.44821176  0.56482570  1  0  0.099236  0.095064  0  1.006067  0
H  H21  1  0.76140100  0.55178566  0.43516912  1  0  0.099255  0.095083  0  1.006017  0
H  H22  1  0.65798077  0.57896054  0.62333457  1  0  0.098196  0.104214  0  1.040619  0
H  H23  1  0.34201154  0.42104087  0.37666363  1  0  0.098179  0.104193  0  1.040686  0
H  H24  1  0.93128107  0.39025947  0.67248806  1  0  0.100349  0.096838  0  1.01249  0
H  H25  1  0.06871391  0.60974592  0.32751287  1  0  0.10032  0.096832  0  1.012484  0
H  H26  1  0.79338036  0.07192313  0.65946666  1  0  0.098128  0.105115  0  1.041049  0
H  H27  1  0.20662269  0.92808094  0.34053263  1  0  0.098136  0.105138  0  1.041044  0
C  C28  1  0.32943186  0.44991192  0.88996731  1  0  0.194463  0.632479  0  4.188891  0
C  C29  1  0.67056060  0.55007626  0.11002667  1  0  0.194558  0.632556  0  4.188809  0
C  C30  1  0.48548089  0.31922387  0.86362410  1  0  -0.165694  -0.352585  0  3.86749  0
C  C31  1  0.51452199  0.68077232  0.13637713  1  0  -0.16571  -0.352565  0  3.867547  0
C  C32  1  0.42154436  0.13504361  0.88301376  1  0  0.026728  0.067003  0  3.848232  0
C  C33  1  0.57847266  0.86495526  0.11699019  1  0  0.026676  0.06685  0  3.848381  0
C  C34  1  0.14859291  0.91201051  0.74743457  1  0  0.245343  0.459937  0  4.125404  0
C  C35  1  0.85140420  0.08798963  0.25256735  1  0  0.24542  0.459938  0  4.125128  0
C  C36  1  0.34596121  0.84851340  0.70787078  1  0  0.027052  0.04977  0  3.856749  0
C  C37  1  0.65403516  0.15149069  0.29213152  1  0  0.02701  0.049738  0  3.856665  0
C  C38  1  0.60764159  0.03385147  0.86009867  1  0  0.253764  0.48127  0  4.079041  0
C  C39  1  0.39238223  0.96614746  0.13990929  1  0  0.253947  0.481372  0  4.07872  0
C  C40  1  0.35458371  0.88947476  0.60655784  1  0  -0.154421  -0.24714  0  3.903948  0
C  C41  1  0.64541001  0.11052535  0.39344243  1  0  -0.154418  -0.247091  0  3.903929  0
C  C42  1  0.43670551  0.08118968  0.61037537  1  0  -0.015204  0.117695  0  3.960449  0
C  C43  1  0.56329220  0.91881307  0.38962478  1  0  -0.015218  0.117642  0  3.960518  0
C  C44  1  0.28265659  0.18971680  0.58450328  1  0  -0.094294  -0.14311  0  3.963972  0
C  C45  1  0.71734072  0.81029124  0.41549811  1  0  -0.094297  -0.143132  0  3.963836  0
C  C46  1  0.36069585  0.36743518  0.58809293  1  0  -0.095595  -0.08511  0  4.035908  0
C  C47  1  0.63929582  0.63256358  0.41190494  1  0  -0.095615  -0.085129  0  4.035802  0
C  C48  1  0.59391817  0.44078223  0.62015432  1  0  -0.096982  -0.108044  0  4.0219  0
C  C49  1  0.40607440  0.55922046  0.37984124  1  0  -0.096865  -0.107919  0  4.022071  0
C  C50  1  0.74880729  0.33418647  0.64702340  1  0  -0.092553  -0.085827  0  4.024589  0
C  C51  1  0.25118398  0.66581758  0.35297571  1  0  -0.092566  -0.085849  0  4.024691  0
C  C52  1  0.67125746  0.15562161  0.64083710  1  0  -0.095196  -0.13843  0  3.947349  0
C  C53  1  0.32873965  0.84437852  0.35916482  1  0  -0.095225  -0.138447  0  3.947474  0
N  N54  1  0.19432451  0.04200286  0.82812572  1  0  -0.400057  -0.356719  0  3.550086  0
N  N55  1  0.80568585  0.95799604  0.17188196  1  0  -0.400097  -0.35669  0  3.550073  0
N  N56  1  0.56429597  0.91114849  0.77647888  1  0  -0.409006  -0.361738  0  3.588527  0
N  N57  1  0.43570873  0.08885556  0.22351843  1  0  -0.40898  -0.3617  0  3.58883  0
O  O58  1  0.15010614  0.39505868  0.91922750  1  0  -0.328289  -0.600543  0  2.194471  0
O  O59  1  0.84989607  0.60493484  0.08077128  1  0  -0.328371  -0.600617  0  2.194446  0
O  O60  1  0.38775504  0.60457785  0.87886249  1  0  -0.336842  -0.609978  0  2.127801  0
O  O61  1  0.61223695  0.39541557  0.12112922  1  0  -0.336811  -0.609936  0  2.127778  0
O  O62  1  0.80243082  0.07299337  0.91669349  1  0  -0.293883  -0.539831  0  2.255897  0
O  O63  1  0.19756727  0.92698965  0.08330945  1  0  -0.294024  -0.539968  0  2.255405  0
O  O64  1  0.94796498  0.83620473  0.70318576  1  0  -0.307285  -0.537154  0  2.220906  0
O  O65  1  0.05204430  0.16379680  0.29682071  1  0  -0.307396  -0.537209  0  2.220656  0
