# generated using pymatgen
data_CdH10C11N2O5
_symmetry_space_group_name_H-M   'P 1'
_cell_length_a   6.62024999
_cell_length_b   10.13941807
_cell_length_c   17.85857399
_cell_angle_alpha   89.99998192
_cell_angle_beta   90.00001445
_cell_angle_gamma   90.00002408
_symmetry_Int_Tables_number   1
_chemical_formula_structural   CdH10C11N2O5
_chemical_formula_sum   'Cd4 H40 C44 N8 O20'
_cell_volume   1198.76539302
_cell_formula_units_Z   4
loop_
 _symmetry_equiv_pos_site_id
 _symmetry_equiv_pos_as_xyz
  1  'x, y, z'
loop_
 _atom_site_type_symbol
 _atom_site_label
 _atom_site_symmetry_multiplicity
 _atom_site_fract_x
 _atom_site_fract_y
 _atom_site_fract_z
 _atom_site_occupancy
 _atom_site_hle17_bader_spin_density
 _atom_site_hle17_ddec_charge
 _atom_site_hle17_ddec_spin_density
 _atom_site_hle17_ddec_sum_bond_order
 _atom_site_hle17_magmom
 _atom_site_hse06_10hf_bader_spin_density
 _atom_site_hse06_10hf_ddec_charge
 _atom_site_hse06_10hf_ddec_spin_density
 _atom_site_hse06_10hf_ddec_sum_bond_order
 _atom_site_hse06_10hf_magmom
 _atom_site_hse06_bader_spin_density
 _atom_site_hse06_ddec_charge
 _atom_site_hse06_ddec_spin_density
 _atom_site_hse06_ddec_sum_bond_order
 _atom_site_hse06_magmom
 _atom_site_pbe_bader_spin_density
 _atom_site_pbe_cm5_charge
 _atom_site_pbe_ddec_charge
 _atom_site_pbe_ddec_spin_density
 _atom_site_pbe_ddec_sum_bond_order
 _atom_site_pbe_magmom
Cd  Cd0  1  0.99955332  0.27342384  0.97103724  1  0  1.258519  0  1.639583  0  0  1.090173  0  2.08536  0  0  1.148841  0  2.024236  0  0  0.784493  1.04771  0  2.128019  0
Cd  Cd1  1  0.50044525  0.72657615  0.47103757  1  0  1.258503  0  1.639593  0  0  1.090143  0  2.085378  0  0  1.148811  0  2.024251  0  0  0.784468  1.047678  0  2.128035  0
Cd  Cd2  1  0.00044604  0.77342491  0.52896322  1  0  1.258504  0  1.639584  0  0  1.090152  0  2.085365  0  0  1.148821  0  2.024239  0  0  0.784483  1.047689  0  2.128021  0
Cd  Cd3  1  0.49955524  0.22657421  0.02896312  1  0  1.258491  0  1.6396  0  0  1.090137  0  2.085378  0  0  1.148806  0  2.024255  0  0  0.784467  1.047674  0  2.128038  0
H  H4  1  0.35592061  0.52640770  0.99128012  1  0  0.317556  0  0.925284  0  0  0.297138  0  0.990765  0  0  0.305245  0  0.984303  0  0  0.305236  0.291463  0  0.995293  0
H  H5  1  0.14407947  0.47359314  0.49127995  1  0  0.317551  0  0.925276  0  0  0.297134  0  0.990757  0  0  0.30524  0  0.984296  0  0  0.305235  0.291459  0  0.995284  0
H  H6  1  0.64407858  0.02640777  0.50871982  1  0  0.317554  0  0.925275  0  0  0.297136  0  0.990759  0  0  0.305242  0  0.984297  0  0  0.305238  0.291459  0  0.995287  0
H  H7  1  0.85591966  0.97359149  0.00872013  1  0  0.317469  0  0.925411  0  0  0.297078  0  0.990837  0  0  0.305185  0  0.984376  0  0  0.305228  0.291402  0  0.995367  0
H  H8  1  0.90766561  0.54281209  0.89216249  1  0  0.32745  0  0.919026  0  0  0.309443  0  0.980071  0  0  0.318206  0  0.972102  0  0  0.310105  0.303213  0  0.985793  0
H  H9  1  0.59233743  0.45718893  0.39216176  1  0  0.32742  0  0.919066  0  0  0.309417  0  0.980108  0  0  0.318179  0  0.972141  0  0  0.310097  0.303188  0  0.985828  0
H  H10  1  0.09233511  0.04281098  0.60783745  1  0  0.327457  0  0.919035  0  0  0.309447  0  0.980079  0  0  0.318208  0  0.97211  0  0  0.310102  0.303217  0  0.985801  0
H  H11  1  0.40766320  0.95718711  0.10783833  1  0  0.327441  0  0.919046  0  0  0.309427  0  0.9801  0  0  0.31819  0  0.972129  0  0  0.310105  0.303197  0  0.98582  0
H  H12  1  0.13644845  0.51763997  0.74615192  1  0  0.10726  0  0.953034  0  0  0.113393  0  1.02101  0  0  0.117825  0  1.016896  0  0  0.104944  0.110083  0  1.024217  0
H  H13  1  0.36355298  0.48236001  0.24615121  1  0  0.107268  0  0.953093  0  0  0.1134  0  1.021066  0  0  0.117833  0  1.016952  0  0  0.104946  0.11009  0  1.024272  0
H  H14  1  0.86354923  0.01764195  0.75384690  1  0  0.107287  0  0.95302  0  0  0.113402  0  1.021013  0  0  0.117833  0  1.016899  0  0  0.104945  0.110094  0  1.024218  0
H  H15  1  0.63645220  0.98235620  0.25384832  1  0  0.107288  0  0.95301  0  0  0.113403  0  1.021006  0  0  0.117835  0  1.016892  0  0  0.104937  0.110093  0  1.024211  0
H  H16  1  0.67636456  0.50969190  0.61238539  1  0  0.110116  0  0.95094  0  0  0.118017  0  1.014809  0  0  0.121362  0  1.012431  0  0  0.105118  0.115595  0  1.016568  0
H  H17  1  0.82363375  0.49030731  0.11238523  1  0  0.110107  0  0.95092  0  0  0.118033  0  1.014766  0  0  0.121379  0  1.012386  0  0  0.105119  0.115609  0  1.016529  0
H  H18  1  0.32363311  0.00969168  0.88761512  1  0  0.110102  0  0.950946  0  0  0.118003  0  1.014817  0  0  0.121349  0  1.012438  0  0  0.105114  0.115581  0  1.016577  0
H  H19  1  0.17636842  0.99030724  0.38761541  1  0  0.110127  0  0.950946  0  0  0.118045  0  1.014796  0  0  0.121392  0  1.012416  0  0  0.105131  0.115621  0  1.01656  0
H  H20  1  0.85492579  0.38648561  0.71465841  1  0  0.094874  0  0.945151  0  0  0.107264  0  0.999244  0  0  0.110417  0  0.998058  0  0  0.102718  0.104891  0  1.000439  0
H  H21  1  0.64507259  0.61351256  0.21465877  1  0  0.094873  0  0.94521  0  0  0.107251  0  0.999313  0  0  0.110402  0  0.998131  0  0  0.102726  0.104878  0  1.000504  0
H  H22  1  0.14507212  0.88648460  0.78534203  1  0  0.09489  0  0.945146  0  0  0.107283  0  0.999232  0  0  0.110435  0  0.998047  0  0  0.10272  0.104909  0  1.000426  0
H  H23  1  0.35492933  0.11351339  0.28534194  1  0  0.094867  0  0.945197  0  0  0.10725  0  0.999301  0  0  0.110401  0  0.998119  0  0  0.102728  0.104877  0  1.000493  0
H  H24  1  0.66725767  0.31813350  0.82781358  1  0  0.105362  0  0.97915  0  0  0.110699  0  1.048719  0  0  0.113844  0  1.046625  0  0  0.102052  0.108281  0  1.050661  0
H  H25  1  0.83274381  0.68186657  0.32781394  1  0  0.105367  0  0.979129  0  0  0.110711  0  1.048692  0  0  0.113856  0  1.046597  0  0  0.10205  0.108292  0  1.050633  0
H  H26  1  0.33274171  0.81813261  0.67218687  1  0  0.10537  0  0.979132  0  0  0.110708  0  1.048686  0  0  0.113853  0  1.046591  0  0  0.102042  0.108289  0  1.050629  0
H  H27  1  0.16725815  0.18186544  0.17218675  1  0  0.105387  0  0.979131  0  0  0.110705  0  1.0487  0  0  0.113851  0  1.046606  0  0  0.102049  0.108288  0  1.050638  0
H  H28  1  0.66023691  0.68882835  0.82273587  1  0  0.066983  0  0.925317  0  0  0.08132  0  0.985748  0  0  0.080886  0  0.988485  0  0  0.10413  0.081766  0  0.983688  0
H  H29  1  0.83976911  0.31117370  0.32273463  1  0  0.066963  0  0.925296  0  0  0.08129  0  0.985723  0  0  0.080852  0  0.988459  0  0  0.104113  0.081736  0  0.983662  0
H  H30  1  0.33976390  0.18882726  0.67726404  1  0  0.066949  0  0.925343  0  0  0.08128  0  0.985771  0  0  0.080846  0  0.988509  0  0  0.104108  0.081725  0  0.983711  0
H  H31  1  0.16023294  0.81117276  0.17726549  1  0  0.066946  0  0.92533  0  0  0.081271  0  0.985763  0  0  0.080836  0  0.988499  0  0  0.1041  0.081716  0  0.983701  0
H  H32  1  0.75757015  0.79067640  0.89553283  1  0  0.062799  0  0.934808  0  0  0.076624  0  0.995621  0  0  0.07692  0  0.996173  0  0  0.100141  0.076213  0  0.995575  0
H  H33  1  0.74243440  0.20932463  0.39553160  1  0  0.062848  0  0.934778  0  0  0.076672  0  0.995574  0  0  0.076968  0  0.996123  0  0  0.100166  0.076261  0  0.995529  0
H  H34  1  0.24243073  0.29067532  0.60446762  1  0  0.062812  0  0.934805  0  0  0.076622  0  0.995618  0  0  0.076923  0  0.996164  0  0  0.100144  0.076211  0  0.995572  0
H  H35  1  0.25756758  0.70932375  0.10446854  1  0  0.062829  0  0.934782  0  0  0.076657  0  0.995578  0  0  0.07695  0  0.996133  0  0  0.100142  0.076244  0  0.995532  0
H  H36  1  0.44753505  0.78102391  0.96110188  1  0  0.067596  0  0.929941  0  0  0.080077  0  0.993387  0  0  0.081177  0  0.99291  0  0  0.09995  0.079066  0  0.99399  0
H  H37  1  0.05246502  0.21897793  0.46110119  1  0  0.067573  0  0.929986  0  0  0.080052  0  0.99346  0  0  0.081164  0  0.992969  0  0  0.09994  0.079042  0  0.994063  0
H  H38  1  0.55246431  0.28102394  0.53889857  1  0  0.067599  0  0.929938  0  0  0.080071  0  0.993406  0  0  0.081181  0  0.992916  0  0  0.099955  0.079062  0  0.994008  0
H  H39  1  0.94753395  0.71897629  0.03889950  1  0  0.067566  0  0.929965  0  0  0.080061  0  0.993439  0  0  0.081169  0  0.992952  0  0  0.099957  0.07905  0  0.994043  0
H  H40  1  0.34219003  0.69240147  0.88411534  1  0  0.064974  0  0.925043  0  0  0.079033  0  0.986321  0  0  0.079492  0  0.987019  0  0  0.102918  0.078686  0  0.985886  0
H  H41  1  0.15781451  0.30760041  0.38411576  1  0  0.064936  0  0.925021  0  0  0.079028  0  0.986296  0  0  0.079473  0  0.987009  0  0  0.102923  0.078681  0  0.985862  0
H  H42  1  0.65781078  0.19240051  0.61588457  1  0  0.064965  0  0.925035  0  0  0.079051  0  0.986298  0  0  0.079494  0  0.987013  0  0  0.102923  0.078704  0  0.985865  0
H  H43  1  0.84218753  0.80759969  0.11588548  1  0  0.064909  0  0.925033  0  0  0.079008  0  0.986316  0  0  0.079453  0  0.987029  0  0  0.102911  0.078661  0  0.985882  0
C  C44  1  0.38928933  0.41351370  0.79471013  1  0  -0.081381  0  3.768905  0  0  -0.053038  0  4.001999  0  0  -0.063543  0  4.025585  0  0  -0.022501  -0.046429  0  3.986195  0
C  C45  1  0.11071061  0.58648823  0.29470881  1  0  -0.081387  0  3.768923  0  0  -0.053024  0  4.001989  0  0  -0.063529  0  4.025574  0  0  -0.022522  -0.046416  0  3.986179  0
C  C46  1  0.61070860  0.91351583  0.70528974  1  0  -0.081443  0  3.769001  0  0  -0.053169  0  4.002176  0  0  -0.063675  0  4.025763  0  0  -0.02254  -0.046559  0  3.986372  0
C  C47  1  0.88928827  0.08648629  0.20528966  1  0  -0.081411  0  3.768988  0  0  -0.053114  0  4.002126  0  0  -0.063617  0  4.025712  0  0  -0.022523  -0.046505  0  3.986319  0
C  C48  1  0.29311623  0.48755740  0.73897051  1  0  -0.075381  0  3.70696  0  0  -0.111573  0  3.953328  0  0  -0.108136  0  3.971353  0  0  -0.07753  -0.11352  0  3.941338  0
C  C49  1  0.20688518  0.51244259  0.23897033  1  0  -0.075412  0  3.706955  0  0  -0.111606  0  3.953332  0  0  -0.108168  0  3.971355  0  0  -0.077537  -0.113553  0  3.94134  0
C  C50  1  0.70688023  0.98756051  0.76102767  1  0  -0.075395  0  3.706995  0  0  -0.11154  0  3.953385  0  0  -0.108101  0  3.971408  0  0  -0.077524  -0.113488  0  3.941396  0
C  C51  1  0.79311969  0.01243961  0.26102760  1  0  -0.075394  0  3.706988  0  0  -0.111561  0  3.953369  0  0  -0.108124  0  3.971393  0  0  -0.077534  -0.113508  0  3.941377  0
C  C52  1  0.39457765  0.51836788  0.67259679  1  0  -0.077161  0  3.766619  0  0  -0.050431  0  4.002276  0  0  -0.060891  0  4.026011  0  0  -0.019572  -0.043638  0  3.986547  0
C  C53  1  0.10542373  0.48163116  0.17259605  1  0  -0.077102  0  3.766562  0  0  -0.050377  0  4.002245  0  0  -0.060836  0  4.025978  0  0  -0.019532  -0.043587  0  3.986515  0
C  C54  1  0.60542003  0.01836974  0.82740316  1  0  -0.077115  0  3.766602  0  0  -0.050398  0  4.002273  0  0  -0.060859  0  4.026009  0  0  -0.019553  -0.043605  0  3.986546  0
C  C55  1  0.89457843  0.98162836  0.32740291  1  0  -0.077126  0  3.766573  0  0  -0.050386  0  4.002228  0  0  -0.060846  0  4.025963  0  0  -0.019565  -0.043595  0  3.986498  0
C  C56  1  0.59801255  0.48256901  0.66375399  1  0  -0.041075  0  3.689875  0  0  -0.068532  0  3.938074  0  0  -0.065019  0  3.955888  0  0  -0.074197  -0.070398  0  3.925692  0
C  C57  1  0.90198882  0.51743017  0.16375383  1  0  -0.041057  0  3.689847  0  0  -0.068536  0  3.938052  0  0  -0.065025  0  3.955865  0  0  -0.074193  -0.070405  0  3.92567  0
C  C58  1  0.40198694  0.98256903  0.83624587  1  0  -0.041046  0  3.689917  0  0  -0.068494  0  3.938124  0  0  -0.064982  0  3.955938  0  0  -0.074182  -0.070361  0  3.925741  0
C  C59  1  0.09801455  0.01742794  0.33624633  1  0  -0.041045  0  3.689887  0  0  -0.068519  0  3.938081  0  0  -0.065008  0  3.955894  0  0  -0.074177  -0.070387  0  3.925699  0
C  C60  1  0.69639856  0.41367255  0.72064152  1  0  -0.085058  0  3.757894  0  0  -0.09318  0  4.009665  0  0  -0.098187  0  4.029715  0  0  -0.089408  -0.089897  0  3.9961  0
C  C61  1  0.80360285  0.58632561  0.22064134  1  0  -0.085083  0  3.757966  0  0  -0.093194  0  4.00976  0  0  -0.0982  0  4.029808  0  0  -0.089433  -0.089911  0  3.996191  0
C  C62  1  0.30360088  0.91367356  0.77935835  1  0  -0.08512  0  3.757921  0  0  -0.093248  0  4.009682  0  0  -0.098256  0  4.029735  0  0  -0.089422  -0.089964  0  3.996115  0
C  C63  1  0.19639905  0.08632443  0.27935881  1  0  -0.085152  0  3.757927  0  0  -0.093279  0  4.009715  0  0  -0.098286  0  4.029765  0  0  -0.089503  -0.089996  0  3.996147  0
C  C64  1  0.59182548  0.37654711  0.78513435  1  0  -0.045225  0  3.69795  0  0  -0.075451  0  3.951003  0  0  -0.072294  0  3.970007  0  0  -0.079331  -0.077399  0  3.938408  0
C  C65  1  0.90817446  0.62345298  0.28513417  1  0  -0.045225  0  3.697945  0  0  -0.075466  0  3.950993  0  0  -0.072307  0  3.969992  0  0  -0.079332  -0.077413  0  3.938393  0
C  C66  1  0.40817243  0.87654720  0.71486553  1  0  -0.045204  0  3.697892  0  0  -0.075399  0  3.950959  0  0  -0.072237  0  3.96995  0  0  -0.079328  -0.077346  0  3.938365  0
C  C67  1  0.09182595  0.12345082  0.21486541  1  0  -0.04517  0  3.697775  0  0  -0.075344  0  3.950818  0  0  -0.072186  0  3.969815  0  0  -0.079265  -0.077293  0  3.938221  0
C  C68  1  0.27255357  0.36937800  0.86196634  1  0  0.652399  0  3.913341  0  0  0.600035  0  4.203593  0  0  0.635513  0  4.197197  0  0  0.200413  0.575926  0  4.207086  0
C  C69  1  0.22744793  0.63062192  0.36196558  1  0  0.652284  0  3.913566  0  0  0.599928  0  4.203803  0  0  0.635405  0  4.197408  0  0  0.200361  0.575818  0  4.207292  0
C  C70  1  0.72744584  0.86937920  0.63803410  1  0  0.652421  0  3.913339  0  0  0.600068  0  4.203598  0  0  0.635546  0  4.197202  0  0  0.200405  0.575958  0  4.207093  0
C  C71  1  0.77255249  0.13061999  0.13803400  1  0  0.652398  0  3.913414  0  0  0.600035  0  4.203674  0  0  0.635512  0  4.197277  0  0  0.200387  0.575926  0  4.207165  0
C  C72  1  0.28346251  0.58411820  0.61006939  1  0  0.65965  0  3.897224  0  0  0.604036  0  4.196457  0  0  0.639827  0  4.187925  0  0  0.208921  0.579442  0  4.202165  0
C  C73  1  0.21653731  0.41588383  0.11006867  1  0  0.659675  0  3.897145  0  0  0.60407  0  4.196369  0  0  0.63986  0  4.187835  0  0  0.208907  0.579478  0  4.202076  0
C  C74  1  0.71653672  0.08411908  0.88993054  1  0  0.659584  0  3.897255  0  0  0.603976  0  4.196501  0  0  0.639768  0  4.187969  0  0  0.2089  0.579384  0  4.20221  0
C  C75  1  0.78346329  0.91588294  0.38993142  1  0  0.65957  0  3.897274  0  0  0.603963  0  4.196492  0  0  0.639753  0  4.187962  0  0  0.208895  0.579371  0  4.202198  0
C  C76  1  0.65616756  0.51066818  0.95746781  1  0  0.739262  0  3.882019  0  0  0.66321  0  4.189713  0  0  0.698798  0  4.185296  0  0  0.336297  0.638933  0  4.191958  0
C  C77  1  0.84383401  0.48933182  0.45746709  1  0  0.73929  0  3.881928  0  0  0.663243  0  4.189612  0  0  0.69883  0  4.185194  0  0  0.336327  0.638966  0  4.191856  0
C  C78  1  0.34383162  0.01066915  0.54253213  1  0  0.73928  0  3.881997  0  0  0.663222  0  4.189701  0  0  0.698807  0  4.185285  0  0  0.336298  0.638945  0  4.191948  0
C  C79  1  0.15616664  0.98933095  0.04253299  1  0  0.739345  0  3.881906  0  0  0.663214  0  4.189704  0  0  0.6988  0  4.185289  0  0  0.336333  0.638936  0  4.191949  0
C  C80  1  0.67613059  0.69877466  0.88380234  1  0  0.04727  0  3.595321  0  0  -0.007521  0  3.855281  0  0  -0.003927  0  3.86782  0  0  -0.050619  -0.009926  0  3.846584  0
C  C81  1  0.82387244  0.30122735  0.38380165  1  0  0.047143  0  3.595293  0  0  -0.007587  0  3.855218  0  0  -0.003983  0  3.867743  0  0  -0.050651  -0.009995  0  3.846523  0
C  C82  1  0.32386871  0.19877361  0.61619701  1  0  0.047275  0  3.595311  0  0  -0.007469  0  3.85522  0  0  -0.003879  0  3.86776  0  0  -0.050597  -0.009869  0  3.846522  0
C  C83  1  0.17612809  0.80122546  0.11619846  1  0  0.047179  0  3.595246  0  0  -0.007557  0  3.855192  0  0  -0.00396  0  3.86773  0  0  -0.050618  -0.009958  0  3.84649  0
C  C84  1  0.46789677  0.69517185  0.92421205  1  0  0.050031  0  3.582049  0  0  -0.005833  0  3.843087  0  0  -0.002172  0  3.854679  0  0  -0.0513  -0.008169  0  3.835169  0
C  C85  1  0.03210628  0.30482902  0.42421134  1  0  0.050173  0  3.582014  0  0  -0.005775  0  3.843128  0  0  -0.002114  0  3.854715  0  0  -0.051283  -0.00811  0  3.835212  0
C  C86  1  0.53210404  0.19517186  0.57578786  1  0  0.050081  0  3.581971  0  0  -0.005826  0  3.843035  0  0  -0.00216  0  3.854625  0  0  -0.051287  -0.008164  0  3.83512  0
C  C87  1  0.96789425  0.80482737  0.07578934  1  0  0.050267  0  3.581884  0  0  -0.005728  0  3.843062  0  0  -0.002061  0  3.854649  0  0  -0.051269  -0.008069  0  3.835147  0
N  N88  1  0.47811087  0.57280289  0.96735492  1  0  -0.487933  0  3.224017  0  0  -0.42473  0  3.47086  0  0  -0.445724  0  3.476089  0  0  -0.431925  -0.410293  0  3.466908  0
N  N89  1  0.02188920  0.42719796  0.46735419  1  0  -0.487935  0  3.223919  0  0  -0.424719  0  3.47079  0  0  -0.445712  0  3.476017  0  0  -0.431924  -0.410284  0  3.466841  0
N  N90  1  0.52188836  0.07280292  0.53264501  1  0  -0.487913  0  3.223993  0  0  -0.424702  0  3.470846  0  0  -0.445695  0  3.476076  0  0  -0.431909  -0.410261  0  3.466894  0
N  N91  1  0.97811141  0.92719633  0.03264591  1  0  -0.487955  0  3.224039  0  0  -0.424698  0  3.470941  0  0  -0.445691  0  3.476167  0  0  -0.431925  -0.410258  0  3.46699  0
N  N92  1  0.78194983  0.58536086  0.91558820  1  0  -0.494445  0  3.213343  0  0  -0.435036  0  3.464658  0  0  -0.455465  0  3.467907  0  0  -0.434102  -0.420772  0  3.462053  0
N  N93  1  0.71805322  0.41464114  0.41558693  1  0  -0.494388  0  3.213345  0  0  -0.434997  0  3.464645  0  0  -0.455428  0  3.467892  0  0  -0.434096  -0.420732  0  3.462038  0
N  N94  1  0.21805091  0.08535980  0.58441173  1  0  -0.494504  0  3.213425  0  0  -0.435095  0  3.464726  0  0  -0.455523  0  3.467978  0  0  -0.434132  -0.420832  0  3.462122  0
N  N95  1  0.28194738  0.91463929  0.08441261  1  0  -0.494445  0  3.213358  0  0  -0.435006  0  3.46468  0  0  -0.455434  0  3.467928  0  0  -0.434108  -0.420741  0  3.462072  0
O  O96  1  0.09681551  0.41854253  0.87270627  1  0  -0.653387  0  2.008063  0  0  -0.588697  0  2.24812  0  0  -0.617645  0  2.23785  0  0  -0.32667  -0.568248  0  2.254366  0
O  O97  1  0.40318449  0.58145837  0.37270498  1  0  -0.653352  0  2.008173  0  0  -0.588669  0  2.248241  0  0  -0.617621  0  2.237982  0  0  -0.326634  -0.568221  0  2.254485  0
O  O98  1  0.90318242  0.91854280  0.62729417  1  0  -0.653398  0  2.008058  0  0  -0.588711  0  2.248133  0  0  -0.617661  0  2.237868  0  0  -0.326678  -0.568264  0  2.254381  0
O  O99  1  0.59681590  0.08145640  0.12729518  1  0  -0.653419  0  2.008128  0  0  -0.588698  0  2.248164  0  0  -0.617648  0  2.237903  0  0  -0.326646  -0.568249  0  2.254409  0
O  O100  1  0.34726826  0.28101987  0.90448766  1  0  -0.678494  0  2.049729  0  0  -0.613716  0  2.309179  0  0  -0.645031  0  2.30069  0  0  -0.329626  -0.591596  0  2.314388  0
O  O101  1  0.15273328  0.71898003  0.40448633  1  0  -0.678412  0  2.049768  0  0  -0.613651  0  2.309233  0  0  -0.644967  0  2.300746  0  0  -0.329602  -0.591532  0  2.314439  0
O  O102  1  0.65273110  0.78102108  0.59551279  1  0  -0.678464  0  2.049672  0  0  -0.613687  0  2.309131  0  0  -0.645003  0  2.300643  0  0  -0.32959  -0.591566  0  2.31434  0
O  O103  1  0.84726871  0.21898011  0.09551380  1  0  -0.678481  0  2.049722  0  0  -0.613716  0  2.309182  0  0  -0.645031  0  2.300693  0  0  -0.329614  -0.591597  0  2.31439  0
O  O104  1  0.12856808  0.65283415  0.62591722  1  0  -0.621283  0  1.991618  0  0  -0.555153  0  2.234702  0  0  -0.584728  0  2.223836  0  0  -0.315537  -0.534519  0  2.241877  0
O  O105  1  0.37143024  0.34716688  0.12591653  1  0  -0.621283  0  1.991544  0  0  -0.555143  0  2.234615  0  0  -0.584718  0  2.22375  0  0  -0.315512  -0.534509  0  2.24179  0
O  O106  1  0.87143270  0.15283311  0.87408269  1  0  -0.621251  0  1.991624  0  0  -0.555113  0  2.234699  0  0  -0.584687  0  2.223833  0  0  -0.315525  -0.53448  0  2.241876  0
O  O107  1  0.62856730  0.84716694  0.37408413  1  0  -0.621238  0  1.991618  0  0  -0.55511  0  2.234703  0  0  -0.584685  0  2.223837  0  0  -0.315511  -0.534477  0  2.241877  0
O  O108  1  0.34654620  0.56398493  0.54301757  1  0  -0.69302  0  2.058346  0  0  -0.627188  0  2.315712  0  0  -0.654654  0  2.301918  0  0  -0.339015  -0.607799  0  2.32491  0
O  O109  1  0.15345358  0.43601418  0.04301684  1  0  -0.69305  0  2.058312  0  0  -0.627262  0  2.315736  0  0  -0.654728  0  2.301941  0  0  -0.339056  -0.607873  0  2.324933  0
O  O110  1  0.65345302  0.06398574  0.95698237  1  0  -0.692938  0  2.058276  0  0  -0.627161  0  2.315697  0  0  -0.654626  0  2.301903  0  0  -0.339014  -0.607771  0  2.324898  0
O  O111  1  0.84654553  0.93601327  0.45698269  1  0  -0.692979  0  2.058307  0  0  -0.627192  0  2.315744  0  0  -0.654658  0  2.301951  0  0  -0.339028  -0.607801  0  2.324935  0
O  O112  1  0.70182442  0.39873178  0.98517832  1  0  -0.698271  0  2.141165  0  0  -0.620361  0  2.425506  0  0  -0.650913  0  2.409541  0  0  -0.326077  -0.598636  0  2.435798  0
O  O113  1  0.79817566  0.60126920  0.48517758  1  0  -0.698289  0  2.141093  0  0  -0.620385  0  2.425438  0  0  -0.650936  0  2.409471  0  0  -0.326088  -0.598667  0  2.435748  0
O  O114  1  0.29817501  0.89873096  0.51482211  1  0  -0.698292  0  2.141142  0  0  -0.620379  0  2.42549  0  0  -0.650927  0  2.40952  0  0  -0.326079  -0.598656  0  2.43579  0
O  O115  1  0.20182474  0.10126816  0.01482257  1  0  -0.698293  0  2.141085  0  0  -0.620381  0  2.425482  0  0  -0.650934  0  2.409519  0  0  -0.326106  -0.598662  0  2.435788  0
