# generated using pymatgen
data_CuH12(CO)6
_symmetry_space_group_name_H-M   'P 1'
_cell_length_a   3.75629641
_cell_length_b   4.91421770
_cell_length_c   11.22676563
_cell_angle_alpha   88.37899416
_cell_angle_beta   90.25191021
_cell_angle_gamma   82.54294053
_symmetry_Int_Tables_number   1
_chemical_formula_structural   CuH12(CO)6
_chemical_formula_sum   'Cu1 H12 C6 O6'
_cell_volume   205.39599583
_cell_formula_units_Z   1
loop_
 _symmetry_equiv_pos_site_id
 _symmetry_equiv_pos_as_xyz
  1  'x, y, z'
loop_
 _atom_site_type_symbol
 _atom_site_label
 _atom_site_symmetry_multiplicity
 _atom_site_fract_x
 _atom_site_fract_y
 _atom_site_fract_z
 _atom_site_occupancy
 _atom_site_hle17_ddec_charge
 _atom_site_hle17_ddec_spin_density
 _atom_site_hle17_ddec_sum_bond_order
 _atom_site_hle17_magmom
 _atom_site_hse06_10hf_ddec_charge
 _atom_site_hse06_10hf_ddec_spin_density
 _atom_site_hse06_10hf_ddec_sum_bond_order
 _atom_site_hse06_10hf_magmom
 _atom_site_hse06_ddec_charge
 _atom_site_hse06_ddec_spin_density
 _atom_site_hse06_ddec_sum_bond_order
 _atom_site_hse06_magmom
 _atom_site_pbe_cm5_charge
 _atom_site_pbe_ddec_charge
 _atom_site_pbe_ddec_spin_density
 _atom_site_pbe_ddec_sum_bond_order
 _atom_site_pbe_magmom
Cu  Cu0  1  0.49999966  0.99999295  0.49999827  1  1.063479  0.705942  1.578907  0.542  1.066238  0.801287  1.94983  0.666  1.147249  0.858584  1.892942  0.747  0.710806  1.004455  0.759774  2.003015  0.612
H  H1  1  0.40410881  0.35906608  0.80493404  1  0.116514  -0.000784  0.951911  -0.001  0.129795  -0.000328  1.013746  0.0  0.132199  -0.000267  1.012927  0.0  0.103297  0.127976  -0.000351  1.014553  0.0
H  H2  1  0.59588886  0.64094700  0.19507110  1  0.116511  -0.000781  0.951951  -0.001  0.129781  -0.000328  1.013735  0.0  0.132186  -0.000266  1.012915  0.0  0.10331  0.127966  -0.000352  1.014537  0.0
H  H3  1  0.82049486  0.47660415  0.81854726  1  0.107207  -0.000576  0.945831  0.0  0.125464  -9.6e-05  1.001484  0.0  0.126813  -6e-05  1.002297  0.0  0.103121  0.12439  -0.000113  1.001153  0.0
H  H4  1  0.17950652  0.52340039  0.18145454  1  0.107234  -0.000569  0.945817  0.0  0.12548  -9.6e-05  1.001431  0.0  0.126831  -6e-05  1.002243  0.0  0.103117  0.124403  -0.000114  1.001101  0.0
H  H5  1  0.58078890  0.79578310  0.97905478  1  0.064786  -0.000267  0.949599  0.0  0.083388  -9.5e-05  1.011164  0.0  0.084039  -6.5e-05  1.011378  0.0  0.09063  0.082852  -0.000111  1.011092  0.0
H  H6  1  0.41921748  0.20422588  0.02095131  1  0.064645  -0.000271  0.949728  0.0  0.083348  -9.5e-05  1.011182  0.0  0.084005  -6.5e-05  1.011396  0.0  0.090576  0.082807  -0.000111  1.011115  0.0
H  H7  1  0.15570754  0.69026272  0.96402788  1  0.067726  -0.000265  0.955091  0.0  0.087014  -9.1e-05  1.016913  0.0  0.087556  -6.4e-05  1.017594  0.0  0.091781  0.086567  -0.000105  1.016457  0.0
H  H8  1  0.84429884  0.30974626  0.03597821  1  0.067714  -0.000262  0.955005  0.0  0.086951  -9.1e-05  1.016911  0.0  0.087497  -6.4e-05  1.017601  0.0  0.091731  0.086503  -0.000105  1.016455  0.0
H  H9  1  0.25774571  0.59145121  0.40167149  1  0.433101  -8e-06  0.866843  -0.001  0.408659  0.000701  0.920377  0.001  0.421946  0.000409  0.90154  0.0  0.293927  0.399076  0.000942  0.933893  0.001
H  H10  1  0.74224908  0.40854290  0.59832801  1  0.432998  -1e-05  0.866953  -0.001  0.40852  0.000702  0.920565  0.001  0.421812  0.000408  0.901722  0.0  0.293876  0.398935  0.000943  0.934084  0.001
H  H11  1  0.03574412  0.87887683  0.34675308  1  0.414183  -0.000709  0.903458  -0.001  0.380038  8.3e-05  0.975497  0.0  0.393102  -8.5e-05  0.95674  0.0  0.286611  0.370811  0.000234  0.988662  0.001
H  H12  1  0.96426014  0.12110924  0.65324926  1  0.414149  -0.000712  0.903503  -0.001  0.380017  8.3e-05  0.975521  0.0  0.393078  -8.5e-05  0.956772  0.0  0.2866  0.370789  0.000234  0.988686  0.001
C  C13  1  0.41335430  0.76210388  0.73487175  1  0.719897  -0.004778  3.774826  -0.005  0.668956  -0.00046  4.086564  -0.001  0.706208  -0.001056  4.078287  -0.001  0.222901  0.643558  0.000217  4.090852  -0.001
C  C14  1  0.58665832  0.23789149  0.26512043  1  0.719697  -0.004729  3.77528  -0.005  0.668822  -0.00046  4.086874  -0.001  0.706085  -0.001055  4.078576  -0.001  0.222891  0.643414  0.000217  4.091154  -0.001
C  C15  1  0.53130467  0.54080367  0.82828534  1  -0.279774  0.009826  3.676121  0.011  -0.318019  0.00529  3.926627  0.006  -0.32592  0.003353  3.936412  0.004  -0.168259  -0.312562  0.006964  3.920065  0.008
C  C16  1  0.46869256  0.45921130  0.17171796  1  -0.279927  0.009817  3.67619  0.011  -0.318115  0.005291  3.926567  0.006  -0.326016  0.003354  3.936364  0.004  -0.168363  -0.312664  0.006966  3.919999  0.008
C  C17  1  0.44393510  0.61945767  0.95607413  1  -0.082651  0.003536  3.691927  0.004  -0.128012  0.00193  3.957782  0.002  -0.128221  0.001153  3.971731  0.001  -0.167408  -0.127644  0.002645  3.947948  0.003
C  C18  1  0.55606649  0.38056341  0.04392895  1  -0.082265  0.003536  3.691796  0.004  -0.127679  0.00193  3.957598  0.002  -0.127922  0.001153  3.971581  0.001  -0.167232  -0.127308  0.002645  3.947759  0.003
O  O19  1  0.55373839  0.71967370  0.62991897  1  -0.645164  0.077737  2.090776  0.112  -0.600745  0.048932  2.361823  0.077  -0.644516  0.036083  2.351427  0.061  -0.328622  -0.5698  0.057287  2.36828  0.085
O  O20  1  0.44625047  0.28030345  0.37007396  1  -0.645096  0.077762  2.090693  0.112  -0.600756  0.048942  2.361719  0.077  -0.644533  0.03609  2.351321  0.061  -0.328635  -0.569808  0.057306  2.368169  0.085
O  O21  1  0.19148032  0.96634701  0.75892967  1  -0.597478  0.003079  1.980223  0.006  -0.540089  0.000945  2.202815  0.003  -0.565884  -0.000316  2.192933  0.001  -0.298272  -0.521955  0.002399  2.208845  0.004
O  O22  1  0.80852597  0.03367080  0.24106010  1  -0.597391  0.00305  1.980526  0.006  -0.539983  0.000944  2.202998  0.003  -0.565787  -0.000317  2.193128  0.001  -0.298242  -0.521855  0.002395  2.209017  0.004
O  O23  1  0.15822011  0.78517043  0.42113350  1  -0.850089  0.060208  1.98999  0.087  -0.829594  0.042537  2.233651  0.066  -0.860958  0.031618  2.190041  0.054  -0.585083  -0.805512  0.050095  2.264064  0.073
O  O24  1  0.84177408  0.21480911  0.57886377  1  -0.850003  0.060228  1.989974  0.087  -0.82948  0.042542  2.233615  0.066  -0.860849  0.031622  2.190004  0.054  -0.585057  -0.805395  0.0501  2.264029  0.073
