# generated using pymatgen
data_CdMo4H26C18N4O15
_symmetry_space_group_name_H-M   'P 1'
_cell_length_a   11.83551034
_cell_length_b   13.30622515
_cell_length_c   13.29944782
_cell_angle_alpha   75.79253192
_cell_angle_beta   65.03691881
_cell_angle_gamma   67.09609885
_symmetry_Int_Tables_number   1
_chemical_formula_structural   CdMo4H26C18N4O15
_chemical_formula_sum   'Cd2 Mo8 H52 C36 N8 O30'
_cell_volume   1740.82134225
_cell_formula_units_Z   2
loop_
 _symmetry_equiv_pos_site_id
 _symmetry_equiv_pos_as_xyz
  1  'x, y, z'
loop_
 _atom_site_type_symbol
 _atom_site_label
 _atom_site_symmetry_multiplicity
 _atom_site_fract_x
 _atom_site_fract_y
 _atom_site_fract_z
 _atom_site_occupancy
 _atom_site_hle17_bader_spin_density
 _atom_site_hle17_ddec_charge
 _atom_site_hle17_ddec_spin_density
 _atom_site_hle17_ddec_sum_bond_order
 _atom_site_hle17_magmom
 _atom_site_hse06_10hf_bader_spin_density
 _atom_site_hse06_10hf_ddec_charge
 _atom_site_hse06_10hf_ddec_spin_density
 _atom_site_hse06_10hf_ddec_sum_bond_order
 _atom_site_hse06_10hf_magmom
 _atom_site_hse06_bader_spin_density
 _atom_site_hse06_ddec_charge
 _atom_site_hse06_ddec_spin_density
 _atom_site_hse06_ddec_sum_bond_order
 _atom_site_hse06_magmom
 _atom_site_pbe_bader_spin_density
 _atom_site_pbe_cm5_charge
 _atom_site_pbe_ddec_charge
 _atom_site_pbe_ddec_spin_density
 _atom_site_pbe_ddec_sum_bond_order
 _atom_site_pbe_magmom
Cd  Cd0  1  0.49999859  0.00000197  0.49999873  1  0  1.228144  0  1.756501  0  0  1.069305  0  2.220208  0  0  1.120304  0  2.165839  0  0  0.808129  1.033057  0  2.25711  0
Cd  Cd1  1  0.49999917  0.50000056  0.00000082  1  0  1.105239  0  1.755289  0  0  0.915513  0  2.206803  0  0  0.967404  0  2.159883  0  0  0.794911  0.878728  0  2.238911  0
Mo  Mo2  1  0.12389300  0.10257093  0.62014037  1  0  2.232507  0  4.07016  0  0  2.237021  0  4.605084  0  0  2.335819  0  4.570902  0  0  1.517178  2.16397  0  4.636396  0
Mo  Mo3  1  0.87610521  0.89742881  0.37986107  1  0  2.232546  0  4.070151  0  0  2.237061  0  4.605082  0  0  2.335864  0  4.570897  0  0  1.517196  2.16402  0  4.636385  0
Mo  Mo4  1  0.27301554  0.06926263  0.34137903  1  0  2.233728  0  4.066182  0  0  2.236381  0  4.605258  0  0  2.335198  0  4.570565  0  0  1.517391  2.162587  0  4.637981  0
Mo  Mo5  1  0.72698672  0.93073627  0.65861733  1  0  2.23372  0  4.06622  0  0  2.236384  0  4.605285  0  0  2.335204  0  4.570589  0  0  1.517397  2.162598  0  4.637996  0
Mo  Mo6  1  0.85155936  0.03343376  0.77900988  1  0  2.194037  0  4.069249  0  0  2.192326  0  4.620868  0  0  2.290324  0  4.584528  0  0  1.505862  2.119908  0  4.653304  0
Mo  Mo7  1  0.14843884  0.96656600  0.22098704  1  0  2.193865  0  4.069103  0  0  2.19213  0  4.620729  0  0  2.290134  0  4.584382  0  0  1.505776  2.119714  0  4.653165  0
Mo  Mo8  1  0.09799542  0.85631339  0.53203133  1  0  2.244239  0  4.099363  0  0  2.228749  0  4.685655  0  0  2.337182  0  4.632401  0  0  1.508128  2.152186  0  4.724105  0
Mo  Mo9  1  0.90201120  0.14368381  0.46796757  1  0  2.244246  0  4.099507  0  0  2.228722  0  4.685841  0  0  2.337173  0  4.632571  0  0  1.50812  2.15216  0  4.724287  0
H  H10  1  0.30443160  0.21383888  0.60952251  1  0  0.078624  0  0.971354  0  0  0.087129  0  1.037086  0  0  0.089276  0  1.034978  0  0  0.116033  0.085568  0  1.038512  0
H  H11  1  0.69555853  0.78616501  0.39048472  1  0  0.07871  0  0.971245  0  0  0.0872  0  1.036975  0  0  0.089317  0  1.034898  0  0  0.116062  0.085639  0  1.0384  0
H  H12  1  0.28897122  0.40815145  0.60020547  1  0  0.111089  0  0.928437  0  0  0.128088  0  0.975209  0  0  0.130599  0  0.975245  0  0  0.115842  0.126287  0  0.975377  0
H  H13  1  0.71102949  0.59184908  0.39979559  1  0  0.111102  0  0.928398  0  0  0.128082  0  0.975204  0  0  0.130594  0  0.975239  0  0  0.115841  0.12628  0  0.975372  0
H  H14  1  0.64265251  0.35123605  0.30470832  1  0  0.118287  0  0.927338  0  0  0.131888  0  0.978726  0  0  0.134878  0  0.978145  0  0  0.11505  0.129741  0  0.979343  0
H  H15  1  0.35734383  0.64876618  0.69528946  1  0  0.11824  0  0.927364  0  0  0.131859  0  0.978729  0  0  0.134849  0  0.978149  0  0  0.115026  0.129712  0  0.979349  0
H  H16  1  0.64253245  0.15932608  0.32497306  1  0  0.087861  0  0.942011  0  0  0.099317  0  1.001708  0  0  0.10111  0  1.000565  0  0  0.120471  0.097935  0  1.002708  0
H  H17  1  0.35745827  0.84067374  0.67503117  1  0  0.087794  0  0.941953  0  0  0.09928  0  1.001649  0  0  0.10107  0  1.000511  0  0  0.120453  0.097905  0  1.002631  0
H  H18  1  0.53176475  0.53396014  0.37420961  1  0  0.072557  0  0.937627  0  0  0.089067  0  1.001584  0  0  0.09031  0  1.000753  0  0  0.092856  0.088152  0  1.002189  0
H  H19  1  0.46823283  0.46603879  0.62579226  1  0  0.072558  0  0.937597  0  0  0.089045  0  1.00157  0  0  0.090284  0  1.000748  0  0  0.092838  0.088129  0  1.002175  0
H  H20  1  0.37115909  0.56613710  0.47894811  1  0  0.105045  0  0.938161  0  0  0.121922  0  0.996533  0  0  0.123286  0  0.99626  0  0  0.099109  0.120854  0  0.996836  0
H  H21  1  0.62884194  0.43386506  0.52105168  1  0  0.105066  0  0.938159  0  0  0.121961  0  0.996473  0  0  0.123346  0  0.996175  0  0  0.09911  0.12089  0  0.996778  0
H  H22  1  0.37140935  0.33470461  0.17966780  1  0  0.08288  0  0.969672  0  0  0.091887  0  1.036149  0  0  0.094411  0  1.03301  0  0  0.112485  0.089982  0  1.038557  0
H  H23  1  0.62859919  0.66529987  0.82033915  1  0  0.08296  0  0.969661  0  0  0.091977  0  1.036124  0  0  0.094513  0  1.03296  0  0  0.112531  0.0901  0  1.038504  0
H  H24  1  0.21276460  0.32324583  0.37429699  1  0  0.121972  0  0.962809  0  0  0.132754  0  1.023315  0  0  0.136201  0  1.022314  0  0  0.106076  0.130193  0  1.024296  0
H  H25  1  0.78724547  0.67675457  0.62570585  1  0  0.12202  0  0.962744  0  0  0.132858  0  1.023172  0  0  0.136252  0  1.022238  0  0  0.106076  0.1303  0  1.024151  0
H  H26  1  0.15332073  0.66406913  0.38064829  1  0  0.118738  0  0.96049  0  0  0.125091  0  1.026539  0  0  0.127848  0  1.026014  0  0  0.105826  0.123019  0  1.027128  0
H  H27  1  0.84667314  0.33593720  0.61935169  1  0  0.118785  0  0.960471  0  0  0.12512  0  1.026541  0  0  0.127921  0  1.02596  0  0  0.105814  0.123048  0  1.027131  0
H  H28  1  0.31413282  0.66206311  0.18654743  1  0  0.085139  0  0.969471  0  0  0.095094  0  1.032289  0  0  0.097458  0  1.030054  0  0  0.113066  0.093358  0  1.033908  0
H  H29  1  0.68586666  0.33794069  0.81345406  1  0  0.085165  0  0.969463  0  0  0.095145  0  1.032255  0  0  0.097507  0  1.03002  0  0  0.113066  0.093409  0  1.033874  0
H  H30  1  0.09068013  0.41268045  0.55654774  1  0  0.090803  0  0.932164  0  0  0.108321  0  0.992383  0  0  0.109524  0  0.992261  0  0  0.097718  0.107466  0  0.992534  0
H  H31  1  0.90931557  0.58731608  0.44345015  1  0  0.090781  0  0.932207  0  0  0.108305  0  0.992431  0  0  0.109509  0  0.99231  0  0  0.097714  0.107451  0  0.992579  0
H  H32  1  0.04964726  0.55708981  0.55271536  1  0  0.089296  0  0.919149  0  0  0.108065  0  0.9744  0  0  0.109237  0  0.974017  0  0  0.100666  0.107215  0  0.974695  0
H  H33  1  0.95034097  0.44291167  0.44728865  1  0  0.089368  0  0.919197  0  0  0.108157  0  0.974435  0  0  0.109325  0  0.974059  0  0  0.100687  0.107305  0  0.974731  0
H  H34  1  0.59234732  0.60135419  0.16210124  1  0  0.031048  0  0.916541  0  0  0.040808  0  0.984364  0  0  0.043358  0  0.978151  0  0  0.119175  0.038741  0  0.988925  0
H  H35  1  0.40765806  0.39864385  0.83789716  1  0  0.031032  0  0.916615  0  0  0.040833  0  0.984378  0  0  0.043376  0  0.978177  0  0  0.119166  0.038763  0  0.988939  0
H  H36  1  0.62092613  0.69635578  0.25286994  1  0  0.085543  0  0.969594  0  0  0.099684  0  1.045822  0  0  0.100053  0  1.046212  0  0  0.101282  0.099287  0  1.045652  0
H  H37  1  0.37907488  0.30364394  0.74712820  1  0  0.085557  0  0.969574  0  0  0.099691  0  1.045809  0  0  0.100061  0  1.046199  0  0  0.101283  0.099294  0  1.045639  0
H  H38  1  0.52026395  0.83705545  0.25266840  1  0  0.122339  0  0.940237  0  0  0.141483  0  1.000795  0  0  0.142933  0  1.000366  0  0  0.105755  0.140266  0  1.001324  0
H  H39  1  0.47973768  0.16294264  0.74732990  1  0  0.122368  0  0.940227  0  0  0.141505  0  1.000781  0  0  0.142956  0  1.000353  0  0  0.10578  0.140288  0  1.001311  0
H  H40  1  0.69248907  0.79968167  0.16986602  1  0  0.106836  0  0.91269  0  0  0.132313  0  0.962491  0  0  0.133051  0  0.96266  0  0  0.110534  0.131663  0  0.962496  0
H  H41  1  0.30751350  0.20031640  0.83013268  1  0  0.106855  0  0.912684  0  0  0.13233  0  0.962479  0  0  0.133072  0  0.962643  0  0  0.110534  0.13168  0  0.962484  0
H  H42  1  0.53317577  0.84001481  0.96660504  1  0  0.117206  0  0.94957  0  0  0.134783  0  1.014476  0  0  0.136541  0  1.012698  0  0  0.109514  0.133391  0  1.015871  0
H  H43  1  0.46682338  0.15998493  0.03339530  1  0  0.117205  0  0.949622  0  0  0.13478  0  1.014525  0  0  0.136537  0  1.012749  0  0  0.109522  0.133388  0  1.015921  0
H  H44  1  0.63973313  0.88674602  0.99266113  1  0  0.114449  0  0.949662  0  0  0.13592  0  1.010394  0  0  0.13686  0  1.009829  0  0  0.105516  0.135107  0  1.010929  0
H  H45  1  0.36026351  0.11325292  0.00734184  1  0  0.114421  0  0.94966  0  0  0.135897  0  1.010381  0  0  0.136841  0  1.009822  0  0  0.105507  0.135084  0  1.010917  0
H  H46  1  0.46702049  0.92504579  0.07759057  1  0  0.098384  0  0.957398  0  0  0.116555  0  1.026549  0  0  0.116848  0  1.027271  0  0  0.104271  0.116264  0  1.025988  0
H  H47  1  0.53297804  0.07495312  0.92241396  1  0  0.098389  0  0.957439  0  0  0.116575  0  1.02657  0  0  0.116867  0  1.027295  0  0  0.104278  0.116284  0  1.026008  0
H  H48  1  0.41819516  0.75444643  0.90069424  1  0  0.03408  0  0.951874  0  0  0.040836  0  1.028709  0  0  0.042967  0  1.022777  0  0  0.119573  0.039159  0  1.032975  0
H  H49  1  0.58180305  0.24555331  0.09930870  1  0  0.034082  0  0.951867  0  0  0.040839  0  1.028692  0  0  0.042975  0  1.022756  0  0  0.11958  0.039163  0  1.032959  0
H  H50  1  0.17775586  0.97420216  0.97072331  1  0  0.100874  0  0.967757  0  0  0.115423  0  1.04165  0  0  0.11638  0  1.041572  0  0  0.101197  0.114685  0  1.041689  0
H  H51  1  0.82224610  0.02579754  0.02927674  1  0  0.10085  0  0.967775  0  0  0.115371  0  1.041688  0  0  0.116324  0  1.041607  0  0  0.101183  0.114636  0  1.041722  0
H  H52  1  0.18899653  0.97521012  0.83167420  1  0  0.109699  0  0.964325  0  0  0.126385  0  1.031708  0  0  0.127982  0  1.030656  0  0  0.100246  0.125115  0  1.032542  0
H  H53  1  0.81100323  0.02479044  0.16832270  1  0  0.109715  0  0.96444  0  0  0.126395  0  1.03181  0  0  0.12799  0  1.030762  0  0  0.100267  0.125125  0  1.032645  0
H  H54  1  0.33477387  0.92630103  0.86324106  1  0  0.106598  0  0.92591  0  0  0.130351  0  0.981999  0  0  0.131095  0  0.981667  0  0  0.110975  0.12969  0  0.982318  0
H  H55  1  0.66522714  0.07369624  0.13675917  1  0  0.106616  0  0.925871  0  0  0.130343  0  0.981986  0  0  0.131086  0  0.981654  0  0  0.110979  0.129687  0  0.982302  0
H  H56  1  0.06131420  0.83145314  0.88455277  1  0  0.114071  0  0.938916  0  0  0.134222  0  0.99987  0  0  0.13484  0  0.999643  0  0  0.104727  0.133608  0  1.000212  0
H  H57  1  0.93868588  0.16854658  0.11544797  1  0  0.114058  0  0.938913  0  0  0.134212  0  0.999871  0  0  0.134832  0  0.999642  0  0  0.104723  0.133597  0  1.000212  0
H  H58  1  0.02332119  0.86088693  0.02116949  1  0  0.100576  0  0.926866  0  0  0.124785  0  0.984427  0  0  0.125022  0  0.984684  0  0  0.108342  0.124541  0  0.984293  0
H  H59  1  0.97667765  0.13911362  0.97883152  1  0  0.100568  0  0.926843  0  0  0.124778  0  0.984417  0  0  0.125016  0  0.984672  0  0  0.108351  0.124533  0  0.984283  0
H  H60  1  0.10295523  0.72214932  0.98625477  1  0  0.116704  0  0.929434  0  0  0.135914  0  0.987617  0  0  0.137571  0  0.986507  0  0  0.113977  0.134586  0  0.988585  0
H  H61  1  0.89704174  0.27785125  0.01374694  1  0  0.116686  0  0.92946  0  0  0.135896  0  0.987648  0  0  0.137553  0  0.986538  0  0  0.113984  0.134565  0  0.988619  0
C  C62  1  0.37653481  0.24806856  0.54293295  1  0  0.13043  0  3.729655  0  0  0.099798  0  3.98021  0  0  0.10759  0  3.999444  0  0  0.047613  0.094851  0  3.966968  0
C  C63  1  0.62345748  0.75193206  0.45706975  1  0  0.13023  0  3.729875  0  0  0.099654  0  3.980365  0  0  0.107469  0  3.999611  0  0  0.047546  0.094707  0  3.967121  0
C  C64  1  0.36935834  0.35550665  0.53751703  1  0  -0.175352  0  3.722909  0  0  -0.192055  0  3.969475  0  0  -0.200957  0  3.992283  0  0  -0.080429  -0.186351  0  3.954195  0
C  C65  1  0.63063956  0.64449391  0.46248508  1  0  -0.175278  0  3.722927  0  0  -0.191974  0  3.969509  0  0  -0.200874  0  3.992309  0  0  -0.080415  -0.18627  0  3.954227  0
C  C66  1  0.46665167  0.39497794  0.45275951  1  0  0.166841  0  3.724693  0  0  0.181187  0  3.965284  0  0  0.18628  0  3.988766  0  0  0.019836  0.177986  0  3.949224  0
C  C67  1  0.53334312  0.60502347  0.54724357  1  0  0.166751  0  3.724594  0  0  0.181033  0  3.965276  0  0  0.186127  0  3.98877  0  0  0.019782  0.177836  0  3.949211  0
C  C68  1  0.56477299  0.32465165  0.37282303  1  0  -0.153239  0  3.685604  0  0  -0.173249  0  3.935545  0  0  -0.181943  0  3.957722  0  0  -0.076828  -0.167768  0  3.920738  0
C  C69  1  0.43522056  0.67535305  0.62717822  1  0  -0.153186  0  3.68548  0  0  -0.173178  0  3.935431  0  0  -0.181872  0  3.957608  0  0  -0.076776  -0.167702  0  3.920629  0
C  C70  1  0.56534804  0.21809238  0.38302962  1  0  0.142461  0  3.696867  0  0  0.109566  0  3.950577  0  0  0.117325  0  3.969828  0  0  0.05247  0.10451  0  3.937533  0
C  C71  1  0.43464582  0.78191149  0.61697321  1  0  0.14258  0  3.696782  0  0  0.109629  0  3.950532  0  0  0.11739  0  3.969785  0  0  0.052469  0.104575  0  3.937494  0
C  C72  1  0.47041708  0.50490095  0.45621253  1  0  -0.159115  0  3.683024  0  0  -0.202564  0  3.933205  0  0  -0.20475  0  3.945916  0  0  -0.152342  -0.200773  0  3.924146  0
C  C73  1  0.52957926  0.49509881  0.54379036  1  0  -0.159111  0  3.682981  0  0  -0.202486  0  3.933133  0  0  -0.204695  0  3.945852  0  0  -0.152305  -0.200697  0  3.924084  0
C  C74  1  0.32384458  0.40489440  0.22807554  1  0  0.126525  0  3.728586  0  0  0.094232  0  3.977371  0  0  0.101554  0  3.997481  0  0  0.039742  0.089519  0  3.963568  0
C  C75  1  0.67616301  0.59510766  0.77192859  1  0  0.126352  0  3.728728  0  0  0.094029  0  3.977549  0  0  0.101351  0  3.997656  0  0  0.039699  0.089292  0  3.963731  0
C  C76  1  0.23412669  0.39953152  0.33615453  1  0  -0.172008  0  3.699749  0  0  -0.189122  0  3.943822  0  0  -0.198198  0  3.966612  0  0  -0.086708  -0.183161  0  3.928573  0
C  C77  1  0.76587965  0.60047138  0.66384911  1  0  -0.172113  0  3.699782  0  0  -0.189267  0  3.943864  0  0  -0.198305  0  3.966684  0  0  -0.086747  -0.183308  0  3.928621  0
C  C78  1  0.17078784  0.49281348  0.39436907  1  0  0.153092  0  3.73745  0  0  0.168281  0  3.977295  0  0  0.17313  0  4.000808  0  0  0.012586  0.165135  0  3.961247  0
C  C79  1  0.82921225  0.50718870  0.60563032  1  0  0.15318  0  3.737322  0  0  0.168367  0  3.977201  0  0  0.173216  0  4.000717  0  0  0.012619  0.165221  0  3.961152  0
C  C80  1  0.20135374  0.58838571  0.34035852  1  0  -0.153413  0  3.675006  0  0  -0.167451  0  3.916922  0  0  -0.175982  0  3.939059  0  0  -0.079608  -0.161921  0  3.902235  0
C  C81  1  0.79864137  0.41161734  0.65964254  1  0  -0.15352  0  3.67515  0  0  -0.167519  0  3.917024  0  0  -0.176081  0  3.939141  0  0  -0.07964  -0.16199  0  3.902336  0
C  C82  1  0.29214003  0.58762174  0.23180356  1  0  0.130317  0  3.710634  0  0  0.100056  0  3.954992  0  0  0.107473  0  3.974521  0  0  0.042593  0.095254  0  3.941664  0
C  C83  1  0.70786132  0.41238203  0.76819874  1  0  0.130232  0  3.710881  0  0  0.099945  0  3.955216  0  0  0.107362  0  3.974754  0  0  0.042615  0.095141  0  3.94189  0
C  C84  1  0.06488598  0.49153719  0.50694400  1  0  -0.15619  0  3.684126  0  0  -0.199918  0  3.93749  0  0  -0.201581  0  3.949196  0  0  -0.152784  -0.198497  0  3.929116  0
C  C85  1  0.93510879  0.50846179  0.49305590  1  0  -0.156381  0  3.684298  0  0  -0.200192  0  3.937747  0  0  -0.201861  0  3.94945  0  0  -0.152916  -0.198765  0  3.929372  0
C  C86  1  0.57176176  0.66794626  0.09709414  1  0  0.397834  0  3.830508  0  0  0.32345  0  4.115142  0  0  0.351938  0  4.116039  0  0  0.178517  0.304433  0  4.113927  0
C  C87  1  0.42824393  0.33205097  0.90290284  1  0  0.397736  0  3.830662  0  0  0.323338  0  4.11528  0  0  0.351833  0  4.116177  0  0  0.178503  0.304328  0  4.114056  0
C  C88  1  0.60423868  0.77464206  0.20118840  1  0  -0.174506  0  3.665259  0  0  -0.273545  0  3.912441  0  0  -0.270804  0  3.923725  0  0  -0.127854  -0.275066  0  3.904751  0
C  C89  1  0.39576234  0.22535766  0.79881124  1  0  -0.174556  0  3.665205  0  0  -0.273593  0  3.912391  0  0  -0.270851  0  3.923671  0  0  -0.127873  -0.275112  0  3.904703  0
C  C90  1  0.55246218  0.85982525  0.03158673  1  0  -0.173043  0  3.623733  0  0  -0.272593  0  3.864485  0  0  -0.269086  0  3.874159  0  0  -0.135122  -0.27468  0  3.857981  0
C  C91  1  0.44753603  0.14017449  0.96841471  1  0  -0.173066  0  3.623872  0  0  -0.272617  0  3.864582  0  0  -0.269125  0  3.874271  0  0  -0.135146  -0.274704  0  3.85808  0
C  C92  1  0.32928416  0.73308009  0.92121629  1  0  0.394144  0  3.827986  0  0  0.316178  0  4.124092  0  0  0.344551  0  4.124901  0  0  0.170414  0.297257  0  4.12297  0
C  C93  1  0.67071499  0.26691965  0.07878330  1  0  0.394116  0  3.828011  0  0  0.316173  0  4.124092  0  0  0.344544  0  4.124901  0  0  0.17042  0.297249  0  4.12297  0
C  C94  1  0.23125223  0.93035693  0.89544502  1  0  -0.179864  0  3.651858  0  0  -0.279943  0  3.89994  0  0  -0.276948  0  3.910103  0  0  -0.13427  -0.28167  0  3.893101  0
C  C95  1  0.76874816  0.06964197  0.10455655  1  0  -0.179905  0  3.651939  0  0  -0.279923  0  3.900069  0  0  -0.276921  0  3.910229  0  0  -0.134292  -0.281659  0  3.893232  0
C  C96  1  0.09514462  0.80774028  0.95479271  1  0  -0.163053  0  3.632376  0  0  -0.260891  0  3.870389  0  0  -0.25704  0  3.879961  0  0  -0.130352  -0.263232  0  3.863977  0
C  C97  1  0.90485391  0.19226109  0.04520822  1  0  -0.163009  0  3.632306  0  0  -0.260855  0  3.870354  0  0  -0.257003  0  3.879919  0  0  -0.130342  -0.263192  0  3.863944  0
N  N98  1  0.47386781  0.18010914  0.46748887  1  0  -0.345847  0  3.289577  0  0  -0.263863  0  3.552828  0  0  -0.285926  0  3.571891  0  0  -0.338109  -0.248845  0  3.539481  0
N  N99  1  0.52612541  0.81989148  0.53251197  1  0  -0.345765  0  3.289718  0  0  -0.263792  0  3.552954  0  0  -0.285853  0  3.572009  0  0  -0.338034  -0.248777  0  3.539608  0
N  N100  1  0.35290405  0.49737158  0.17665922  1  0  -0.353061  0  3.313509  0  0  -0.26848  0  3.57525  0  0  -0.290664  0  3.596122  0  0  -0.34231  -0.253188  0  3.560558  0
N  N101  1  0.64709729  0.50262975  0.82334292  1  0  -0.352826  0  3.313508  0  0  -0.268239  0  3.575236  0  0  -0.290426  0  3.596113  0  0  -0.342279  -0.252951  0  3.560557  0
N  N102  1  0.57705921  0.76266628  0.10875140  1  0  -0.070054  0  3.49754  0  0  0.034683  0  3.728306  0  0  0.01483  0  3.753693  0  0  -0.274592  0.047917  0  3.710708  0
N  N103  1  0.42294149  0.23733180  0.89125026  1  0  -0.069993  0  3.497594  0  0  0.034731  0  3.728349  0  0  0.014882  0  3.753735  0  0  -0.274564  0.047964  0  3.71075  0
N  N104  1  0.22356625  0.81987467  0.92073585  1  0  -0.079076  0  3.507584  0  0  0.024538  0  3.742489  0  0  0.004211  0  3.768299  0  0  -0.279623  0.038061  0  3.724656  0
N  N105  1  0.77643196  0.18012507  0.07926634  1  0  -0.079029  0  3.507559  0  0  0.024566  0  3.74247  0  0  0.004242  0  3.768279  0  0  -0.279639  0.038091  0  3.724638  0
O  O106  1  0.42421376  0.01087278  0.35888094  1  0  -0.782281  0  1.535138  0  0  -0.768586  0  1.812033  0  0  -0.799495  0  1.797443  0  0  -0.544871  -0.746043  0  1.82295  0
O  O107  1  0.57578755  0.98912369  0.64111486  1  0  -0.782304  0  1.535173  0  0  -0.768601  0  1.812052  0  0  -0.799515  0  1.797465  0  0  -0.544883  -0.746062  0  1.822971  0
O  O108  1  0.28117696  0.04024634  0.62661357  1  0  -0.790894  0  1.575379  0  0  -0.771443  0  1.857482  0  0  -0.803098  0  1.843131  0  0  -0.539642  -0.748549  0  1.867885  0
O  O109  1  0.71882030  0.95975098  0.37338580  1  0  -0.790904  0  1.575367  0  0  -0.771444  0  1.857466  0  0  -0.803097  0  1.84311  0  0  -0.539645  -0.748549  0  1.867867  0
O  O110  1  0.29692282  0.16877172  0.23365355  1  0  -0.650364  0  1.393937  0  0  -0.647082  0  1.621812  0  0  -0.671637  0  1.611873  0  0  -0.500242  -0.629205  0  1.630076  0
O  O111  1  0.70308068  0.83122634  0.76634330  1  0  -0.650408  0  1.393894  0  0  -0.647149  0  1.621787  0  0  -0.671707  0  1.611841  0  0  -0.500282  -0.62927  0  1.630044  0
O  O112  1  0.17296488  0.15613748  0.46527808  1  0  -0.920591  0  1.763588  0  0  -0.922447  0  2.058496  0  0  -0.965261  0  2.05322  0  0  -0.599308  -0.890395  0  2.06236  0
O  O113  1  0.82703707  0.84386222  0.53472046  1  0  -0.920588  0  1.763745  0  0  -0.922447  0  2.05866  0  0  -0.965254  0  2.05337  0  0  -0.599318  -0.8904  0  2.062524  0
O  O114  1  0.06453991  0.22166856  0.67969823  1  0  -0.656442  0  1.369132  0  0  -0.656274  0  1.58931  0  0  -0.67961  0  1.579802  0  0  -0.509702  -0.63945  0  1.59714  0
O  O115  1  0.93546298  0.77833114  0.32029846  1  0  -0.656437  0  1.369071  0  0  -0.656285  0  1.589254  0  0  -0.679618  0  1.579736  0  0  -0.509687  -0.639464  0  1.597083  0
O  O116  1  0.18674674  0.94644487  0.51162004  1  0  -0.945719  0  1.684997  0  0  -0.937413  0  1.983031  0  0  -0.975128  0  1.971467  0  0  -0.573536  -0.909504  0  1.99057  0
O  O117  1  0.81326112  0.05355154  0.48837182  1  0  -0.945704  0  1.684957  0  0  -0.937392  0  1.982991  0  0  -0.97511  0  1.971421  0  0  -0.573507  -0.909486  0  1.990533  0
O  O118  1  0.03694240  0.01008342  0.73402366  1  0  -0.907667  0  1.742281  0  0  -0.908192  0  2.035053  0  0  -0.950112  0  2.028512  0  0  -0.597609  -0.876871  0  2.039701  0
O  O119  1  0.96305860  0.98991385  0.26597507  1  0  -0.907644  0  1.742338  0  0  -0.908156  0  2.035092  0  0  -0.95009  0  2.028576  0  0  -0.597595  -0.876835  0  2.03974  0
O  O120  1  0.77994982  0.15293249  0.84087356  1  0  -0.663218  0  1.400243  0  0  -0.658792  0  1.630838  0  0  -0.685697  0  1.622616  0  0  -0.507158  -0.639659  0  1.637643  0
O  O121  1  0.22005244  0.84706887  0.15911845  1  0  -0.663084  0  1.400066  0  0  -0.658628  0  1.630636  0  0  -0.68553  0  1.622409  0  0  -0.507081  -0.639501  0  1.637446  0
O  O122  1  0.83288910  0.93315649  0.88786624  1  0  -0.679917  0  1.417071  0  0  -0.679351  0  1.65186  0  0  -0.705418  0  1.642057  0  0  -0.511866  -0.660747  0  1.659734  0
O  O123  1  0.16710911  0.06684570  0.11213310  1  0  -0.679887  0  1.41709  0  0  -0.679309  0  1.651882  0  0  -0.705384  0  1.642087  0  0  -0.511847  -0.660703  0  1.659755  0
O  O124  1  0.28192953  0.95385683  0.27429083  1  0  -0.904417  0  1.742669  0  0  -0.9041  0  2.033789  0  0  -0.945968  0  2.027461  0  0  -0.596746  -0.872621  0  2.038286  0
O  O125  1  0.71807304  0.04614371  0.72570351  1  0  -0.904367  0  1.742633  0  0  -0.904042  0  2.033729  0  0  -0.945908  0  2.027401  0  0  -0.596706  -0.872566  0  2.038225  0
O  O126  1  0.93078619  0.13380240  0.59462980  1  0  -0.990859  0  1.759822  0  0  -0.978526  0  2.065822  0  0  -1.018805  0  2.053667  0  0  -0.586374  -0.948631  0  2.073611  0
O  O127  1  0.06922292  0.86619316  0.40536630  1  0  -0.9909  0  1.759776  0  0  -0.978593  0  2.06579  0  0  -1.018859  0  2.05362  0  0  -0.586381  -0.948697  0  2.073583  0
O  O128  1  0.18723774  0.72306244  0.56221533  1  0  -0.740024  0  1.341278  0  0  -0.727848  0  1.57077  0  0  -0.75229  0  1.554387  0  0  -0.547368  -0.710693  0  1.582678  0
O  O129  1  0.81276764  0.27693559  0.43778458  1  0  -0.740069  0  1.341207  0  0  -0.727889  0  1.570698  0  0  -0.75234  0  1.554321  0  0  -0.547398  -0.710735  0  1.582603  0
O  O130  1  0.05865755  0.10118226  0.35413491  1  0  -0.985203  0  1.75665  0  0  -0.971559  0  2.053618  0  0  -1.011898  0  2.041078  0  0  -0.586259  -0.941565  0  2.061682  0
O  O131  1  0.94134440  0.89881745  0.64586287  1  0  -0.985263  0  1.756505  0  0  -0.971629  0  2.053461  0  0  -1.011962  0  2.04092  0  0  -0.586303  -0.941635  0  2.061527  0
O  O132  1  0.54626443  0.65267410  0.02078697  1  0  -0.547896  0  2.097693  0  0  -0.487098  0  2.360465  0  0  -0.513165  0  2.352189  0  0  -0.305054  -0.468952  0  2.365422  0
O  O133  1  0.45374500  0.34732310  0.97920712  1  0  -0.547798  0  2.09767  0  0  -0.487052  0  2.36051  0  0  -0.513113  0  2.352233  0  0  -0.305061  -0.468905  0  2.365457  0
O  O134  1  0.33057347  0.63525887  0.94310264  1  0  -0.560165  0  2.040093  0  0  -0.504449  0  2.294039  0  0  -0.529347  0  2.285267  0  0  -0.327404  -0.487202  0  2.299486  0
O  O135  1  0.66942754  0.36474086  0.05689399  1  0  -0.56017  0  2.040111  0  0  -0.504457  0  2.294048  0  0  -0.529356  0  2.285279  0  0  -0.327418  -0.487208  0  2.299497  0
