# generated using pymatgen
data_CoH16C17(NO3)2
_symmetry_space_group_name_H-M   'P 1'
_cell_length_a   8.75062171
_cell_length_b   13.71712155
_cell_length_c   16.96247477
_cell_angle_alpha   89.87377013
_cell_angle_beta   100.31010219
_cell_angle_gamma   89.94909757
_symmetry_Int_Tables_number   1
_chemical_formula_structural   CoH16C17(NO3)2
_chemical_formula_sum   'Co4 H64 C68 N8 O24'
_cell_volume   2003.18067464
_cell_formula_units_Z   4
loop_
 _symmetry_equiv_pos_site_id
 _symmetry_equiv_pos_as_xyz
  1  'x, y, z'
loop_
 _atom_site_type_symbol
 _atom_site_label
 _atom_site_symmetry_multiplicity
 _atom_site_fract_x
 _atom_site_fract_y
 _atom_site_fract_z
 _atom_site_occupancy
 _atom_site_pbe_bader_charge
 _atom_site_pbe_bader_spin_density
 _atom_site_pbe_cm5_charge
 _atom_site_pbe_ddec_charge
 _atom_site_pbe_ddec_spin_density
 _atom_site_pbe_ddec_sum_bond_order
 _atom_site_pbe_magmom
Co  Co0  1  0.29049430  0.76380215  0.23350545  1  1.292498  2.622403  0.655645  0.906619  2.847488  2.433016  2.604
Co  Co1  1  0.20898522  0.26143391  0.26395841  1  1.269825  2.590516  0.646036  0.873686  2.812312  2.447136  2.573
Co  Co2  1  0.70927954  0.23844530  0.76411891  1  1.268456  2.589548  0.646089  0.872733  2.811094  2.44986  2.572
Co  Co3  1  0.79099221  0.73856488  0.73604937  1  1.269773  2.590287  0.646107  0.873846  2.81221  2.450358  2.573
H  H4  1  0.56413917  0.84626570  0.43965641  1  0.079013  0.000227  0.102318  0.107502  -3.1e-05  1.033829  0.0
H  H5  1  0.93572914  0.34497808  0.06127684  1  0.099955  0.000349  0.101214  0.105581  8.3e-05  1.03559  0.0
H  H6  1  0.43612752  0.15499850  0.56203023  1  0.103589  0.000384  0.10133  0.10526  0.000105  1.036523  0.0
H  H7  1  0.06379716  0.65365512  0.93785573  1  0.109351  0.000386  0.10106  0.105314  9.3e-05  1.036985  0.0
H  H8  1  0.10201694  0.41629438  0.47956520  1  0.068634  0.000371  0.10362  0.086065  0.00023  0.981232  0.0
H  H9  1  0.39812687  0.91598890  0.02042439  1  0.064459  0.00036  0.102442  0.084405  0.000198  0.983284  0.0
H  H10  1  0.89845185  0.58455671  0.51974726  1  0.057586  0.000384  0.103993  0.085719  0.000241  0.980081  0.0
H  H11  1  0.60167514  0.08389847  0.97953745  1  0.068696  0.000382  0.10377  0.086935  0.000238  0.980606  0.0
H  H12  1  0.25614513  0.56282896  0.51793022  1  0.053762  -0.000344  0.098847  0.107674  -0.000305  0.991441  0.0
H  H13  1  0.24327973  0.06260008  0.98161302  1  0.053956  -0.000343  0.0984  0.106982  -0.000311  0.991473  0.0
H  H14  1  0.74405888  0.43764667  0.48198280  1  0.054916  -0.00045  0.098259  0.106476  -0.000399  0.991909  0.0
H  H15  1  0.75656594  0.93734570  0.01827198  1  0.05319  -0.000345  0.098581  0.107131  -0.000315  0.991571  0.0
H  H16  1  0.16438128  0.58229186  0.60191233  1  0.045228  0.000702  0.094714  0.098149  0.000461  1.010409  0.0
H  H17  1  0.33500065  0.08223653  0.89763437  1  0.043854  0.000693  0.095125  0.09858  0.000453  1.01028  0.0
H  H18  1  0.83474079  0.41846090  0.39761780  1  0.047888  0.000693  0.094586  0.097636  0.000461  1.009583  0.0
H  H19  1  0.66524859  0.91775048  0.10239934  1  0.041365  0.000735  0.094363  0.09645  0.000444  1.009419  0.0
H  H20  1  0.81717273  0.42777591  0.74387114  1  0.150758  0.001817  0.115869  0.08885  0.000765  1.054847  0.001
H  H21  1  0.68304933  0.92787264  0.75608081  1  0.156687  0.001793  0.11593  0.088857  0.000755  1.055118  0.001
H  H22  1  0.18480125  0.57054906  0.25571856  1  0.151558  0.001137  0.116569  0.091954  -2e-05  1.055616  0.001
H  H23  1  0.31718907  0.07220673  0.24412398  1  0.150391  0.00169  0.115827  0.088505  0.000643  1.057039  0.001
H  H24  1  0.93102348  0.53017256  0.64933100  1  0.106864  0.000597  0.108807  0.13507  0.000139  1.022967  0.0
H  H25  1  0.56905685  0.03019289  0.85043319  1  0.106398  0.000589  0.108764  0.135188  0.000132  1.022865  0.0
H  H26  1  0.06936405  0.46899302  0.35055804  1  0.097009  0.000601  0.107687  0.133855  0.000154  1.025743  0.0
H  H27  1  0.43057562  0.96983446  0.14955083  1  0.102602  0.000647  0.107767  0.131772  0.000107  1.024683  0.0
H  H28  1  0.04942196  0.26313074  0.53747253  1  0.127965  0.001042  0.107577  0.131468  0.000512  1.022339  0.0
H  H29  1  0.45012055  0.76299576  0.96251954  1  0.12396  0.001041  0.107392  0.131647  0.000502  1.023347  0.0
H  H30  1  0.95211854  0.73716705  0.46105899  1  0.120113  0.00118  0.107637  0.131155  0.000551  1.020402  0.001
H  H31  1  0.54963908  0.23682983  0.03731529  1  0.126344  0.001036  0.107877  0.132062  0.00051  1.022059  0.0
H  H32  1  0.92672929  0.17209089  0.63707443  1  0.075475  0.001455  0.116645  0.091687  0.000336  1.013688  0.001
H  H33  1  0.57318399  0.67206040  0.86317218  1  0.075058  0.001449  0.116602  0.091866  0.000331  1.012744  0.001
H  H34  1  0.07659938  0.82698713  0.36171293  1  0.082457  0.00137  0.115384  0.090913  0.000337  1.015384  0.001
H  H35  1  0.42683481  0.32788310  0.13674097  1  0.07941  0.001432  0.116692  0.092563  0.000332  1.015448  0.001
H  H36  1  0.40387810  0.39619115  0.51189242  1  0.094248  0.000939  0.112849  0.12961  0.000396  0.978642  0.0
H  H37  1  0.09600868  0.89587188  0.98799083  1  0.094817  0.000968  0.111881  0.127395  0.000404  0.980411  0.0
H  H38  1  0.59595203  0.60409271  0.48866471  1  0.081631  0.000928  0.111795  0.128568  0.000414  0.981285  0.0
H  H39  1  0.90401683  0.10415551  0.01188748  1  0.094088  0.000933  0.112547  0.129275  0.000395  0.979423  0.0
H  H40  1  0.59108015  0.28602545  0.59699355  1  0.09705  0.0018  0.117633  0.081025  0.000587  1.015117  0.001
H  H41  1  0.90905551  0.78598371  0.90312899  1  0.097031  0.00179  0.117583  0.080872  0.000581  1.015422  0.001
H  H42  1  0.40835066  0.71488498  0.40393581  1  0.096194  0.001443  0.11754  0.081828  0.000125  1.016165  0.001
H  H43  1  0.09100272  0.21399842  0.09678299  1  0.099292  0.00178  0.117719  0.081367  0.000578  1.015121  0.001
H  H44  1  0.47317554  0.39412059  0.80599778  1  0.101089  0.001585  0.122675  0.092217  0.000335  0.999844  0.001
H  H45  1  0.02717290  0.89425848  0.69396382  1  0.100769  0.001579  0.122899  0.092329  0.000334  0.999755  0.001
H  H46  1  0.52375198  0.60631134  0.19456499  1  0.108695  0.001724  0.120847  0.091119  0.00056  1.002083  0.001
H  H47  1  0.97295977  0.10574983  0.30597968  1  0.103011  0.001559  0.123066  0.092742  0.000311  0.998484  0.001
H  H48  1  0.27521327  0.50571212  0.72969276  1  0.06844  0.000961  0.110786  0.122332  0.000402  0.980855  0.0
H  H49  1  0.22475695  0.00565755  0.77000247  1  0.100795  0.000935  0.110784  0.122344  0.0004  0.980857  0.0
H  H50  1  0.72271677  0.49534230  0.27019137  1  0.084022  0.001091  0.111413  0.12361  0.000459  0.980544  0.0
H  H51  1  0.77541308  0.99432082  0.22997688  1  0.101349  0.000953  0.110407  0.121819  0.000411  0.981695  0.0
H  H52  1  0.41498732  0.74586216  0.10988420  1  0.634481  0.000195  0.278051  0.363305  0.000325  0.996817  0.0
H  H53  1  0.07943970  0.24803165  0.38782757  1  0.637845  6.6e-05  0.27893  0.361893  3.1e-05  0.997717  0.0
H  H54  1  0.57991183  0.25207117  0.88806726  1  0.652199  6.4e-05  0.277752  0.360429  2.9e-05  0.999776  0.0
H  H55  1  0.92015739  0.75209134  0.61206707  1  0.638463  6.4e-05  0.278498  0.361534  3.6e-05  0.997963  0.0
H  H56  1  0.55240610  0.78443997  0.18052716  1  0.594213  0.000496  0.315528  0.383202  2.1e-05  0.899256  0.0
H  H57  1  0.94454688  0.28552886  0.31681132  1  0.583044  -8.1e-05  0.313566  0.38129  -0.000373  0.902296  0.0
H  H58  1  0.44524352  0.21509398  0.81707782  1  0.582444  -0.000108  0.31275  0.380245  -0.000394  0.903409  0.0
H  H59  1  0.05502876  0.71481949  0.68302044  1  0.584666  -8.9e-05  0.312938  0.380376  -0.000384  0.902908  0.0
H  H60  1  0.02449027  0.84721099  0.17755685  1  0.594959  0.00033  0.31656  0.391861  -0.000103  0.885953  0.0
H  H61  1  0.47568738  0.34263577  0.32443247  1  0.595535  0.000205  0.314887  0.390198  -0.000167  0.888642  0.0
H  H62  1  0.97630579  0.15697467  0.82380218  1  0.598852  0.000155  0.315089  0.390972  -0.000191  0.887828  0.0
H  H63  1  0.52373601  0.65737313  0.67575774  1  0.595209  0.000201  0.315861  0.391395  -0.000165  0.887296  0.0
H  H64  1  0.13918989  0.91856585  0.23589848  1  0.639247  0.00033  0.280958  0.363026  0.000453  0.995424  0.001
H  H65  1  0.36618659  0.41567790  0.26612208  1  0.642344  -5e-05  0.281602  0.362522  -0.000195  0.994841  0.0
H  H66  1  0.86562546  0.08345423  0.76707230  1  0.64475  -4.7e-05  0.280828  0.362469  -0.000196  0.995311  0.0
H  H67  1  0.63420485  0.58371183  0.73297478  1  0.647245  -4.4e-05  0.281212  0.362465  -0.000191  0.995132  0.0
C  C68  1  0.72783869  0.86399984  0.58583392  1  1.592421  0.003255  0.217219  0.59989  0.001952  4.185854  0.002
C  C69  1  0.77284046  0.36302114  0.91448612  1  1.59197  0.003274  0.217947  0.6005  0.001983  4.185338  0.002
C  C70  1  0.27324315  0.13720486  0.41494362  1  1.595941  0.003195  0.217436  0.601354  0.001954  4.185278  0.002
C  C71  1  0.22574119  0.63554017  0.08517364  1  1.611169  -0.000235  0.21749  0.601921  -0.000882  4.183606  0.0
C  C72  1  0.61863104  0.93964246  0.54246204  1  0.019926  0.008185  -0.002665  -0.022691  0.004256  3.922346  0.005
C  C73  1  0.88210638  0.43827173  0.95791008  1  -0.052571  0.00803  -0.003063  -0.022356  0.004154  3.921749  0.005
C  C74  1  0.38272561  0.06203827  0.45880760  1  -0.003378  0.006063  -0.004043  -0.024413  0.003133  3.922187  0.004
C  C75  1  0.11753327  0.56036957  0.04114024  1  0.013982  0.008223  -0.003873  -0.024289  0.004175  3.92522  0.006
C  C76  1  0.41886963  0.97320192  0.42479081  1  -0.074141  0.007924  -0.012173  -0.04444  0.004013  3.933958  0.005
C  C77  1  0.08138450  0.47164384  0.07560658  1  -0.086275  0.006674  -0.011079  -0.043365  0.003459  3.932207  0.004
C  C78  1  0.58208866  0.02831393  0.57664728  1  0.040715  0.004817  -0.011215  -0.046239  0.002539  3.936949  0.003
C  C79  1  0.91829133  0.52699375  0.92348064  1  -0.014286  0.006922  -0.011227  -0.046437  0.003664  3.93519  0.004
C  C80  1  0.32888991  0.93443882  0.34759010  1  1.551366  -0.001024  0.209278  0.570573  -0.001681  4.18781  0.0
C  C81  1  0.17164831  0.43346807  0.15323055  1  1.5634  0.005313  0.213308  0.573744  0.003446  4.184598  0.003
C  C82  1  0.67176618  0.06600128  0.65424886  1  1.55407  0.005214  0.213724  0.573999  0.00338  4.18507  0.003
C  C83  1  0.82825650  0.56526413  0.84592871  1  1.560811  0.005231  0.21256  0.573069  0.003432  4.185931  0.003
C  C84  1  0.53713717  0.91444971  0.46693542  1  -0.058485  0.00207  -0.084406  -0.122384  0.000931  3.946321  0.001
C  C85  1  0.96325694  0.41298844  0.03371420  1  0.024124  0.004066  -0.083306  -0.121643  0.002127  3.948393  0.002
C  C86  1  0.46377603  0.08710691  0.53454628  1  -0.007525  0.004855  -0.083898  -0.121021  0.002507  3.947284  0.003
C  C87  1  0.03651198  0.58562721  0.96540863  1  -0.003491  0.004181  -0.083536  -0.120903  0.00216  3.951642  0.002
C  C88  1  0.06298291  0.46588829  0.52293356  1  -0.00269  -0.000885  -0.073183  -0.046251  -0.001135  3.828788  0.0
C  C89  1  0.43695834  0.96566919  0.97689257  1  0.015995  -0.000841  -0.072568  -0.044674  -0.001098  3.827857  0.0
C  C90  1  0.93701292  0.53461582  0.47645172  1  0.02256  -0.000982  -0.072499  -0.043517  -0.001246  3.827  0.0
C  C91  1  0.56293666  0.03423488  0.02309659  1  -0.005297  -0.000846  -0.072692  -0.045772  -0.001094  3.826554  0.0
C  C92  1  0.20484121  0.52583374  0.56454290  1  -0.030763  4.7e-05  -0.155778  -0.239842  -0.000359  3.93146  0.0
C  C93  1  0.29477951  0.02566041  0.93512224  1  -0.024505  4.9e-05  -0.15538  -0.239362  -0.000364  3.93111  0.0
C  C94  1  0.79472566  0.47481942  0.43522412  1  -0.028164  7.2e-05  -0.155125  -0.23729  -0.000411  3.931354  0.0
C  C95  1  0.70525681  0.97431950  0.06481664  1  -0.02424  3.6e-05  -0.155523  -0.239062  -0.000379  3.93363  0.0
C  C96  1  0.87046479  0.39448301  0.69738402  1  0.405449  -0.00472  0.03803  0.09788  -0.005393  3.950586  -0.003
C  C97  1  0.62967691  0.89456912  0.80261036  1  0.396628  -0.004811  0.038284  0.09831  -0.005498  3.949337  -0.003
C  C98  1  0.13160821  0.60408194  0.30209304  1  0.431354  -0.006526  0.039233  0.099819  -0.007734  3.948749  -0.004
C  C99  1  0.37046242  0.10546374  0.19750823  1  0.414315  -0.004754  0.037977  0.097182  -0.005429  3.951274  -0.003
C  C100  1  0.93425510  0.45098515  0.64394292  1  -0.029528  0.005196  -0.089274  -0.182029  0.002349  3.923416  0.004
C  C101  1  0.56583842  0.95099252  0.85595164  1  -0.020642  0.005163  -0.089244  -0.181807  0.002329  3.922797  0.004
C  C102  1  0.06668104  0.54824559  0.35562224  1  -0.016303  0.004709  -0.088844  -0.182741  0.002271  3.919481  0.004
C  C103  1  0.43413111  0.04901788  0.14410553  1  -0.033344  0.005228  -0.090036  -0.182888  0.002337  3.927545  0.004
C  C104  1  0.99783029  0.40532819  0.58342339  1  -0.010823  -0.009626  0.006304  0.124502  -0.010399  3.952615  -0.006
C  C105  1  0.50219588  0.90523077  0.91651051  1  -0.014939  -0.009773  0.005193  0.12365  -0.010557  3.953744  -0.006
C  C106  1  0.00271071  0.59450320  0.41572618  1  -0.016603  -0.009726  0.005235  0.125022  -0.010486  3.952862  -0.006
C  C107  1  0.49776770  0.09467253  0.08349256  1  -0.016067  -0.009813  0.005702  0.124606  -0.010592  3.95355  -0.006
C  C108  1  0.99831278  0.30329117  0.58187043  1  -0.024396  0.005861  -0.088603  -0.188643  0.00276  3.930678  0.005
C  C109  1  0.50161607  0.80319842  0.91818879  1  -0.026784  0.005894  -0.088913  -0.190006  0.002769  3.93096  0.005
C  C110  1  0.00320403  0.69654042  0.41693172  1  -0.032275  0.006318  -0.090258  -0.191437  0.002982  3.936174  0.005
C  C111  1  0.49839145  0.19669034  0.08177703  1  -0.025573  0.005865  -0.088546  -0.188754  0.002754  3.928352  0.005
C  C112  1  0.93108076  0.25160395  0.63781366  1  0.449013  -0.005912  0.038599  0.086605  -0.006874  3.963906  -0.003
C  C113  1  0.56894782  0.75157946  0.86234792  1  0.450088  -0.006059  0.038835  0.087219  -0.007035  3.961997  -0.003
C  C114  1  0.07167370  0.74746317  0.36106647  1  0.444745  -0.005013  0.039913  0.08643  -0.005742  3.968323  -0.002
C  C115  1  0.43118621  0.24837559  0.13762464  1  0.448463  -0.006072  0.039249  0.087353  -0.007043  3.959484  -0.003
C  C116  1  0.32350281  0.46138751  0.61390553  1  -0.046967  -0.008408  0.010212  0.168166  -0.009157  3.970338  -0.006
C  C117  1  0.17635349  0.96125053  0.88588490  1  -0.032983  -0.008452  0.009217  0.166557  -0.009204  3.970083  -0.006
C  C118  1  0.67550998  0.53929369  0.38627145  1  -0.041314  -0.01075  0.008005  0.164391  -0.011647  3.972236  -0.007
C  C119  1  0.82379539  0.03869220  0.11403537  1  -0.044888  -0.008568  0.008989  0.16559  -0.009332  3.971627  -0.006
C  C120  1  0.41447098  0.39784672  0.57698645  1  -0.03297  0.00524  -0.083834  -0.180975  0.002473  3.926075  0.004
C  C121  1  0.08548888  0.89765286  0.92289978  1  -0.047102  0.005219  -0.083863  -0.180185  0.002461  3.929784  0.004
C  C122  1  0.58472003  0.60262332  0.42349406  1  0.057406  0.005486  -0.084363  -0.183159  0.002679  3.926336  0.004
C  C123  1  0.91463544  0.10229939  0.07698759  1  -0.040239  0.005268  -0.083558  -0.180576  0.002483  3.92659  0.004
C  C124  1  0.51869911  0.33613583  0.62392026  1  0.489587  -0.005287  0.043508  0.097252  -0.005925  3.970682  -0.003
C  C125  1  0.98146209  0.83604977  0.87612180  1  0.48772  -0.005308  0.04316  0.09708  -0.00595  3.972768  -0.003
C  C126  1  0.48022259  0.66462403  0.37685972  1  0.375365  -0.008045  0.044974  0.101791  -0.009338  3.967252  -0.005
C  C127  1  0.01866125  0.16389442  0.12380086  1  0.487063  -0.005381  0.043551  0.097431  -0.006026  3.971221  -0.003
C  C128  1  0.45170613  0.39498789  0.74066480  1  0.472225  -0.005548  0.049782  0.106849  -0.006479  3.953621  -0.003
C  C129  1  0.04854542  0.89500380  0.75929301  1  0.496669  -0.005609  0.050195  0.107265  -0.006521  3.952761  -0.003
C  C130  1  0.54592472  0.60573616  0.25991162  1  0.453481  -0.006343  0.048121  0.10098  -0.006924  3.957802  -0.004
C  C131  1  0.95162330  0.10495129  0.24065146  1  0.496526  -0.005751  0.050363  0.108282  -0.006688  3.951715  -0.004
C  C132  1  0.34345511  0.45848813  0.69754890  1  0.007701  0.005403  -0.0864  -0.188861  0.002613  3.94594  0.004
C  C133  1  0.15654999  0.95845259  0.80225843  1  -0.053931  0.005442  -0.085131  -0.186777  0.002614  3.943849  0.004
C  C134  1  0.65479706  0.54234711  0.30262709  1  0.00699  0.006614  -0.087632  -0.188814  0.003153  3.947897  0.005
C  C135  1  0.84364427  0.04147115  0.19768014  1  -0.055745  0.005432  -0.086617  -0.189754  0.002565  3.946545  0.004
N  N136  1  0.86561291  0.29603772  0.69434768  1  -1.234095  0.062718  -0.337501  -0.286452  0.033778  3.610381  0.053
N  N137  1  0.63455421  0.79610756  0.80580210  1  -1.230891  0.062399  -0.336789  -0.286162  0.033615  3.608277  0.053
N  N138  1  0.13724830  0.70240855  0.30485400  1  -1.243458  0.065565  -0.33595  -0.287729  0.0346  3.606694  0.056
N  N139  1  0.36565560  0.20392319  0.19424803  1  -1.231246  0.062299  -0.336703  -0.285659  0.033587  3.607073  0.052
N  N140  1  0.53808036  0.33389437  0.70473432  1  -1.228066  0.058263  -0.333166  -0.271957  0.031362  3.601749  0.049
N  N141  1  0.96224690  0.83388353  0.79532798  1  -1.223417  0.057892  -0.332406  -0.271647  0.03121  3.600428  0.049
N  N142  1  0.45995338  0.66685986  0.29608450  1  -1.205641  0.061254  -0.329996  -0.271971  0.032413  3.591997  0.053
N  N143  1  0.03791249  0.16604752  0.20460446  1  -1.221347  0.05747  -0.331609  -0.271083  0.030974  3.600038  0.048
O  O144  1  0.68336958  0.82698167  0.64742762  1  -1.152521  0.074256  -0.325456  -0.573809  0.038356  2.378899  0.06
O  O145  1  0.81731365  0.32613005  0.85297620  1  -1.155102  0.073432  -0.325352  -0.573958  0.037935  2.376074  0.059
O  O146  1  0.31761092  0.17400377  0.35323832  1  -1.158263  0.074086  -0.325686  -0.57517  0.038269  2.376325  0.06
O  O147  1  0.18345212  0.66908907  0.14812636  1  -1.168159  0.063187  -0.324007  -0.581402  0.033058  2.386881  0.053
O  O148  1  0.84440784  0.83639306  0.55699648  1  -1.17284  0.010576  -0.320708  -0.546494  0.004895  2.141397  0.009
O  O149  1  0.65591212  0.33574999  0.94320922  1  -1.172892  0.010422  -0.320684  -0.546408  0.004816  2.144369  0.008
O  O150  1  0.15602691  0.16445876  0.44339587  1  -1.170074  0.010251  -0.319956  -0.546102  0.004723  2.143634  0.008
O  O151  1  0.34149794  0.66505695  0.05596220  1  -1.178593  0.003356  -0.325988  -0.552108  0.00117  2.149506  0.003
O  O152  1  0.19564391  0.96996334  0.31968845  1  -1.182687  0.001732  -0.310948  -0.548465  0.000112  2.210479  0.002
O  O153  1  0.30661338  0.46637577  0.17904069  1  -1.177359  0.01195  -0.305686  -0.541484  0.005418  2.207684  0.01
O  O154  1  0.80580455  0.03177148  0.68091683  1  -1.177946  0.012381  -0.306254  -0.542332  0.005697  2.206973  0.01
O  O155  1  0.69430994  0.53124556  0.81926018  1  -1.176708  0.012525  -0.305879  -0.541651  0.005764  2.206884  0.011
O  O156  1  0.39196705  0.86383477  0.31580651  1  -1.170012  0.065346  -0.326373  -0.574617  0.034136  2.372727  0.055
O  O157  1  0.10526389  0.36602134  0.18773218  1  -1.166397  0.073341  -0.328671  -0.568912  0.037651  2.352369  0.059
O  O158  1  0.60608199  0.13416897  0.68817375  1  -1.162398  0.07304  -0.329397  -0.569692  0.037485  2.355276  0.058
O  O159  1  0.89373334  0.63378905  0.81217416  1  -1.170854  0.073138  -0.329015  -0.569954  0.037501  2.356543  0.058
O  O160  1  0.44827870  0.80035442  0.15266921  1  -1.224664  0.05797  -0.561785  -0.747588  0.030354  2.136126  0.046
O  O161  1  0.04669236  0.30280328  0.34628279  1  -1.217847  0.048051  -0.563195  -0.745269  0.024696  2.126264  0.04
O  O162  1  0.54698404  0.19721071  0.84685733  1  -1.23176  0.047766  -0.562262  -0.744146  0.024601  2.123596  0.039
O  O163  1  0.95308188  0.69720317  0.65349308  1  -1.220457  0.048053  -0.562682  -0.744326  0.024708  2.123559  0.04
O  O164  1  0.12832049  0.87503348  0.18586306  1  -1.21536  0.060551  -0.570131  -0.742062  0.031592  2.118783  0.048
O  O165  1  0.37442576  0.37404544  0.31645491  1  -1.221382  0.051236  -0.573476  -0.741654  0.02649  2.10221  0.043
O  O166  1  0.87513843  0.12571646  0.81699835  1  -1.228189  0.05101  -0.574258  -0.744116  0.026346  2.100446  0.042
O  O167  1  0.62521250  0.62629447  0.68313142  1  -1.226445  0.051052  -0.574239  -0.743314  0.026391  2.101103  0.042
