# generated using pymatgen
data_ZnPH5C5NClO3
_symmetry_space_group_name_H-M   'P 1'
_cell_length_a   4.93449016
_cell_length_b   8.28708296
_cell_length_c   20.88683163
_cell_angle_alpha   89.99994039
_cell_angle_beta   89.99999632
_cell_angle_gamma   103.78607453
_symmetry_Int_Tables_number   1
_chemical_formula_structural   ZnPH5C5NClO3
_chemical_formula_sum   'Zn4 P4 H20 C20 N4 Cl4 O12'
_cell_volume   829.51021231
_cell_formula_units_Z   4
loop_
 _symmetry_equiv_pos_site_id
 _symmetry_equiv_pos_as_xyz
  1  'x, y, z'
loop_
 _atom_site_type_symbol
 _atom_site_label
 _atom_site_symmetry_multiplicity
 _atom_site_fract_x
 _atom_site_fract_y
 _atom_site_fract_z
 _atom_site_occupancy
 _atom_site_hle17_bader_spin_density
 _atom_site_hle17_ddec_charge
 _atom_site_hle17_ddec_spin_density
 _atom_site_hle17_ddec_sum_bond_order
 _atom_site_hle17_magmom
 _atom_site_hse06_10hf_bader_spin_density
 _atom_site_hse06_10hf_ddec_charge
 _atom_site_hse06_10hf_ddec_spin_density
 _atom_site_hse06_10hf_ddec_sum_bond_order
 _atom_site_hse06_10hf_magmom
 _atom_site_hse06_bader_spin_density
 _atom_site_hse06_ddec_charge
 _atom_site_hse06_ddec_spin_density
 _atom_site_hse06_ddec_sum_bond_order
 _atom_site_hse06_magmom
 _atom_site_pbe_bader_spin_density
 _atom_site_pbe_cm5_charge
 _atom_site_pbe_ddec_charge
 _atom_site_pbe_ddec_spin_density
 _atom_site_pbe_ddec_sum_bond_order
 _atom_site_pbe_magmom
Zn  Zn0  1  0.70021331  0.66967158  0.82084431  1  0  1.173087  0  1.908267  0  0  1.00863  0  2.415201  0  0  1.051863  0  2.351415  0  0  0.633815  0.978115  0  2.459185  0
Zn  Zn1  1  0.79978698  0.83032849  0.32084360  1  0  1.173057  0  1.908232  0  0  1.008596  0  2.415153  0  0  1.051835  0  2.351368  0  0  0.633785  0.978085  0  2.459108  0
Zn  Zn2  1  0.29978502  0.33032896  0.17915635  1  0  1.173028  0  1.908302  0  0  1.00856  0  2.415235  0  0  1.051795  0  2.351453  0  0  0.633766  0.978049  0  2.459184  0
Zn  Zn3  1  0.20021337  0.16967205  0.67915658  1  0  1.173107  0  1.908204  0  0  1.008643  0  2.415132  0  0  1.05188  0  2.351347  0  0  0.633815  0.978129  0  2.459087  0
P  P4  1  0.10224901  0.42309978  0.80238968  1  0  1.459104  0  4.979394  0  0  1.292799  0  5.477669  0  0  1.345343  0  5.43616  0  0  0.35157  1.256154  0  5.505585  0
P  P5  1  0.39775327  0.07690088  0.30239003  1  0  1.45912  0  4.979451  0  0  1.292812  0  5.47773  0  0  1.345355  0  5.436221  0  0  0.35153  1.256149  0  5.505671  0
P  P6  1  0.89775338  0.57690076  0.19761003  1  0  1.459151  0  4.97942  0  0  1.292871  0  5.477693  0  0  1.345414  0  5.436181  0  0  0.351549  1.256196  0  5.505647  0
P  P7  1  0.60224961  0.92310090  0.69761064  1  0  1.459074  0  4.979465  0  0  1.292756  0  5.477746  0  0  1.345303  0  5.436236  0  0  0.351527  1.256095  0  5.505677  0
H  H8  1  0.04712865  0.44477084  0.94405357  1  0  0.117714  0  0.941795  0  0  0.128004  0  1.000249  0  0  0.130784  0  1.000016  0  0  0.115255  0.125982  0  1.000653  0
H  H9  1  0.45287036  0.05523191  0.44405489  1  0  0.117751  0  0.941803  0  0  0.128045  0  1.000251  0  0  0.130826  0  1.000018  0  0  0.115288  0.126022  0  1.000651  0
H  H10  1  0.95287680  0.55522722  0.05594470  1  0  0.117731  0  0.941834  0  0  0.12801  0  1.000296  0  0  0.13079  0  1.000064  0  0  0.115248  0.125991  0  1.000694  0
H  H11  1  0.54712945  0.94477235  0.55594673  1  0  0.117712  0  0.941793  0  0  0.12798  0  1.000267  0  0  0.130761  0  1.000034  0  0  0.115249  0.125958  0  1.000666  0
H  H12  1  0.66980491  0.29164643  0.01934418  1  0  0.104077  0  0.944273  0  0  0.111845  0  1.008107  0  0  0.11493  0  1.005061  0  0  0.105118  0.109555  0  1.010336  0
H  H13  1  0.83019162  0.20835617  0.51934440  1  0  0.104061  0  0.944301  0  0  0.111831  0  1.008132  0  0  0.114917  0  1.005085  0  0  0.105102  0.10954  0  1.010356  0
H  H14  1  0.33019392  0.70835535  0.98065553  1  0  0.104061  0  0.94429  0  0  0.11183  0  1.00812  0  0  0.114916  0  1.005073  0  0  0.105103  0.109539  0  1.010347  0
H  H15  1  0.16980720  0.79164561  0.48065627  1  0  0.104099  0  0.944269  0  0  0.111866  0  1.008104  0  0  0.114951  0  1.005059  0  0  0.105128  0.109574  0  1.010327  0
H  H16  1  0.27708441  0.07369384  0.97462315  1  0  0.117465  0  0.957778  0  0  0.124531  0  1.019428  0  0  0.127392  0  1.019659  0  0  0.102588  0.122458  0  1.019482  0
H  H17  1  0.22291714  0.42630510  0.47462336  1  0  0.117449  0  0.957772  0  0  0.124521  0  1.01942  0  0  0.127382  0  1.019651  0  0  0.10258  0.122448  0  1.019478  0
H  H18  1  0.72291392  0.92630670  0.02537608  1  0  0.117429  0  0.957808  0  0  0.124494  0  1.019463  0  0  0.127356  0  1.019695  0  0  0.102568  0.122423  0  1.019521  0
H  H19  1  0.77708881  0.57369420  0.52537683  1  0  0.117418  0  0.957731  0  0  0.124486  0  1.019402  0  0  0.127348  0  1.019634  0  0  0.10257  0.122416  0  1.019455  0
H  H20  1  0.27792207  0.00802390  0.85690210  1  0  0.103659  0  0.942679  0  0  0.110038  0  1.007996  0  0  0.113375  0  1.004458  0  0  0.121828  0.107522  0  1.010644  0
H  H21  1  0.22207915  0.49197412  0.35690180  1  0  0.103685  0  0.942716  0  0  0.110062  0  1.008044  0  0  0.113398  0  1.004509  0  0  0.121843  0.107549  0  1.010691  0
H  H22  1  0.72207122  0.99197414  0.14309761  1  0  0.103685  0  0.942689  0  0  0.110073  0  1.008006  0  0  0.113396  0  1.004485  0  0  0.121836  0.107557  0  1.010658  0
H  H23  1  0.77792378  0.50802269  0.64309838  1  0  0.103659  0  0.942672  0  0  0.110049  0  1.007972  0  0  0.113378  0  1.004444  0  0  0.121833  0.107539  0  1.010622  0
H  H24  1  0.62110506  0.15782542  0.79191136  1  0  0.317806  0  0.898615  0  0  0.29439  0  0.962196  0  0  0.30314  0  0.95589  0  0  0.317212  0.288224  0  0.966671  0
H  H25  1  0.87889569  0.34217268  0.29191160  1  0  0.317824  0  0.898595  0  0  0.294441  0  0.962151  0  0  0.303191  0  0.955841  0  0  0.317239  0.288273  0  0.96663  0
H  H26  1  0.37888927  0.84217014  0.20808787  1  0  0.317814  0  0.898673  0  0  0.294425  0  0.962193  0  0  0.303176  0  0.955886  0  0  0.317281  0.288256  0  0.966678  0
H  H27  1  0.12110418  0.65782661  0.70808907  1  0  0.317836  0  0.898587  0  0  0.294429  0  0.962155  0  0  0.303179  0  0.955849  0  0  0.317233  0.288265  0  0.966632  0
C  C28  1  0.85630520  0.31136070  0.86198179  1  0  -0.030022  0  3.625856  0  0  -0.016998  0  3.874347  0  0  -0.016653  0  3.891449  0  0  0.123846  -0.017185  0  3.863148  0
C  C29  1  0.64369440  0.18863970  0.36198162  1  0  -0.030093  0  3.625833  0  0  -0.017025  0  3.874328  0  0  -0.016684  0  3.891438  0  0  0.123833  -0.017218  0  3.863142  0
C  C30  1  0.14369214  0.68863735  0.13801792  1  0  -0.029976  0  3.62571  0  0  -0.016999  0  3.874259  0  0  -0.016662  0  3.891376  0  0  0.123868  -0.017183  0  3.863073  0
C  C31  1  0.35630798  0.81136084  0.63801857  1  0  -0.030037  0  3.625853  0  0  -0.017015  0  3.874352  0  0  -0.016674  0  3.891461  0  0  0.123815  -0.017202  0  3.863162  0
C  C32  1  0.87152612  0.34880586  0.92699930  1  0  -0.082003  0  3.702951  0  0  -0.104057  0  3.952132  0  0  -0.110413  0  3.974094  0  0  -0.063267  -0.100172  0  3.937649  0
C  C33  1  0.62846934  0.15119435  0.42699962  1  0  -0.081972  0  3.702907  0  0  -0.104043  0  3.952091  0  0  -0.110399  0  3.974056  0  0  -0.063262  -0.100157  0  3.937602  0
C  C34  1  0.12847122  0.65119219  0.07299945  1  0  -0.082011  0  3.702864  0  0  -0.10407  0  3.952102  0  0  -0.110421  0  3.97406  0  0  -0.063253  -0.100188  0  3.937619  0
C  C35  1  0.37152849  0.84880494  0.57300200  1  0  -0.08202  0  3.702989  0  0  -0.104046  0  3.952164  0  0  -0.110402  0  3.974128  0  0  -0.063271  -0.100159  0  3.937671  0
C  C36  1  0.66292775  0.26400041  0.96824014  1  0  0.031294  0  3.643799  0  0  0.010825  0  3.892001  0  0  0.016548  0  3.907341  0  0  -0.047147  0.007378  0  3.881595  0
C  C37  1  0.83707269  0.23600217  0.46824042  1  0  0.031271  0  3.643927  0  0  0.010811  0  3.892127  0  0  0.01653  0  3.907475  0  0  -0.047153  0.00737  0  3.881707  0
C  C38  1  0.33707261  0.73600012  0.03175909  1  0  0.031307  0  3.643807  0  0  0.010862  0  3.89198  0  0  0.016584  0  3.907321  0  0  -0.047128  0.007416  0  3.881567  0
C  C39  1  0.16293018  0.76399962  0.53176024  1  0  0.031295  0  3.643807  0  0  0.010838  0  3.892008  0  0  0.016562  0  3.907345  0  0  -0.047118  0.007395  0  3.881589  0
C  C40  1  0.44358987  0.14105790  0.94384633  1  0  -0.10063  0  3.694286  0  0  -0.113651  0  3.949157  0  0  -0.121487  0  3.970681  0  0  -0.0707  -0.108832  0  3.934926  0
C  C41  1  0.05640766  0.35894112  0.44384752  1  0  -0.100531  0  3.694257  0  0  -0.113543  0  3.949121  0  0  -0.121379  0  3.970647  0  0  -0.070633  -0.108728  0  3.934894  0
C  C42  1  0.55640797  0.85894140  0.05615194  1  0  -0.100519  0  3.694269  0  0  -0.113544  0  3.949152  0  0  -0.121379  0  3.970673  0  0  -0.070617  -0.108725  0  3.93492  0
C  C43  1  0.94359374  0.64105693  0.55615362  1  0  -0.100536  0  3.694208  0  0  -0.113583  0  3.949112  0  0  -0.121418  0  3.970635  0  0  -0.070683  -0.108767  0  3.934885  0
C  C44  1  0.43972907  0.10420246  0.87913044  1  0  0.163839  0  3.592361  0  0  0.119667  0  3.851056  0  0  0.128465  0  3.865243  0  0  0.074514  0.113973  0  3.841593  0
C  C45  1  0.06027513  0.39579799  0.37912970  1  0  0.16376  0  3.592345  0  0  0.119591  0  3.851091  0  0  0.12839  0  3.865279  0  0  0.074512  0.113897  0  3.841634  0
C  C46  1  0.56027080  0.89579683  0.12087022  1  0  0.163789  0  3.592357  0  0  0.119596  0  3.851076  0  0  0.128406  0  3.865266  0  0  0.074477  0.113901  0  3.84162  0
C  C47  1  0.93973081  0.60420131  0.62087000  1  0  0.163828  0  3.592319  0  0  0.11967  0  3.851023  0  0  0.128476  0  3.865212  0  0  0.074514  0.113966  0  3.84158  0
N  N48  1  0.64195076  0.18928048  0.84071914  1  0  -0.189823  0  3.485506  0  0  -0.122174  0  3.699369  0  0  -0.136629  0  3.717669  0  0  -0.327429  -0.112704  0  3.68719  0
N  N49  1  0.85805244  0.31071873  0.34071939  1  0  -0.189823  0  3.485461  0  0  -0.122267  0  3.699426  0  0  -0.13672  0  3.717725  0  0  -0.327515  -0.112796  0  3.687255  0
N  N50  1  0.35804861  0.81071757  0.15928057  1  0  -0.189937  0  3.485528  0  0  -0.122287  0  3.699438  0  0  -0.136739  0  3.717732  0  0  -0.327539  -0.112816  0  3.687271  0
N  N51  1  0.14195148  0.68928057  0.65928080  1  0  -0.189878  0  3.485478  0  0  -0.122252  0  3.699367  0  0  -0.136708  0  3.717666  0  0  -0.327452  -0.112781  0  3.687199  0
Cl  Cl52  1  0.85874549  0.80428636  0.90982427  1  0  -0.609993  0  0.902082  0  0  -0.546882  0  1.178669  0  0  -0.564528  0  1.153881  0  0  -0.303668  -0.533934  0  1.195717  0
Cl  Cl53  1  0.64125819  0.69571719  0.40982457  1  0  -0.609972  0  0.902079  0  0  -0.546868  0  1.178685  0  0  -0.564505  0  1.153878  0  0  -0.303655  -0.533927  0  1.195726  0
Cl  Cl54  1  0.14125739  0.19571542  0.09017544  1  0  -0.609964  0  0.902081  0  0  -0.546852  0  1.178675  0  0  -0.56449  0  1.153876  0  0  -0.303652  -0.53391  0  1.195717  0
Cl  Cl55  1  0.35874469  0.30428459  0.59017561  1  0  -0.60998  0  0.902067  0  0  -0.546878  0  1.178664  0  0  -0.564518  0  1.153866  0  0  -0.30366  -0.533936  0  1.195708  0
O  O56  1  0.97206309  0.56248746  0.77673712  1  0  -0.857656  0  2.075855  0  0  -0.759898  0  2.356809  0  0  -0.788804  0  2.331879  0  0  -0.369991  -0.739504  0  2.373506  0
O  O57  1  0.52793776  0.93751398  0.27673636  1  0  -0.857642  0  2.075841  0  0  -0.759881  0  2.35678  0  0  -0.788788  0  2.33185  0  0  -0.369997  -0.739474  0  2.373466  0
O  O58  1  0.02793524  0.43751308  0.22326355  1  0  -0.857649  0  2.075851  0  0  -0.759896  0  2.356798  0  0  -0.788796  0  2.331863  0  0  -0.369973  -0.739482  0  2.373483  0
O  O59  1  0.47206512  0.06248780  0.72326334  1  0  -0.857656  0  2.075881  0  0  -0.759894  0  2.356841  0  0  -0.788805  0  2.331915  0  0  -0.369983  -0.739487  0  2.373523  0
O  O60  1  0.37220360  0.48765764  0.83949965  1  0  -0.858162  0  2.070341  0  0  -0.768511  0  2.368502  0  0  -0.797314  0  2.34505  0  0  -0.377899  -0.748033  0  2.384025  0
O  O61  1  0.12779709  0.01234416  0.33949859  1  0  -0.858157  0  2.070381  0  0  -0.768487  0  2.36853  0  0  -0.797291  0  2.345077  0  0  -0.37786  -0.748007  0  2.384057  0
O  O62  1  0.62779473  0.51234290  0.16050054  1  0  -0.858186  0  2.070352  0  0  -0.768512  0  2.368487  0  0  -0.797317  0  2.345034  0  0  -0.377894  -0.748029  0  2.384012  0
O  O63  1  0.87220326  0.98765637  0.66050112  1  0  -0.858169  0  2.07034  0  0  -0.768497  0  2.368491  0  0  -0.797304  0  2.345038  0  0  -0.377878  -0.748018  0  2.384013  0
O  O64  1  0.10866780  0.29430332  0.75133026  1  0  -0.859781  0  2.086331  0  0  -0.768579  0  2.397026  0  0  -0.796038  0  2.367465  0  0  -0.385657  -0.749017  0  2.416749  0
O  O65  1  0.39133553  0.20569998  0.25133056  1  0  -0.859763  0  2.08631  0  0  -0.768571  0  2.397008  0  0  -0.796033  0  2.367456  0  0  -0.385644  -0.749005  0  2.416738  0
O  O66  1  0.89133507  0.70569847  0.24866849  1  0  -0.85978  0  2.086317  0  0  -0.768593  0  2.397009  0  0  -0.796056  0  2.367455  0  0  -0.385645  -0.749023  0  2.416742  0
O  O67  1  0.60866532  0.79430180  0.74867011  1  0  -0.859722  0  2.086283  0  0  -0.768525  0  2.39699  0  0  -0.795977  0  2.367413  0  0  -0.385618  -0.748957  0  2.416719  0
