# generated using pymatgen
data_NiH11C12N3O5
_symmetry_space_group_name_H-M   'P 1'
_cell_length_a   8.69156345
_cell_length_b   11.60834242
_cell_length_c   13.85137818
_cell_angle_alpha   104.41930328
_cell_angle_beta   90.00016364
_cell_angle_gamma   89.99995125
_symmetry_Int_Tables_number   1
_chemical_formula_structural   NiH11C12N3O5
_chemical_formula_sum   'Ni4 H44 C48 N12 O20'
_cell_volume   1353.50673933
_cell_formula_units_Z   4
loop_
 _symmetry_equiv_pos_site_id
 _symmetry_equiv_pos_as_xyz
  1  'x, y, z'
loop_
 _atom_site_type_symbol
 _atom_site_label
 _atom_site_symmetry_multiplicity
 _atom_site_fract_x
 _atom_site_fract_y
 _atom_site_fract_z
 _atom_site_occupancy
 _atom_site_hle17_ddec_charge
 _atom_site_hle17_ddec_spin_density
 _atom_site_hle17_ddec_sum_bond_order
 _atom_site_hle17_magmom
 _atom_site_hse06_10hf_ddec_charge
 _atom_site_hse06_10hf_ddec_spin_density
 _atom_site_hse06_10hf_ddec_sum_bond_order
 _atom_site_hse06_10hf_magmom
 _atom_site_hse06_ddec_charge
 _atom_site_hse06_ddec_spin_density
 _atom_site_hse06_ddec_sum_bond_order
 _atom_site_hse06_magmom
 _atom_site_pbe_cm5_charge
 _atom_site_pbe_ddec_charge
 _atom_site_pbe_ddec_spin_density
 _atom_site_pbe_ddec_sum_bond_order
 _atom_site_pbe_magmom
Ni  Ni0  1  0.63131315  0.18582517  0.96921915  1  0.831772  -1.750855  1.99485  -1.481  0.839847  -1.810496  2.387435  -1.61  0.938626  -1.868495  2.306553  -1.702  0.630084  0.766715  -1.7586  2.448064  -1.531
Ni  Ni1  1  0.13131343  0.31417476  0.53078153  1  0.831761  -1.750853  1.994857  -1.481  0.839817  -1.810495  2.387469  -1.61  0.9386  -1.868494  2.306577  -1.702  0.630081  0.76668  -1.758615  2.448107  -1.531
Ni  Ni2  1  0.36868471  0.81417625  0.03077968  1  0.831728  -1.750858  1.994987  -1.481  0.839819  -1.810497  2.387564  -1.61  0.938579  -1.868496  2.306713  -1.702  0.63008  0.766689  -1.758596  2.448189  -1.531
Ni  Ni3  1  0.86868444  0.68582308  0.46921942  1  0.83177  -1.750857  1.994901  -1.481  0.839843  -1.810497  2.387496  -1.61  0.938598  -1.868498  2.306656  -1.702  0.630079  0.766707  -1.758596  2.44813  -1.531
H  H4  1  0.60656311  0.06588101  0.10519701  1  0.419588  0.000203  0.885188  0.001  0.394193  -0.0003  0.94199  0.0  0.406162  -2.9e-05  0.924954  0.0  0.290582  0.385672  -0.000592  0.954058  -0.001
H  H5  1  0.10656031  0.43411834  0.39480411  1  0.419594  0.000204  0.885177  0.001  0.394201  -0.0003  0.941978  0.0  0.40617  -2.9e-05  0.924941  0.0  0.290585  0.385681  -0.000595  0.954044  -0.001
H  H6  1  0.39344051  0.93411951  0.89480379  1  0.419618  0.000203  0.885162  0.001  0.394224  -0.0003  0.941958  0.0  0.406196  -2.9e-05  0.924917  0.0  0.290595  0.385703  -0.000593  0.954026  -0.001
H  H7  1  0.89344216  0.56587951  0.60519613  1  0.419631  0.000203  0.885163  0.001  0.394238  -0.0003  0.941952  0.0  0.40621  -2.9e-05  0.924911  0.0  0.29061  0.385714  -0.000594  0.954024  -0.001
H  H8  1  0.55223802  0.20079186  0.14180579  1  0.401717  0.000557  0.917448  0.001  0.37032  -8e-06  0.983262  0.0  0.382817  0.000172  0.965492  0.0  0.278745  0.361472  -0.0002  0.995806  0.0
H  H9  1  0.05223521  0.29920928  0.35819489  1  0.401699  0.000557  0.917464  0.001  0.370313  -8e-06  0.983267  0.0  0.38281  0.000172  0.965496  0.0  0.278747  0.361467  -0.000201  0.995806  0.0
H  H10  1  0.44776444  0.79920867  0.85819357  1  0.401713  0.000557  0.91746  0.001  0.370313  -8e-06  0.983277  0.0  0.382809  0.000171  0.965508  0.0  0.278754  0.361466  -0.000201  0.99582  0.0
H  H11  1  0.94776726  0.70078945  0.64180626  1  0.401717  0.000557  0.917447  0.001  0.370333  -8e-06  0.983243  0.0  0.38283  0.000171  0.965473  0.0  0.278761  0.361483  -0.000202  0.995788  0.0
H  H12  1  0.27749987  0.12983269  0.42038296  1  0.271596  0.002273  0.869596  0.002  0.271572  0.000867  0.91127  0.001  0.276191  0.000926  0.910286  0.001  0.320278  0.268241  0.000772  0.912106  0.001
H  H13  1  0.77750105  0.37016576  0.07961755  1  0.271643  0.002272  0.869517  0.002  0.271612  0.000867  0.911196  0.001  0.276233  0.000926  0.91021  0.001  0.320307  0.268281  0.000771  0.912032  0.001
H  H14  1  0.72249915  0.87016695  0.57961693  1  0.271594  0.002272  0.869595  0.002  0.271562  0.000867  0.911269  0.001  0.276183  0.000926  0.910282  0.001  0.320284  0.268226  0.00077  0.91211  0.001
H  H15  1  0.22250026  0.62983386  0.92038379  1  0.271592  0.002271  0.869595  0.002  0.27157  0.000867  0.911274  0.001  0.276191  0.000926  0.910287  0.001  0.320274  0.268231  0.000772  0.912116  0.001
H  H16  1  0.54478474  0.60416315  0.71189964  1  0.301806  -0.00048  0.938356  -0.001  0.280633  -0.000373  1.003625  -0.001  0.289364  -0.000288  0.996605  -0.001  0.306548  0.274385  -0.00045  1.008776  -0.001
H  H17  1  0.04478380  0.89583502  0.78809875  1  0.301791  -0.000481  0.938354  -0.001  0.28069  -0.000373  1.003552  -0.001  0.28942  -0.000288  0.996527  -0.001  0.30655  0.274439  -0.00045  1.008707  -0.001
H  H18  1  0.45521773  0.39583739  0.28809828  1  0.301835  -0.00048  0.938323  -0.001  0.280724  -0.000373  1.003519  -0.001  0.289458  -0.000288  0.99649  -0.001  0.306563  0.274476  -0.000451  1.008672  -0.001
H  H19  1  0.95521867  0.10416373  0.21190023  1  0.301819  -0.00048  0.938339  -0.001  0.2807  -0.000373  1.003545  -0.001  0.28943  -0.000288  0.996521  -0.001  0.306564  0.274453  -0.00045  1.008698  -0.001
H  H20  1  0.47816852  0.22115661  0.66084476  1  0.117662  0.000478  0.955801  0.001  0.126144  -0.000341  1.018035  0.0  0.130216  -0.000206  1.015163  0.0  0.110949  0.123172  -0.00048  1.020186  0.0
H  H21  1  0.97816524  0.27884151  0.83915472  1  0.117627  0.000476  0.955897  0.001  0.126083  -0.000341  1.018158  0.0  0.130154  -0.000206  1.015287  0.0  0.110912  0.123135  -0.000473  1.020273  0.0
H  H22  1  0.52183165  0.77883681  0.33915164  1  0.117593  0.000477  0.955852  0.001  0.126099  -0.000341  1.018061  0.0  0.130171  -0.000206  1.01519  0.0  0.110924  0.123135  -0.000472  1.02019  0.0
H  H23  1  0.02183032  0.72116167  0.16084666  1  0.117644  0.000476  0.955768  0.001  0.12613  -0.000341  1.018003  0.0  0.130201  -0.000206  1.015131  0.0  0.110903  0.123145  -0.000452  1.020133  0.0
H  H24  1  0.29744366  0.92189636  0.75491378  1  0.103006  -3.1e-05  0.995351  0.001  0.109691  -0.000842  1.066882  0.0  0.114201  -0.00059  1.062501  0.0  0.104188  0.106303  -0.001099  1.070192  0.0
H  H25  1  0.79744363  0.57810443  0.74508851  1  0.102986  -2.5e-05  0.995393  0.001  0.109661  -0.000842  1.06694  0.0  0.11417  -0.00059  1.062558  0.0  0.104178  0.106292  -0.001097  1.070225  0.0
H  H26  1  0.70255306  0.07810503  0.24508938  1  0.102979  -2.5e-05  0.995424  0.001  0.109664  -0.000842  1.066954  0.0  0.114173  -0.00059  1.062573  0.0  0.104167  0.106273  -0.001095  1.07026  0.0
H  H27  1  0.20255538  0.42189609  0.25491301  1  0.102979  -3e-05  0.995393  0.001  0.109672  -0.000842  1.066911  0.0  0.114181  -0.00059  1.06253  0.0  0.104169  0.106271  -0.001081  1.070213  0.0
H  H28  1  0.14772884  0.98438005  0.47726800  1  0.121868  0.000792  0.934203  0.001  0.130987  1.8e-05  0.995262  0.0  0.135193  3.6e-05  0.9917  0.0  0.113074  0.127867  2e-06  0.997989  0.0
H  H29  1  0.64772787  0.51562107  0.02273325  1  0.12188  0.000794  0.934203  0.001  0.131017  1.8e-05  0.995239  0.0  0.135222  3.6e-05  0.991675  0.0  0.113069  0.127894  2e-06  0.997967  0.0
H  H30  1  0.85227018  0.01561779  0.52273368  1  0.12186  0.000798  0.934207  0.001  0.13099  1.8e-05  0.995245  0.0  0.1352  3.6e-05  0.991684  0.0  0.113052  0.127864  2e-06  0.99798  0.0
H  H31  1  0.35227229  0.48438389  0.97726922  1  0.121905  0.000796  0.934229  0.001  0.13101  1.8e-05  0.995293  0.0  0.135221  3.6e-05  0.991733  0.0  0.113059  0.127877  1e-06  0.998035  0.0
H  H32  1  0.45352792  0.25771002  0.40009953  1  0.089288  4.1e-05  0.913518  0.0  0.105025  5.6e-05  0.972629  0.0  0.105837  6e-05  0.97201  0.0  0.115392  0.10437  4.5e-05  0.973203  0.0
H  H33  1  0.95353279  0.24228930  0.09990077  1  0.089285  4.2e-05  0.913417  0.0  0.105011  5.6e-05  0.972533  0.0  0.105823  6e-05  0.971914  0.0  0.115385  0.104355  4.6e-05  0.973109  0.0
H  H34  1  0.54646880  0.74229138  0.59990219  1  0.089336  4.5e-05  0.913473  0.0  0.105076  5.6e-05  0.972576  0.0  0.10589  6.1e-05  0.971956  0.0  0.115407  0.104411  4.9e-05  0.973157  0.0
H  H35  1  0.04647197  0.75771034  0.90009769  1  0.089372  4.2e-05  0.913492  0.0  0.105108  5.6e-05  0.972567  0.0  0.10592  6.1e-05  0.971948  0.0  0.115423  0.104445  4.5e-05  0.973151  0.0
H  H36  1  0.55848855  0.19628154  0.48551495  1  0.078786  -0.001524  0.934884  -0.002  0.09396  -0.000921  0.995972  -0.001  0.093703  -0.000603  0.997298  -0.001  0.107439  0.09417  -0.001228  0.995101  -0.001
H  H37  1  0.05849106  0.30371786  0.01448032  1  0.078797  -0.001523  0.934882  -0.002  0.093988  -0.000921  0.995921  -0.001  0.093731  -0.000603  0.997247  -0.001  0.107449  0.0942  -0.00123  0.995054  -0.001
H  H38  1  0.44151162  0.80371810  0.51448423  1  0.078779  -0.001522  0.934887  -0.002  0.093966  -0.000921  0.99596  -0.001  0.09371  -0.000603  0.997287  -0.001  0.107434  0.09417  -0.001227  0.995095  -0.001
H  H39  1  0.94151140  0.69628270  0.98551399  1  0.078798  -0.001522  0.934854  -0.002  0.093966  -0.000921  0.995922  -0.001  0.09371  -0.000603  0.997248  -0.001  0.107427  0.094177  -0.001229  0.995056  -0.001
H  H40  1  0.69162928  0.42804359  0.59834156  1  0.126249  -0.000386  0.968361  0.0  0.135404  -0.000356  1.028033  0.0  0.138673  -0.00024  1.02651  0.0  0.123232  0.132884  -0.000473  1.029394  0.0
H  H41  1  0.19162922  0.07195546  0.90165616  1  0.12625  -0.000389  0.968331  0.0  0.135404  -0.000356  1.028006  0.0  0.138674  -0.00024  1.026482  0.0  0.12323  0.13288  -0.000472  1.02937  0.0
H  H42  1  0.30837204  0.57195874  0.40165458  1  0.126281  -0.000385  0.968279  0.0  0.135414  -0.000356  1.027973  0.0  0.138682  -0.00024  1.026453  0.0  0.123233  0.132887  -0.000472  1.029339  0.0
H  H43  1  0.80837094  0.92804418  0.09834229  1  0.126183  -0.000389  0.968251  0.0  0.135335  -0.000356  1.027947  0.0  0.138604  -0.00024  1.026424  0.0  0.123205  0.132811  -0.000472  1.029311  0.0
H  H44  1  0.25490818  0.58639926  0.67987119  1  0.097064  -8e-05  0.927345  -0.001  0.106636  -8.7e-05  0.986743  0.0  0.109633  -4.9e-05  0.982404  0.0  0.134766  0.10417  -0.000117  0.990286  -0.001
H  H45  1  0.75490696  0.91359710  0.82012792  1  0.097109  -8e-05  0.927307  -0.001  0.106636  -8.7e-05  0.986757  0.0  0.109632  -4.9e-05  0.982419  0.0  0.134754  0.104168  -0.000118  0.990301  -0.001
H  H46  1  0.74509199  0.41360036  0.32013087  1  0.09705  -8e-05  0.927358  -0.001  0.106626  -8.7e-05  0.986751  0.0  0.109622  -4.9e-05  0.982414  0.0  0.13476  0.104156  -0.000117  0.990298  -0.001
H  H47  1  0.24509436  0.08639898  0.17986977  1  0.097101  -8.1e-05  0.927316  -0.001  0.10664  -8.7e-05  0.986755  0.0  0.109636  -4.8e-05  0.982419  0.0  0.134761  0.104173  -0.000117  0.990299  -0.001
C  C48  1  0.31580401  0.10993458  0.55885945  1  0.223418  0.020601  3.765994  0.015  0.220841  0.007307  4.034673  0.005  0.225847  0.008202  4.057513  0.006  0.090134  0.216847  0.005835  4.019498  0.005
C  C49  1  0.81580222  0.39006534  0.94114156  1  0.22338  0.020591  3.766007  0.015  0.220771  0.007307  4.034716  0.005  0.225777  0.008203  4.057557  0.006  0.090105  0.216777  0.005839  4.019542  0.005
C  C50  1  0.68419731  0.89006328  0.44113934  1  0.22345  0.020608  3.766059  0.015  0.220863  0.007308  4.03473  0.005  0.225872  0.008201  4.057568  0.006  0.090143  0.216865  0.005835  4.019564  0.005
C  C51  1  0.18419910  0.60993518  0.05885997  1  0.223428  0.020589  3.766025  0.015  0.220863  0.007308  4.03468  0.005  0.22587  0.008202  4.05752  0.006  0.090155  0.216854  0.005845  4.019514  0.005
C  C52  1  0.40510803  0.14252408  0.64543712  1  -0.121664  -0.016499  3.639067  -0.019  -0.157375  -0.006888  3.887426  -0.008  -0.156422  -0.005499  3.902957  -0.007  -0.077687  -0.15793  -0.008406  3.87744  -0.009
C  C53  1  0.90510358  0.35747494  0.85456314  1  -0.121559  -0.016491  3.639148  -0.019  -0.157226  -0.006887  3.887499  -0.008  -0.156275  -0.0055  3.903033  -0.007  -0.077607  -0.157804  -0.008397  3.877492  -0.009
C  C54  1  0.59489329  0.85747200  0.35456202  1  -0.121561  -0.016502  3.639065  -0.019  -0.157261  -0.006888  3.887377  -0.008  -0.15631  -0.005499  3.902908  -0.007  -0.077619  -0.157828  -0.008399  3.877376  -0.009
C  C55  1  0.09489428  0.64252557  0.14543910  1  -0.121678  -0.01649  3.639057  -0.019  -0.157372  -0.006887  3.887383  -0.008  -0.156418  -0.0055  3.902913  -0.007  -0.077684  -0.157942  -0.008376  3.877382  -0.009
C  C56  1  0.39735818  0.07559655  0.71662866  1  -0.050826  0.010987  3.786686  0.007  -0.021856  0.000795  4.018218  0.0  -0.028775  0.00222  4.038502  0.001  -0.01792  -0.017801  -0.000299  4.005416  0.0
C  C57  1  0.89735679  0.42440601  0.78337379  1  -0.050923  0.010975  3.786848  0.007  -0.021968  0.000795  4.018397  0.0  -0.028882  0.002222  4.038681  0.001  -0.017965  -0.017917  -0.000303  4.005605  0.0
C  C58  1  0.60264083  0.92440663  0.28337416  1  -0.0509  0.010995  3.786785  0.007  -0.021959  0.000795  4.018357  0.0  -0.028873  0.00222  4.03864  0.001  -0.017996  -0.017914  -0.000288  4.005555  0.0
C  C59  1  0.10264338  0.57559539  0.21662793  1  -0.050842  0.010972  3.786801  0.007  -0.021892  0.000793  4.018349  0.0  -0.02881  0.002221  4.03863  0.001  -0.017946  -0.017855  -0.000276  4.005552  0.0
C  C60  1  0.30222170  0.97568528  0.70092715  1  -0.099319  -0.017053  3.72765  -0.019  -0.145236  -0.007508  3.985663  -0.008  -0.143886  -0.005833  4.004926  -0.007  -0.091953  -0.14582  -0.009539  3.972817  -0.01
C  C61  1  0.80221853  0.52431552  0.79907299  1  -0.099213  -0.017054  3.72773  -0.019  -0.145128  -0.007508  3.985755  -0.008  -0.14378  -0.005834  4.00502  -0.007  -0.091931  -0.145733  -0.009535  3.972896  -0.01
C  C62  1  0.69777847  0.02431702  0.29907331  1  -0.099221  -0.017064  3.727735  -0.019  -0.145137  -0.007507  3.985738  -0.008  -0.143787  -0.005833  4.005004  -0.007  -0.091917  -0.145737  -0.009508  3.972892  -0.01
C  C63  1  0.19778163  0.47568589  0.20092801  1  -0.099235  -0.017047  3.72775  -0.019  -0.145157  -0.007507  3.985776  -0.008  -0.14381  -0.005834  4.005038  -0.007  -0.091958  -0.145754  -0.00951  3.972928  -0.01
C  C64  1  0.21244020  0.94371720  0.61465883  1  -0.059343  0.009319  3.794014  0.005  -0.035046  0.000228  4.034605  -0.001  -0.043454  0.001566  4.056957  0.001  -0.021986  -0.029618  -0.000854  4.019756  -0.001
C  C65  1  0.71243970  0.55628272  0.88534096  1  -0.059378  0.009309  3.794013  0.005  -0.035068  0.000228  4.034614  -0.001  -0.04348  0.001567  4.056973  0.001  -0.021984  -0.029644  -0.000853  4.019769  -0.001
C  C66  1  0.78755881  0.05628243  0.38534106  1  -0.059333  0.009332  3.794053  0.005  -0.035034  0.000229  4.034619  -0.001  -0.04345  0.001566  4.056987  0.001  -0.021952  -0.029613  -0.000861  4.019772  -0.002
C  C67  1  0.28756047  0.44371869  0.11465859  1  -0.059381  0.009306  3.794015  0.005  -0.035094  0.000228  4.034618  -0.001  -0.043496  0.001566  4.056965  0.001  -0.021964  -0.029676  -0.000861  4.019778  -0.002
C  C68  1  0.21978793  0.01026736  0.54355394  1  -0.131021  -0.015408  3.660607  -0.018  -0.170799  -0.005468  3.920636  -0.006  -0.170029  -0.004472  3.936171  -0.005  -0.078964  -0.171105  -0.006547  3.910452  -0.007
C  C69  1  0.71978725  0.48973167  0.95644671  1  -0.131025  -0.015404  3.660568  -0.018  -0.170811  -0.005469  3.920602  -0.006  -0.170038  -0.004474  3.936135  -0.005  -0.078964  -0.171119  -0.006544  3.910415  -0.007
C  C70  1  0.78020648  0.98973138  0.45644721  1  -0.131028  -0.015421  3.660659  -0.018  -0.170822  -0.00547  3.920678  -0.006  -0.170057  -0.004473  3.936222  -0.005  -0.078977  -0.171133  -0.006548  3.910508  -0.007
C  C71  1  0.28021176  0.51026885  0.04355337  1  -0.131034  -0.015404  3.660715  -0.018  -0.170802  -0.005469  3.920731  -0.006  -0.170043  -0.004473  3.936272  -0.005  -0.07898  -0.171119  -0.006533  3.910573  -0.007
C  C72  1  0.45473962  0.24701297  0.47671450  1  -0.009558  0.00375  3.660945  0.004  -0.072694  0.00098  3.924622  0.001  -0.067744  0.001227  3.936226  0.001  -0.055085  -0.076055  0.000654  3.916587  0.001
C  C73  1  0.95474068  0.25298459  0.02328325  1  -0.009627  0.00374  3.660871  0.004  -0.072721  0.00098  3.924505  0.001  -0.06777  0.001227  3.936109  0.001  -0.055112  -0.076094  0.000655  3.916491  0.001
C  C74  1  0.54525825  0.75298577  0.52328593  1  -0.009638  0.003731  3.660862  0.004  -0.072778  0.00098  3.924581  0.001  -0.067827  0.001226  3.93618  0.001  -0.055139  -0.076144  0.000659  3.916564  0.001
C  C75  1  0.04525948  0.74701418  0.97671285  1  -0.009757  0.003737  3.66088  0.004  -0.072823  0.00098  3.924492  0.001  -0.067871  0.001227  3.936091  0.001  -0.055153  -0.076198  0.000657  3.916485  0.001
C  C76  1  0.45265033  0.36544614  0.55002345  1  0.125746  0.004113  3.771302  0.002  0.131913  0.001326  4.034025  0.0  0.134565  0.002078  4.059006  0.001  0.073509  0.129875  0.000748  4.017418  0.0
C  C77  1  0.95265003  0.13455199  0.94997454  1  0.125745  0.004109  3.771332  0.002  0.131873  0.001323  4.034081  0.0  0.134524  0.002079  4.059065  0.001  0.073496  0.129837  0.000747  4.017481  0.0
C  C78  1  0.54734983  0.63455259  0.44997770  1  0.125808  0.004113  3.771265  0.002  0.131882  0.001325  4.034122  0.0  0.134535  0.002079  4.0591  0.001  0.073482  0.129843  0.000756  4.017518  0.0
C  C79  1  0.04735128  0.86544766  0.05002247  1  0.125734  0.004114  3.771461  0.002  0.131838  0.001325  4.034226  0.0  0.134488  0.00208  4.059211  0.001  0.073477  0.12981  0.000753  4.017614  0.0
C  C80  1  0.56758485  0.43796025  0.59965101  1  -0.044228  -0.0029  3.631141  -0.003  -0.087789  -0.001146  3.88615  -0.001  -0.086202  -0.001072  3.90338  -0.001  0.004825  -0.088921  -0.00132  3.875159  -0.001
C  C81  1  0.06758365  0.06203792  0.90034774  1  -0.044198  -0.002892  3.631094  -0.003  -0.087735  -0.001145  3.88613  -0.001  -0.086154  -0.001072  3.903361  -0.001  0.004837  -0.088873  -0.001314  3.875147  -0.001
C  C82  1  0.43241762  0.56203940  0.40034672  1  -0.044261  -0.002902  3.631128  -0.003  -0.087779  -0.001146  3.886183  -0.001  -0.086191  -0.001072  3.903416  -0.001  0.004832  -0.088919  -0.001312  3.875201  -0.001
C  C83  1  0.93241882  0.93796172  0.09965071  1  -0.044077  -0.002893  3.631066  -0.003  -0.087618  -0.001145  3.886093  -0.001  -0.086035  -0.001072  3.903325  -0.001  0.004873  -0.088753  -0.001322  3.875103  -0.001
C  C84  1  0.34033350  0.52154269  0.64403895  1  0.211967  0.012687  3.671112  0.007  0.157651  0.003787  3.948108  0.001  0.174605  0.004154  3.959654  0.002  0.140671  0.146024  0.003927  3.940642  0.001
C  C85  1  0.84033122  0.97845366  0.85596031  1  0.211843  0.012685  3.671146  0.007  0.157582  0.003787  3.948167  0.001  0.174534  0.004154  3.959711  0.002  0.14065  0.145954  0.003922  3.940703  0.001
C  C86  1  0.65966782  0.47845781  0.35596330  1  0.211987  0.012684  3.67121  0.007  0.157668  0.003787  3.948217  0.001  0.174623  0.004154  3.959765  0.002  0.14064  0.146039  0.003918  3.94076  0.001
C  C87  1  0.15966779  0.02154421  0.14403777  1  0.211957  0.012688  3.671152  0.007  0.157671  0.003788  3.948158  0.001  0.17462  0.004153  3.959702  0.002  0.140692  0.146042  0.003926  3.940696  0.001
C  C88  1  0.48606509  0.11591558  0.81112489  1  0.617342  0.013934  3.876562  0.011  0.574724  0.005348  4.171248  0.005  0.611396  0.004849  4.168037  0.004  0.200725  0.548879  0.006019  4.17234  0.006
C  C89  1  0.98606445  0.38408431  0.68887642  1  0.617341  0.013945  3.876631  0.011  0.574723  0.005349  4.171311  0.005  0.611391  0.004849  4.168107  0.004  0.200734  0.548876  0.00602  4.172403  0.006
C  C90  1  0.51393508  0.88408672  0.18887629  1  0.617384  0.013935  3.876445  0.011  0.574768  0.005348  4.171144  0.005  0.611437  0.00485  4.167936  0.004  0.200753  0.54892  0.006024  4.172232  0.006
C  C91  1  0.01393341  0.61591532  0.31112420  1  0.617328  0.013937  3.876549  0.011  0.574725  0.005348  4.17122  0.005  0.611398  0.004849  4.168004  0.004  0.200719  0.548877  0.006018  4.172311  0.006
C  C92  1  0.10333788  0.84088846  0.60044315  1  0.637979  0.005934  3.882178  0.004  0.594263  0.001906  4.174402  0.001  0.631078  0.001599  4.166893  0.001  0.211747  0.568588  0.002612  4.179013  0.001
C  C93  1  0.60333617  0.65911236  0.89955664  1  0.638063  0.005933  3.882065  0.004  0.594308  0.001906  4.17432  0.001  0.631125  0.0016  4.166811  0.001  0.211775  0.568633  0.002614  4.178934  0.001
C  C94  1  0.89666344  0.15910939  0.39955709  1  0.637977  0.00593  3.882096  0.004  0.594301  0.001906  4.174267  0.001  0.63112  0.0016  4.166759  0.001  0.211774  0.568631  0.002608  4.178879  0.001
C  C95  1  0.39666400  0.34088906  0.10044220  1  0.638059  0.005933  3.882005  0.004  0.59435  0.001906  4.174222  0.001  0.631165  0.001601  4.166712  0.001  0.211788  0.568675  0.002622  4.178834  0.001
N  N96  1  0.31311154  0.18019457  0.48790031  1  -0.381246  -0.053328  3.277727  -0.085  -0.347356  -0.031661  3.543601  -0.051  -0.376406  -0.023652  3.558448  -0.041  -0.439463  -0.325965  -0.038334  3.533243  -0.058
N  N97  1  0.81311247  0.31980388  0.01209954  1  -0.381243  -0.053325  3.277696  -0.085  -0.347347  -0.031659  3.543545  -0.051  -0.376398  -0.023651  3.558398  -0.041  -0.439445  -0.325948  -0.038344  3.533188  -0.058
N  N98  1  0.68688863  0.81980596  0.51209905  1  -0.381254  -0.053324  3.277692  -0.085  -0.347322  -0.031661  3.543511  -0.051  -0.376374  -0.023651  3.558368  -0.041  -0.439458  -0.325924  -0.038347  3.533157  -0.058
N  N99  1  0.18688884  0.68019486  0.98790088  1  -0.381181  -0.053326  3.277686  -0.085  -0.347329  -0.031661  3.543545  -0.051  -0.376378  -0.023651  3.558396  -0.041  -0.439458  -0.325927  -0.038343  3.533195  -0.058
N  N100  1  0.31202320  0.41855937  0.57861132  1  -0.395683  -0.050603  3.323519  -0.079  -0.365299  -0.03321  3.632596  -0.052  -0.397382  -0.026522  3.652484  -0.044  -0.364002  -0.343169  -0.038433  3.619766  -0.058
N  N101  1  0.81202512  0.08143877  0.92138859  1  -0.395659  -0.050603  3.323494  -0.079  -0.365269  -0.033211  3.632554  -0.052  -0.397352  -0.026522  3.652445  -0.044  -0.364017  -0.343151  -0.038413  3.619727  -0.058
N  N102  1  0.68797467  0.58143935  0.42139199  1  -0.395755  -0.050602  3.323662  -0.079  -0.365348  -0.033211  3.632779  -0.052  -0.397423  -0.026522  3.652664  -0.044  -0.364018  -0.343238  -0.038401  3.619961  -0.058
N  N103  1  0.18797619  0.91856178  0.07860861  1  -0.395702  -0.050602  3.323711  -0.079  -0.36531  -0.033211  3.632787  -0.052  -0.397386  -0.026522  3.652676  -0.044  -0.364026  -0.343199  -0.038406  3.619961  -0.058
N  N104  1  0.49421033  0.53615238  0.65798053  1  -0.284081  -0.000441  3.485969  -0.002  -0.217606  -0.00041  3.725455  -0.001  -0.233722  -0.00021  3.740391  -0.001  -0.380442  -0.207011  -0.000547  3.715725  -0.002
N  N105  1  0.99420685  0.96384486  0.84201703  1  -0.284023  -0.000441  3.485965  -0.002  -0.217645  -0.00041  3.725442  -0.001  -0.233748  -0.00021  3.740363  -0.001  -0.380436  -0.207052  -0.000539  3.715717  -0.002
N  N106  1  0.50579214  0.46384726  0.34201793  1  -0.284081  -0.00044  3.486004  -0.002  -0.217648  -0.00041  3.72543  -0.001  -0.233768  -0.00021  3.740372  -0.001  -0.380431  -0.20706  -0.000545  3.715709  -0.002
N  N107  1  0.00579101  0.03615389  0.15798123  1  -0.284124  -0.000443  3.486003  -0.002  -0.217692  -0.000411  3.725452  -0.001  -0.233795  -0.000209  3.740375  -0.001  -0.380444  -0.207094  -0.000562  3.715725  -0.002
O  O108  1  0.58250226  0.20006896  0.82167595  1  -0.547222  -0.056254  1.958181  -0.091  -0.524261  -0.036967  2.198913  -0.063  -0.562656  -0.026452  2.194408  -0.048  -0.298974  -0.495107  -0.04687  2.200697  -0.076
O  O109  1  0.08250437  0.29993098  0.67832465  1  -0.547227  -0.056257  1.958189  -0.091  -0.524272  -0.036967  2.198926  -0.063  -0.562667  -0.026452  2.194425  -0.048  -0.299004  -0.495116  -0.046876  2.200715  -0.076
O  O110  1  0.41749446  0.79993157  0.17832269  1  -0.54728  -0.056257  1.958078  -0.091  -0.524328  -0.036967  2.19882  -0.063  -0.562721  -0.026453  2.194319  -0.048  -0.299007  -0.495169  -0.046877  2.200603  -0.076
O  O111  1  0.91749579  0.70006953  0.32167760  1  -0.547245  -0.056255  1.958169  -0.091  -0.524291  -0.036966  2.198899  -0.063  -0.562683  -0.026452  2.194398  -0.048  -0.298981  -0.495132  -0.046879  2.200684  -0.076
O  O112  1  0.46335360  0.06646858  0.88406583  1  -0.619136  -0.045516  2.012584  -0.076  -0.580013  -0.032365  2.255554  -0.056  -0.620297  -0.023067  2.24698  -0.043  -0.310801  -0.549794  -0.040895  2.260377  -0.067
O  O113  1  0.96335143  0.43353043  0.61593454  1  -0.619137  -0.045518  2.01261  -0.076  -0.579988  -0.032366  2.255556  -0.056  -0.620271  -0.023066  2.246983  -0.043  -0.310775  -0.549761  -0.040899  2.260377  -0.067
O  O114  1  0.53664541  0.93353373  0.11593464  1  -0.619101  -0.045513  2.012559  -0.076  -0.579978  -0.032364  2.255533  -0.056  -0.620258  -0.023065  2.246963  -0.043  -0.310793  -0.549753  -0.040903  2.260347  -0.067
O  O115  1  0.03664413  0.56646743  0.38406426  1  -0.619109  -0.045517  2.012602  -0.076  -0.579996  -0.032365  2.255573  -0.056  -0.620276  -0.023066  2.247  -0.043  -0.310804  -0.549767  -0.040911  2.260387  -0.067
O  O116  1  0.03507151  0.80987962  0.51681161  1  -0.593031  -0.036897  2.108453  -0.062  -0.562362  -0.025021  2.376313  -0.044  -0.599563  -0.019075  2.36586  -0.035  -0.312128  -0.535287  -0.030517  2.383053  -0.051
O  O117  1  0.53506784  0.69012031  0.98319004  1  -0.593059  -0.036901  2.108412  -0.062  -0.562386  -0.025023  2.376294  -0.044  -0.59959  -0.019077  2.365839  -0.035  -0.312136  -0.535303  -0.030531  2.383029  -0.051
O  O118  1  0.96492981  0.19011733  0.48319061  1  -0.593052  -0.036898  2.108323  -0.062  -0.562399  -0.025022  2.376164  -0.044  -0.599602  -0.019076  2.3657  -0.035  -0.312184  -0.53534  -0.030506  2.382913  -0.051
O  O119  1  0.46493117  0.30988289  0.01680918  1  -0.593065  -0.0369  2.108356  -0.062  -0.562402  -0.025023  2.376212  -0.044  -0.599605  -0.019077  2.365749  -0.035  -0.312157  -0.535332  -0.030532  2.382957  -0.051
O  O120  1  0.08333592  0.79323049  0.67384630  1  -0.633169  0.003351  1.980982  0.002  -0.575764  0.001879  2.192254  0.001  -0.600337  0.001978  2.179704  0.001  -0.322269  -0.558717  0.001866  2.200739  0.001
O  O121  1  0.58333267  0.70676944  0.82615399  1  -0.633228  0.003356  1.981009  0.002  -0.575771  0.00188  2.192285  0.001  -0.600341  0.001979  2.179734  0.001  -0.322285  -0.558728  0.001871  2.200775  0.001
O  O122  1  0.91666309  0.20676647  0.32615375  1  -0.633189  0.003354  1.980994  0.002  -0.575808  0.00188  2.192267  0.001  -0.600382  0.001978  2.179713  0.001  -0.322292  -0.558767  0.001872  2.200755  0.001
O  O123  1  0.41666635  0.29323286  0.17384648  1  -0.633224  0.003354  1.980957  0.002  -0.575826  0.00188  2.192245  0.001  -0.6004  0.001978  2.179692  0.001  -0.322294  -0.558778  0.001863  2.20073  0.001
O  O124  1  0.64067201  0.14879626  0.10814104  1  -0.807318  -0.040755  1.943163  -0.067  -0.780339  -0.030129  2.14919  -0.05  -0.811218  -0.022716  2.111952  -0.041  -0.585121  -0.757245  -0.036643  2.175246  -0.058
O  O125  1  0.14066929  0.35120310  0.39185942  1  -0.80728  -0.040754  1.943156  -0.067  -0.780316  -0.030129  2.149175  -0.05  -0.811196  -0.022715  2.111937  -0.041  -0.585116  -0.757225  -0.036627  2.175219  -0.058
O  O126  1  0.35933161  0.85120427  0.89185833  1  -0.807344  -0.040755  1.943156  -0.067  -0.780384  -0.030129  2.149221  -0.05  -0.811267  -0.022716  2.112003  -0.041  -0.58515  -0.757273  -0.036657  2.175262  -0.058
O  O127  1  0.85933433  0.64879475  0.60814153  1  -0.80736  -0.040755  1.943146  -0.067  -0.780414  -0.030129  2.149209  -0.05  -0.811296  -0.022715  2.111989  -0.041  -0.585193  -0.757331  -0.03662  2.17527  -0.058
