# generated using pymatgen
data_ZnH10C11SN4O5
_symmetry_space_group_name_H-M   'P 1'
_cell_length_a   4.84999179
_cell_length_b   16.18972371
_cell_length_c   23.67345074
_cell_angle_alpha   89.99998598
_cell_angle_beta   91.08482021
_cell_angle_gamma   90.00000623
_symmetry_Int_Tables_number   1
_chemical_formula_structural   ZnH10C11SN4O5
_chemical_formula_sum   'Zn4 H40 C44 S4 N16 O20'
_cell_volume   1858.50682036
_cell_formula_units_Z   4
loop_
 _symmetry_equiv_pos_site_id
 _symmetry_equiv_pos_as_xyz
  1  'x, y, z'
loop_
 _atom_site_type_symbol
 _atom_site_label
 _atom_site_symmetry_multiplicity
 _atom_site_fract_x
 _atom_site_fract_y
 _atom_site_fract_z
 _atom_site_occupancy
 _atom_site_pbe_bader_charge
 _atom_site_pbe_bader_spin_density
 _atom_site_pbe_cm5_charge
 _atom_site_pbe_ddec_charge
 _atom_site_pbe_ddec_spin_density
 _atom_site_pbe_ddec_sum_bond_order
 _atom_site_pbe_magmom
Zn  Zn0  1  0.48162574  0.51425202  0.68053533  1  1.265736  0  0.718075  0.810002  0  2.390681  0
Zn  Zn1  1  0.01837398  0.01425210  0.81946435  1  1.265751  0  0.718072  0.80995  0  2.390699  0
Zn  Zn2  1  0.51837385  0.48574820  0.31946448  1  1.26574  0  0.71805  0.809909  0  2.390725  0
Zn  Zn3  1  0.98162561  0.98574812  0.18053546  1  1.265737  0  0.718067  0.809952  0  2.390688  0
H  H4  1  0.86565429  0.96212200  0.30374727  1  0.117863  0  0.12439  0.098425  0  0.96511  0
H  H5  1  0.63434517  0.46212151  0.19625267  1  0.11787  0  0.124394  0.098421  0  0.965112  0
H  H6  1  0.13434324  0.03787761  0.69625253  1  0.117861  0  0.12437  0.098389  0  0.965135  0
H  H7  1  0.36565442  0.53787810  0.80374756  1  0.117862  0  0.124387  0.098427  0  0.965112  0
H  H8  1  0.06713814  0.87792412  0.38288085  1  0.149059  0  0.115126  0.143675  0  1.0131  0
H  H9  1  0.43286179  0.37792429  0.11711900  1  0.149054  0  0.115121  0.143674  0  1.013106  0
H  H10  1  0.93286145  0.12207549  0.61711896  1  0.149051  0  0.115127  0.143681  0  1.013144  0
H  H11  1  0.56713780  0.62207594  0.88288081  1  0.149057  0  0.115131  0.143677  0  1.013116  0
H  H12  1  0.58251046  0.75848542  0.26028653  1  0.151582  0  0.118928  0.152869  0  0.991503  0
H  H13  1  0.91748893  0.25848554  0.23971302  1  0.151581  0  0.118924  0.152853  0  0.991507  0
H  H14  1  0.41748707  0.24151481  0.73971285  1  0.151531  0  0.118938  0.152894  0  0.991457  0
H  H15  1  0.08251066  0.74151468  0.76028679  1  0.151579  0  0.118937  0.152888  0  0.99148  0
H  H16  1  0.35931535  0.84754563  0.18632918  1  0.073904  0  0.111318  0.069729  0  1.023129  0
H  H17  1  0.14068250  0.34754510  0.31367108  1  0.073943  0  0.111319  0.069714  0  1.023142  0
H  H18  1  0.64068423  0.15245398  0.81367105  1  0.073948  0  0.111322  0.069732  0  1.023118  0
H  H19  1  0.85931709  0.65245451  0.68632915  1  0.073943  0  0.111327  0.069703  0  1.023169  0
H  H20  1  0.62573560  0.72461886  0.35038869  1  0.521002  0  0.314658  0.288031  0  0.97498  0
H  H21  1  0.87426376  0.22461902  0.14961129  1  0.521003  0  0.314661  0.288029  0  0.974984  0
H  H22  1  0.37426399  0.27538075  0.64961112  1  0.521003  0  0.314661  0.288031  0  0.97497  0
H  H23  1  0.12573583  0.77538059  0.85038852  1  0.521006  0  0.314664  0.288047  0  0.97496  0
H  H24  1  0.70727264  0.65904268  0.42312332  1  0.536003  0  0.307998  0.290766  0  1.004686  0
H  H25  1  0.79272464  0.15904286  0.07687667  1  0.535997  0  0.307994  0.290742  0  1.004699  0
H  H26  1  0.29272695  0.34095754  0.57687692  1  0.536022  0  0.308016  0.290783  0  1.004646  0
H  H27  1  0.20727289  0.84095736  0.92312313  1  0.536019  0  0.307993  0.290744  0  1.004707  0
H  H28  1  0.22055704  0.73704090  0.53432619  1  0.148743  0  0.115728  0.145602  0  1.010375  0
H  H29  1  0.27944275  0.23704094  0.96567388  1  0.148736  0  0.115731  0.145621  0  1.010401  0
H  H30  1  0.77944254  0.26295871  0.46567404  1  0.148744  0  0.115728  0.145607  0  1.01036  0
H  H31  1  0.72056096  0.76295867  0.03432637  1  0.148743  0  0.115734  0.145607  0  1.010403  0
H  H32  1  0.21040245  0.66448992  0.62694208  1  0.064681  0  0.116829  0.08348  0  0.9948  0
H  H33  1  0.28959732  0.16448999  0.87305800  1  0.064679  0  0.116826  0.083472  0  0.994803  0
H  H34  1  0.78959507  0.33551030  0.37305772  1  0.064684  0  0.11683  0.083476  0  0.994802  0
H  H35  1  0.71040640  0.83550961  0.12694225  1  0.064688  0  0.116823  0.083462  0  0.994789  0
H  H36  1  0.80546751  0.49576933  0.57803102  1  0.152023  0  0.112899  0.091996  0  1.064347  0
H  H37  1  0.69453187  0.99576916  0.92196912  1  0.15202  0  0.112905  0.09199  0  1.064357  0
H  H38  1  0.19453001  0.50423089  0.42196878  1  0.152209  0  0.112893  0.091983  0  1.064362  0
H  H39  1  0.30546978  0.00423107  0.07803113  1  0.152219  0  0.112904  0.091995  0  1.064343  0
H  H40  1  0.84565563  0.56321955  0.48420498  1  0.095851  0  0.115547  0.143308  0  1.003337  0
H  H41  1  0.65434368  0.06321912  0.01579503  1  0.095827  0  0.115574  0.143344  0  1.003304  0
H  H42  1  0.15434396  0.43678068  0.51579483  1  0.095835  0  0.115556  0.143316  0  1.003311  0
H  H43  1  0.34565797  0.93678049  0.98420521  1  0.095844  0  0.115571  0.143342  0  1.003336  0
C  C44  1  0.02682561  0.91666352  0.29613807  1  0.446754  0  0.047899  0.109417  0  3.970719  0
C  C45  1  0.47317433  0.41666366  0.20386177  1  0.446751  0  0.047888  0.109419  0  3.970679  0
C  C46  1  0.97317398  0.08333609  0.70386174  1  0.446762  0  0.047901  0.109421  0  3.970713  0
C  C47  1  0.52682526  0.58333657  0.79613804  1  0.446762  0  0.047894  0.109376  0  3.970786  0
C  C48  1  0.13890549  0.87030757  0.34005523  1  0.015972  0  -0.091064  -0.233744  0  3.91604  0
C  C49  1  0.36109443  0.37030710  0.15994462  1  0.01599  0  -0.091077  -0.233791  0  3.915993  0
C  C50  1  0.86109616  0.12969266  0.65994459  1  0.015983  0  -0.091089  -0.2338  0  3.916071  0
C  C51  1  0.63890309  0.62969251  0.84005518  1  0.015969  0  -0.09107  -0.233729  0  3.916062  0
C  C52  1  0.34611382  0.81214475  0.32798354  1  0.354316  0  0.135046  0.323038  0  3.993028  0
C  C53  1  0.15388402  0.31214489  0.17201630  1  0.354299  0  0.135077  0.323102  0  3.992995  0
C  C54  1  0.65388164  0.18785486  0.67201625  1  0.354299  0  0.135075  0.323088  0  3.993033  0
C  C55  1  0.84611351  0.68785534  0.82798392  1  0.35431  0  0.135066  0.323066  0  3.993079  0
C  C56  1  0.42664029  0.80387656  0.27126837  1  0.055236  0  -0.084462  -0.220995  0  3.909583  0
C  C57  1  0.07335755  0.30387667  0.22873148  1  0.055231  0  -0.084491  -0.221028  0  3.909599  0
C  C58  1  0.57335930  0.19612367  0.72873102  1  0.055282  0  -0.084488  -0.221046  0  3.90958  0
C  C59  1  0.92664204  0.69612355  0.77126875  1  0.055248  0  -0.084476  -0.221026  0  3.909599  0
C  C60  1  0.30281562  0.85262106  0.23052303  1  0.458018  0  0.03868  0.10197  0  4.007499  0
C  C61  1  0.19718223  0.35262055  0.26947681  1  0.457963  0  0.038732  0.102042  0  4.007527  0
C  C62  1  0.69718397  0.14737916  0.76947678  1  0.457996  0  0.038717  0.101991  0  4.007488  0
C  C63  1  0.80281736  0.64737906  0.73052300  1  0.457967  0  0.038704  0.102038  0  4.00757  0
C  C64  1  0.39965620  0.74930858  0.42274329  1  1.836972  0  0.344366  0.652051  0  4.125891  0
C  C65  1  0.10034162  0.24930875  0.07725657  1  1.836969  0  0.344345  0.652028  0  4.125872  0
C  C66  1  0.60034339  0.25069165  0.57725652  1  1.836967  0  0.344345  0.652021  0  4.12589  0
C  C67  1  0.89965797  0.75069086  0.92274366  1  1.836968  0  0.344321  0.651984  0  4.125863  0
C  C68  1  0.53491419  0.65569054  0.50088758  1  0.440902  0  0.134185  0.32214  0  3.996714  0
C  C69  1  0.96508508  0.15569057  0.99911262  1  0.440919  0  0.134182  0.322134  0  3.996652  0
C  C70  1  0.46508540  0.34430907  0.49911223  1  0.440904  0  0.134139  0.322053  0  3.996702  0
C  C71  1  0.03491451  0.84430904  0.00088761  1  0.440922  0  0.134174  0.32208  0  3.996653  0
C  C72  1  0.35384067  0.68436489  0.54266835  1  0.051277  0  -0.092358  -0.236562  0  3.923711  0
C  C73  1  0.14616117  0.18436493  0.95733173  1  0.051286  0  -0.092357  -0.236611  0  3.923735  0
C  C74  1  0.64615892  0.31563533  0.45733146  1  0.051282  0  -0.092319  -0.236529  0  3.92364  0
C  C75  1  0.85384048  0.81563468  0.04266851  1  0.05127  0  -0.092351  -0.23654  0  3.923663  0
C  C76  1  0.34797268  0.64339507  0.59398452  1  0.439429  0  0.039528  0.094287  0  4.005461  0
C  C77  1  0.15202709  0.14339450  0.90601514  1  0.439492  0  0.039512  0.094327  0  4.00549  0
C  C78  1  0.65202691  0.35660516  0.40601529  1  0.439479  0  0.039519  0.094319  0  4.00543  0
C  C79  1  0.84797456  0.85660510  0.09398468  1  0.439428  0  0.039529  0.094306  0  4.005413  0
C  C80  1  0.68038494  0.54961707  0.56690521  1  0.446258  0  0.032386  0.088663  0  3.98067  0
C  C81  1  0.81961429  0.04961712  0.93309458  1  0.446322  0  0.032402  0.088764  0  3.980696  0
C  C82  1  0.31961259  0.45038315  0.43309459  1  0.44607  0  0.032405  0.088721  0  3.980719  0
C  C83  1  0.18038530  0.95038249  0.06690523  1  0.44612  0  0.032408  0.088721  0  3.980706  0
C  C84  1  0.70242146  0.58713903  0.51498793  1  -0.045962  0  -0.092835  -0.236559  0  3.934651  0
C  C85  1  0.79757779  0.08713845  0.98501185  1  -0.046029  0  -0.092876  -0.236628  0  3.934552  0
C  C86  1  0.29757813  0.41286119  0.48501188  1  -0.045964  0  -0.092823  -0.236527  0  3.934563  0
C  C87  1  0.20242387  0.91286116  0.01498797  1  -0.046009  0  -0.092839  -0.236581  0  3.934619  0
S  S88  1  0.98972637  0.40128222  0.67043342  1  3.790148  0  0.556715  1.403681  0  6.38201  0
S  S89  1  0.51027504  0.90128207  0.82956632  1  3.790149  0  0.556689  1.403624  0  6.382051  0
S  S90  1  0.01027322  0.59871800  0.32956639  1  3.790151  0  0.556705  1.403636  0  6.382042  0
S  S91  1  0.48972455  0.09871815  0.17043349  1  3.790151  0  0.556664  1.403496  0  6.382211  0
N  N92  1  0.10601997  0.90902782  0.24199363  1  -1.26899  0  -0.355865  -0.274795  0  3.633715  0
N  N93  1  0.39397791  0.40902794  0.25800620  1  -1.26895  0  -0.355878  -0.274788  0  3.633734  0
N  N94  1  0.89397962  0.09097178  0.75800660  1  -1.268983  0  -0.355886  -0.274755  0  3.633669  0
N  N95  1  0.60602168  0.59097228  0.74199361  1  -1.268975  0  -0.355887  -0.274825  0  3.633851  0
N  N96  1  0.47757763  0.76258491  0.36723082  1  -1.252856  0  -0.388252  -0.405816  0  3.522534  0
N  N97  1  0.02242225  0.26258506  0.13276904  1  -1.252866  0  -0.388241  -0.405813  0  3.522525  0
N  N98  1  0.52242196  0.23741531  0.63276899  1  -1.252856  0  -0.388249  -0.4058  0  3.522538  0
N  N99  1  0.97757733  0.73741516  0.86723119  1  -1.252863  0  -0.388259  -0.405848  0  3.522543  0
N  N100  1  0.56139261  0.68835263  0.44785680  1  -1.279103  0  -0.390051  -0.406677  0  3.523247  0
N  N101  1  0.93860675  0.18835220  0.05214319  1  -1.279113  0  -0.390026  -0.406615  0  3.523224  0
N  N102  1  0.43860698  0.31164760  0.55214301  1  -1.279104  0  -0.390049  -0.406668  0  3.523234  0
N  N103  1  0.06139490  0.81164741  0.94785663  1  -1.279109  0  -0.39003  -0.406608  0  3.523184  0
N  N104  1  0.50474306  0.57659899  0.60673263  1  -1.279128  0  -0.353908  -0.283951  0  3.619602  0
N  N105  1  0.99525824  0.07659968  0.89326801  1  -1.2792  0  -0.353904  -0.284045  0  3.619726  0
N  N106  1  0.49525653  0.42340000  0.39326760  1  -1.279184  0  -0.353913  -0.284024  0  3.619713  0
N  N107  1  0.00474341  0.92340054  0.10673223  1  -1.279138  0  -0.353914  -0.283976  0  3.619659  0
O  O108  1  0.21191627  0.78633144  0.44626605  1  -1.151142  0  -0.295193  -0.509736  0  2.079037  0
O  O109  1  0.28808156  0.28633163  0.05373380  1  -1.15113  0  -0.295182  -0.509722  0  2.079036  0
O  O110  1  0.78808125  0.21366817  0.55373417  1  -1.151143  0  -0.295195  -0.50973  0  2.079022  0
O  O111  1  0.71192009  0.71366798  0.94626602  1  -1.151138  0  -0.295181  -0.509695  0  2.079061  0
O  O112  1  0.10685989  0.47870477  0.69845795  1  -1.318704  0  -0.378516  -0.670246  0  2.332297  0
O  O113  1  0.39313999  0.97870526  0.80154208  1  -1.318721  0  -0.378507  -0.670213  0  2.332302  0
O  O114  1  0.89313764  0.52129484  0.30154185  1  -1.318723  0  -0.378515  -0.670197  0  2.332284  0
O  O115  1  0.60686166  0.02129496  0.19845774  1  -1.318695  0  -0.378518  -0.670184  0  2.3323  0
O  O116  1  0.09186394  0.32604682  0.69773843  1  -1.342112  0  -0.350718  -0.627224  0  2.171157  0
O  O117  1  0.40813795  0.82604670  0.80226163  1  -1.342112  0  -0.350682  -0.627186  0  2.171272  0
O  O118  1  0.90813565  0.67395340  0.30226180  1  -1.342118  0  -0.350693  -0.627199  0  2.171264  0
O  O119  1  0.59186370  0.17395291  0.19773861  1  -1.342114  0  -0.350676  -0.627153  0  2.17118  0
O  O120  1  0.05686261  0.40269731  0.60944478  1  -1.356594  0  -0.361733  -0.669657  0  2.238427  0
O  O121  1  0.44313724  0.90269777  0.89055526  1  -1.356583  0  -0.361765  -0.669678  0  2.238338  0
O  O122  1  0.94313698  0.59730229  0.39055503  1  -1.356564  0  -0.36176  -0.669678  0  2.23836  0
O  O123  1  0.55686234  0.09730245  0.10944497  1  -1.356568  0  -0.36173  -0.669611  0  2.238496  0
O  O124  1  0.68156654  0.40829160  0.67680892  1  -1.317155  0  -0.365357  -0.637165  0  2.350075  0
O  O125  1  0.81843281  0.90829208  0.82319124  1  -1.317161  0  -0.365341  -0.637124  0  2.35006  0
O  O126  1  0.31843304  0.59170801  0.32319132  1  -1.317149  0  -0.365344  -0.637123  0  2.350062  0
O  O127  1  0.18156678  0.09170815  0.17680857  1  -1.317163  0  -0.365358  -0.637126  0  2.350117  0
