# generated using pymatgen
data_Na2H24C12S2O17
_symmetry_space_group_name_H-M   'P 1'
_cell_length_a   6.14227418
_cell_length_b   9.64557278
_cell_length_c   9.92773783
_cell_angle_alpha   78.69340305
_cell_angle_beta   76.17046692
_cell_angle_gamma   71.97050277
_symmetry_Int_Tables_number   1
_chemical_formula_structural   Na2H24C12S2O17
_chemical_formula_sum   'Na2 H24 C12 S2 O17'
_cell_volume   538.31442183
_cell_formula_units_Z   1
loop_
 _symmetry_equiv_pos_site_id
 _symmetry_equiv_pos_as_xyz
  1  'x, y, z'
loop_
 _atom_site_type_symbol
 _atom_site_label
 _atom_site_symmetry_multiplicity
 _atom_site_fract_x
 _atom_site_fract_y
 _atom_site_fract_z
 _atom_site_occupancy
 _atom_site_hle17_bader_spin_density
 _atom_site_hle17_ddec_charge
 _atom_site_hle17_ddec_spin_density
 _atom_site_hle17_ddec_sum_bond_order
 _atom_site_hle17_magmom
 _atom_site_hse06_10hf_bader_spin_density
 _atom_site_hse06_10hf_ddec_charge
 _atom_site_hse06_10hf_ddec_spin_density
 _atom_site_hse06_10hf_ddec_sum_bond_order
 _atom_site_hse06_10hf_magmom
 _atom_site_hse06_bader_spin_density
 _atom_site_hse06_ddec_charge
 _atom_site_hse06_ddec_spin_density
 _atom_site_hse06_ddec_sum_bond_order
 _atom_site_hse06_magmom
 _atom_site_pbe_bader_spin_density
 _atom_site_pbe_cm5_charge
 _atom_site_pbe_ddec_charge
 _atom_site_pbe_ddec_spin_density
 _atom_site_pbe_ddec_sum_bond_order
 _atom_site_pbe_magmom
Na  Na0  1  0.61217118  0.87587729  0.35545430  1  0  0.891127  0  0.417712  0  0  0.848053  0  0.572736  0  0  0.857626  0  0.55198  0  0  0.724305  0.841339  0  0.587072  0
Na  Na1  1  0.38434387  0.12429529  0.64147744  1  0  0.893145  0  0.403331  0  0  0.848819  0  0.557837  0  0  0.858722  0  0.536791  0  0  0.708218  0.841913  0  0.572141  0
H  H2  1  0.20312534  0.94128696  0.23570824  1  0  0.38462  0  0.879542  0  0  0.361597  0  0.949733  0  0  0.370889  0  0.938983  0  0  0.311082  0.354873  0  0.957581  0
H  H3  1  0.81381293  0.57810792  0.32499841  1  0  0.374992  0  0.903199  0  0  0.346813  0  0.984693  0  0  0.357418  0  0.971355  0  0  0.30515  0.339259  0  0.994258  0
H  H4  1  0.26477436  0.68914454  0.06466010  1  0  0.019703  0  0.918889  0  0  0.031142  0  0.982205  0  0  0.030559  0  0.981421  0  0  0.115025  0.031165  0  0.983319  0
H  H5  1  0.18793524  0.72180276  0.37575672  1  0  0.077117  0  0.920471  0  0  0.087677  0  0.978521  0  0  0.089493  0  0.976867  0  0  0.118193  0.086299  0  0.979829  0
H  H6  1  0.62622311  0.61498561  0.15672263  1  0  0.046725  0  0.899679  0  0  0.057505  0  0.963017  0  0  0.058216  0  0.962034  0  0  0.111589  0.056508  0  0.964695  0
H  H7  1  0.42288043  0.42241162  0.40538647  1  0  0.072426  0  0.927747  0  0  0.080017  0  0.989951  0  0  0.08179  0  0.988238  0  0  0.117512  0.078489  0  0.991716  0
H  H8  1  0.39568276  0.43185603  0.09829820  1  0  0.052636  0  0.951001  0  0  0.061987  0  1.027211  0  0  0.062877  0  1.025829  0  0  0.096405  0.061245  0  1.028402  0
H  H9  1  0.25636731  0.33399542  0.24834268  1  0  0.101584  0  0.916032  0  0  0.112781  0  0.976477  0  0  0.114137  0  0.975555  0  0  0.117601  0.111634  0  0.97741  0
H  H10  1  0.70335382  0.90615100  0.04627074  1  0  0.103027  0  0.95559  0  0  0.119477  0  1.021678  0  0  0.120453  0  1.021299  0  0  0.109023  0.118629  0  1.02204  0
H  H11  1  0.90776954  0.74324095  0.98614003  1  0  0.087201  0  0.940125  0  0  0.099218  0  1.013513  0  0  0.100663  0  1.011616  0  0  0.096026  0.098159  0  1.014823  0
H  H12  1  0.99618386  0.90872792  0.96332303  1  0  0.094482  0  0.942833  0  0  0.111954  0  1.006045  0  0  0.113341  0  1.004744  0  0  0.101104  0.110875  0  1.006894  0
H  H13  1  0.94854486  0.05650575  0.75606440  1  0  0.384883  0  0.885671  0  0  0.360455  0  0.958708  0  0  0.369908  0  0.947666  0  0  0.309837  0.352256  0  0.968359  0
H  H14  1  0.26233023  0.42121525  0.68086765  1  0  0.374546  0  0.897303  0  0  0.346887  0  0.977337  0  0  0.357363  0  0.964271  0  0  0.305891  0.339297  0  0.986947  0
H  H15  1  0.63620442  0.29946606  0.94233922  1  0  0.021609  0  0.918302  0  0  0.030636  0  0.985086  0  0  0.031005  0  0.982916  0  0  0.112783  0.030421  0  0.986314  0
H  H16  1  0.81095497  0.27846039  0.62720987  1  0  0.075326  0  0.916177  0  0  0.084715  0  0.975133  0  0  0.086606  0  0.973336  0  0  0.117871  0.083572  0  0.976139  0
H  H17  1  0.97764616  0.38548001  0.84584833  1  0  0.044339  0  0.910721  0  0  0.054409  0  0.975408  0  0  0.055255  0  0.974196  0  0  0.110889  0.053445  0  0.976906  0
H  H18  1  0.76879461  0.57105694  0.59686602  1  0  0.074794  0  0.923819  0  0  0.081404  0  0.986441  0  0  0.083243  0  0.984734  0  0  0.11823  0.079898  0  0.988197  0
H  H19  1  0.54656056  0.56043779  0.90952647  1  0  0.049117  0  0.942107  0  0  0.056957  0  1.021198  0  0  0.058678  0  1.018213  0  0  0.094439  0.054996  0  1.024512  0
H  H20  1  0.40619318  0.65961911  0.76707853  1  0  0.104338  0  0.910423  0  0  0.115895  0  0.969609  0  0  0.117497  0  0.968239  0  0  0.118427  0.114911  0  0.970029  0
H  H21  1  0.30156027  0.06183633  0.96234499  1  0  0.106836  0  0.932477  0  0  0.12438  0  0.995115  0  0  0.125785  0  0.993781  0  0  0.111695  0.123247  0  0.996244  0
H  H22  1  0.19870099  0.25164111  0.98745506  1  0  0.083942  0  0.940415  0  0  0.098737  0  1.010009  0  0  0.099965  0  1.008506  0  0  0.095285  0.097723  0  1.011307  0
H  H23  1  0.44785713  0.13491969  0.05679077  1  0  0.096568  0  0.953572  0  0  0.113663  0  1.020322  0  0  0.114403  0  1.020304  0  0  0.103446  0.113233  0  1.020084  0
H  H24  1  0.17289620  0.06140167  0.42446399  1  0  0.421673  0  0.879862  0  0  0.393939  0  0.938991  0  0  0.403355  0  0.925052  0  0  0.295828  0.387228  0  0.948961  0
H  H25  1  0.17096503  0.94950121  0.56193172  1  0  0.421703  0  0.881011  0  0  0.393863  0  0.94007  0  0  0.403481  0  0.925864  0  0  0.295348  0.386962  0  0.9503  0
C  C26  1  0.15755776  0.69424975  0.17150773  1  0  0.305828  0  3.677786  0  0  0.260257  0  3.94455  0  0  0.273454  0  3.947984  0  0  0.086649  0.251294  0  3.941978  0
C  C27  1  0.29289983  0.72281522  0.26869878  1  0  0.096377  0  3.643506  0  0  0.062664  0  3.903699  0  0  0.066396  0  3.911317  0  0  -0.015088  0.060053  0  3.898529  0
C  C28  1  0.52233825  0.60191813  0.26379504  1  0  0.160747  0  3.624531  0  0  0.131169  0  3.887643  0  0  0.135914  0  3.897056  0  0  -0.006802  0.12791  0  3.881686  0
C  C29  1  0.48334900  0.44884928  0.29235822  1  0  0.123747  0  3.561742  0  0  0.092916  0  3.820693  0  0  0.098412  0  3.828687  0  0  -0.003571  0.08921  0  3.815625  0
C  C30  1  0.31174073  0.43450529  0.20958468  1  0  0.034829  0  3.596416  0  0  -0.030754  0  3.872196  0  0  -0.024093  0  3.875956  0  0  -0.070292  -0.035278  0  3.869735  0
C  C31  1  0.88655616  0.84253800  0.03200528  1  0  -0.073671  0  3.595269  0  0  -0.172264  0  3.867925  0  0  -0.16612  0  3.870472  0  0  -0.146507  -0.175987  0  3.865688  0
C  C32  1  0.60814683  0.29808749  0.83633540  1  0  0.303472  0  3.667772  0  0  0.255867  0  3.938296  0  0  0.268939  0  3.941839  0  0  0.086117  0.247098  0  3.935564  0
C  C33  1  0.84155772  0.27434061  0.73331736  1  0  0.098249  0  3.642104  0  0  0.068358  0  3.898858  0  0  0.071888  0  3.907082  0  0  -0.011883  0.065728  0  3.893439  0
C  C34  1  0.94721455  0.39661602  0.73830764  1  0  0.159432  0  3.626318  0  0  0.12729  0  3.890697  0  0  0.132048  0  3.900322  0  0  -0.00758  0.123841  0  3.885201  0
C  C35  1  0.77779019  0.54775409  0.70871493  1  0  0.125234  0  3.565862  0  0  0.096325  0  3.822843  0  0  0.101601  0  3.831349  0  0  -0.002621  0.092697  0  3.817646  0
C  C36  1  0.53513870  0.55914524  0.80031742  1  0  0.03212  0  3.606669  0  0  -0.033976  0  3.884694  0  0  -0.027225  0  3.887852  0  0  -0.072355  -0.038153  0  3.882162  0
C  C37  1  0.35419270  0.15796362  0.96996235  1  0  -0.074908  0  3.596792  0  0  -0.176908  0  3.874582  0  0  -0.170854  0  3.877636  0  0  -0.144481  -0.180811  0  3.872255  0
S  S38  1  0.76744128  0.18039241  0.31952874  1  0  1.505189  0  5.769221  0  0  1.387968  0  6.317856  0  0  1.443175  0  6.283468  0  0  0.590121  1.350011  0  6.340332  0
S  S39  1  0.81131682  0.81954348  0.66934393  1  0  1.502636  0  5.773314  0  0  1.384467  0  6.322132  0  0  1.439511  0  6.288668  0  0  0.590516  1.346192  0  6.343748  0
O  O40  1  0.10426578  0.55535073  0.22178479  1  0  -0.343415  0  2.22951  0  0  -0.275373  0  2.468235  0  0  -0.291099  0  2.465163  0  0  -0.214231  -0.264236  0  2.469897  0
O  O41  1  0.94897643  0.80400219  0.16878046  1  0  -0.336771  0  2.32897  0  0  -0.268775  0  2.587289  0  0  -0.284707  0  2.586865  0  0  -0.264337  -0.257599  0  2.586511  0
O  O42  1  0.34705521  0.85998327  0.22010859  1  0  -0.588783  0  2.071294  0  0  -0.548303  0  2.306104  0  0  -0.562588  0  2.294173  0  0  -0.446558  -0.538361  0  2.314649  0
O  O43  1  0.64571553  0.61770833  0.36225656  1  0  -0.591618  0  2.040478  0  0  -0.554806  0  2.273888  0  0  -0.568302  0  2.259491  0  0  -0.450351  -0.545001  0  2.284105  0
O  O44  1  0.71473992  0.35188569  0.24938202  1  0  -0.442683  0  2.151773  0  0  -0.379884  0  2.404444  0  0  -0.396312  0  2.395049  0  0  -0.212772  -0.368574  0  2.410942  0
O  O45  1  0.64322038  0.11228912  0.25528842  1  0  -0.708228  0  1.939241  0  0  -0.66569  0  2.194856  0  0  -0.68515  0  2.178051  0  0  -0.39192  -0.651838  0  2.205432  0
O  O46  1  0.68720993  0.18115999  0.47049848  1  0  -0.730229  0  1.954006  0  0  -0.692447  0  2.218224  0  0  -0.711588  0  2.199716  0  0  -0.399878  -0.678865  0  2.229841  0
O  O47  1  0.02264082  0.13069128  0.27737861  1  0  -0.683905  0  1.974276  0  0  -0.621964  0  2.206932  0  0  -0.644052  0  2.190729  0  0  -0.317923  -0.606603  0  2.218045  0
O  O48  1  0.45150223  0.43782973  0.79299270  1  0  -0.350311  0  2.220802  0  0  -0.282414  0  2.461698  0  0  -0.298106  0  2.459  0  0  -0.216342  -0.271482  0  2.463188  0
O  O49  1  0.50697498  0.18712623  0.83864526  1  0  -0.333787  0  2.320954  0  0  -0.26496  0  2.580401  0  0  -0.28128  0  2.580718  0  0  -0.255415  -0.253321  0  2.578621  0
O  O50  1  0.99848622  0.13757667  0.77502193  1  0  -0.587843  0  2.071341  0  0  -0.548231  0  2.306375  0  0  -0.562269  0  2.293891  0  0  -0.446934  -0.536981  0  2.315837  0
O  O51  1  0.16411489  0.38141700  0.64180147  1  0  -0.585493  0  2.034228  0  0  -0.546702  0  2.267346  0  0  -0.560206  0  2.252838  0  0  -0.446179  -0.537019  0  2.277687  0
O  O52  1  0.88183189  0.64953329  0.74326523  1  0  -0.441732  0  2.157015  0  0  -0.376653  0  2.406918  0  0  -0.393608  0  2.398518  0  0  -0.210943  -0.364791  0  2.412342  0
O  O53  1  0.57116520  0.88490349  0.73515646  1  0  -0.701676  0  1.914211  0  0  -0.65841  0  2.160101  0  0  -0.677941  0  2.143834  0  0  -0.390162  -0.644789  0  2.170321  0
O  O54  1  0.84525403  0.81375553  0.51962455  1  0  -0.725033  0  1.966735  0  0  -0.687796  0  2.232501  0  0  -0.706813  0  2.214047  0  0  -0.402748  -0.67475  0  2.244433  0
O  O55  1  0.98373764  0.87562608  0.70582069  1  0  -0.688365  0  1.999568  0  0  -0.62654  0  2.235503  0  0  -0.649087  0  2.219618  0  0  -0.316449  -0.610236  0  2.245918  0
O  O56  1  0.26926578  0.00554829  0.49418922  1  0  -0.917871  0  1.79843  0  0  -0.87741  0  1.970442  0  0  -0.892665  0  1.939057  0  0  -0.710282  -0.866932  0  1.992775  0
