# generated using pymatgen
data_Cu2H22C37N4O9
_symmetry_space_group_name_H-M   'P 1'
_cell_length_a   11.37213906
_cell_length_b   12.55077996
_cell_length_c   14.93650311
_cell_angle_alpha   80.07357397
_cell_angle_beta   67.62508842
_cell_angle_gamma   63.06197748
_symmetry_Int_Tables_number   1
_chemical_formula_structural   Cu2H22C37N4O9
_chemical_formula_sum   'Cu4 H44 C74 N8 O18'
_cell_volume   1757.47279415
_cell_formula_units_Z   2
loop_
 _symmetry_equiv_pos_site_id
 _symmetry_equiv_pos_as_xyz
  1  'x, y, z'
loop_
 _atom_site_type_symbol
 _atom_site_label
 _atom_site_symmetry_multiplicity
 _atom_site_fract_x
 _atom_site_fract_y
 _atom_site_fract_z
 _atom_site_occupancy
 _atom_site_hle17_ddec_charge
 _atom_site_hle17_ddec_spin_density
 _atom_site_hle17_ddec_sum_bond_order
 _atom_site_hle17_magmom
 _atom_site_hse06_10hf_ddec_charge
 _atom_site_hse06_10hf_ddec_spin_density
 _atom_site_hse06_10hf_ddec_sum_bond_order
 _atom_site_hse06_10hf_magmom
 _atom_site_hse06_ddec_charge
 _atom_site_hse06_ddec_spin_density
 _atom_site_hse06_ddec_sum_bond_order
 _atom_site_hse06_magmom
 _atom_site_pbe_cm5_charge
 _atom_site_pbe_ddec_charge
 _atom_site_pbe_ddec_spin_density
 _atom_site_pbe_ddec_sum_bond_order
 _atom_site_pbe_magmom
Cu  Cu0  1  0.31616009  0.33729668  0.01028616  1  0.817718  -0.704263  1.711681  -0.483  0.782205  -0.789877  2.097745  -0.599  0.87791  -0.871616  2.028453  -0.687  0.720481  0.724147  -0.732033  2.146999  -0.544
Cu  Cu1  1  0.66364372  0.66268158  0.98977316  1  0.81847  0.704339  1.711124  0.483  0.782483  0.789832  2.097609  0.599  0.878426  0.871586  2.028004  0.687  0.720609  0.723927  0.731522  2.147411  0.543
Cu  Cu2  1  0.07634494  0.83746641  0.48968203  1  0.816959  0.704522  1.712701  0.483  0.781681  0.789962  2.098741  0.599  0.877277  0.871687  2.02939  0.687  0.72063  0.722912  0.731583  2.148824  0.543
Cu  Cu3  1  0.40351825  0.16263757  0.51019934  1  0.817247  -0.704503  1.712982  -0.483  0.781749  -0.789938  2.099197  -0.599  0.877537  -0.871666  2.029689  -0.687  0.720418  0.723074  -0.732091  2.149354  -0.544
H  H4  1  0.21169387  0.28359462  0.21905476  1  0.090283  -0.000651  0.976409  -0.002  0.098348  -0.000606  1.039342  -0.001  0.100523  -0.000413  1.038022  -0.001  0.118046  0.096593  -0.000773  1.040465  -0.002
H  H5  1  0.71418695  0.71643468  0.78102162  1  0.089193  0.000649  0.977627  0.002  0.097676  0.000605  1.040046  0.001  0.099838  0.000412  1.038785  0.001  0.11742  0.095964  0.000771  1.041063  0.002
H  H6  1  0.18067805  0.78342152  0.28104195  1  0.089181  0.000649  0.977614  0.002  0.098073  0.000606  1.039634  0.001  0.100269  0.000413  1.038282  0.001  0.117292  0.096347  0.000773  1.040703  0.002
H  H7  1  0.24524665  0.21657889  0.71891743  1  0.090209  -0.000651  0.976372  -0.002  0.098916  -0.000607  1.038411  -0.001  0.101046  -0.000414  1.037227  -0.001  0.117885  0.097221  -0.000773  1.039408  -0.002
H  H8  1  0.01596457  0.23973591  0.33421477  1  0.123389  -0.000478  0.951317  0.0  0.133595  -0.000433  1.007864  0.0  0.137525  -0.000314  1.00588  0.0  0.113603  0.130746  -0.000519  1.009437  -0.001
H  H9  1  0.58991637  0.76012953  0.66577521  1  0.122417  0.000477  0.950965  0.0  0.133045  0.000432  1.007182  0.0  0.136933  0.000313  1.005248  0.0  0.113439  0.130214  0.000514  1.008724  0.001
H  H10  1  0.10001945  0.73952308  0.16595603  1  0.122442  0.000477  0.951845  0.0  0.13276  0.000433  1.008314  0.0  0.136678  0.000314  1.00636  0.0  0.113429  0.129934  0.000516  1.009863  0.001
H  H11  1  0.00566927  0.26029739  0.83406572  1  0.122416  -0.000477  0.95112  0.0  0.132377  -0.000433  1.008085  0.0  0.136288  -0.000314  1.006133  0.0  0.113212  0.129552  -0.000519  1.00963  -0.001
H  H12  1  0.85098275  0.31278805  0.10060017  1  0.128147  -0.000485  0.938673  0.0  0.140287  -0.00041  0.991757  0.0  0.143475  -0.000293  0.99081  0.0  0.117845  0.137921  -0.000495  0.992711  -0.001
H  H13  1  0.26419016  0.68725031  0.89941094  1  0.128701  0.000485  0.93822  0.0  0.140917  0.00041  0.991349  0.0  0.144105  0.000293  0.990386  0.0  0.117911  0.138539  0.000492  0.992336  0.001
H  H14  1  0.70129878  0.81296782  0.39961768  1  0.129163  0.000485  0.938598  0.0  0.141348  0.00041  0.991653  0.0  0.144521  0.000293  0.990706  0.0  0.117867  0.138966  0.000493  0.992639  0.001
H  H15  1  0.91392334  0.18710836  0.60039462  1  0.128197  -0.000483  0.938285  0.0  0.140059  -0.000409  0.991792  0.0  0.143238  -0.000293  0.990841  0.0  0.117509  0.137704  -0.000494  0.992725  -0.001
H  H16  1  0.05614184  0.34580975  0.99554223  1  0.094174  -0.000662  0.99087  -0.001  0.101201  -0.000598  1.054093  -0.001  0.103896  -0.000426  1.051535  -0.001  0.11725  0.099126  -0.000724  1.055946  -0.001
H  H17  1  0.39733907  0.65419375  0.00448513  1  0.095501  0.000662  0.989398  0.001  0.1018  0.000598  1.053385  0.001  0.104491  0.000425  1.050826  0.001  0.116861  0.09972  0.000724  1.055263  0.001
H  H18  1  0.80152944  0.84603829  0.50457796  1  0.094588  0.000662  0.990429  0.001  0.101303  0.000598  1.054303  0.001  0.10398  0.000425  1.05177  0.001  0.117005  0.099215  0.000722  1.056165  0.001
H  H19  1  0.15212390  0.15409955  0.49539101  1  0.094872  -0.000662  0.990233  -0.001  0.101402  -0.000598  1.054332  -0.001  0.104101  -0.000425  1.051771  -0.001  0.116722  0.099305  -0.000724  1.056253  -0.001
H  H20  1  0.69312179  0.10532592  0.50600952  1  0.091821  -0.000745  0.996936  -0.001  0.097526  -0.000653  1.064098  -0.001  0.099573  -0.000471  1.062406  -0.001  0.116208  0.095742  -0.000778  1.065603  -0.001
H  H21  1  0.30466516  0.89455339  0.49389563  1  0.090994  0.000741  0.996599  0.001  0.096869  0.000651  1.063576  0.001  0.098902  0.00047  1.061884  0.001  0.115713  0.095151  0.000774  1.064968  0.001
H  H22  1  0.94913861  0.60530062  0.99411105  1  0.091306  0.000747  0.996839  0.001  0.096823  0.000653  1.064247  0.001  0.098885  0.000472  1.062547  0.001  0.115404  0.095048  0.000776  1.065771  0.001
H  H23  1  0.54855764  0.39463528  0.00593720  1  0.090675  -0.000745  0.997899  -0.001  0.096597  -0.000654  1.064697  -0.001  0.098667  -0.000472  1.062971  -0.001  0.115651  0.094829  -0.000779  1.066173  -0.001
H  H24  1  0.89614497  0.14029873  0.39964742  1  0.130211  -0.000483  0.964447  -0.001  0.13735  -0.000402  1.027706  0.0  0.140735  -0.000291  1.026638  0.0  0.11249  0.134696  -0.000488  1.028925  -0.001
H  H25  1  0.43635700  0.85932011  0.60028780  1  0.129536  0.000483  0.963218  0.001  0.136971  0.000402  1.02625  0.0  0.140334  0.000291  1.025185  0.0  0.112192  0.13436  0.000483  1.027423  0.001
H  H26  1  0.04565095  0.64036590  0.10053597  1  0.128903  0.000483  0.965999  0.001  0.13611  0.000404  1.029232  0.0  0.139483  0.000292  1.028169  0.0  0.111815  0.133502  0.000486  1.030376  0.001
H  H27  1  0.78651135  0.35970311  0.89949343  1  0.12962  -0.00048  0.964925  -0.001  0.137899  -0.000402  1.026633  0.0  0.141186  -0.00029  1.025654  0.0  0.112769  0.135335  -0.000488  1.027786  -0.001
H  H28  1  0.65731019  0.33650402  0.20930355  1  0.119087  -0.000486  0.983867  -0.001  0.125177  -0.000433  1.049147  0.0  0.129199  -0.000317  1.047354  0.0  0.106635  0.122232  -0.00052  1.050608  -0.001
H  H29  1  0.20258910  0.66384247  0.79080927  1  0.119709  0.000483  0.981867  0.001  0.125233  0.000432  1.048026  0.0  0.129282  0.000316  1.046174  0.0  0.106327  0.122323  0.000519  1.049412  0.001
H  H30  1  0.61643079  0.83645878  0.29083308  1  0.11924  0.000484  0.983444  0.001  0.125077  0.000432  1.049157  0.0  0.129028  0.000316  1.047443  0.0  0.106634  0.122181  0.000523  1.050529  0.001
H  H31  1  0.74370347  0.16367528  0.70911661  1  0.11907  -0.000485  0.984253  -0.001  0.124788  -0.000432  1.050002  0.0  0.128731  -0.000317  1.04829  0.0  0.106469  0.121922  -0.00052  1.051324  -0.001
H  H32  1  0.46524027  0.28633725  0.32296217  1  0.086086  -0.000657  0.980182  -0.002  0.092682  -0.000609  1.047743  -0.001  0.094405  -0.000415  1.047106  -0.001  0.115027  0.091307  -0.000775  1.048282  -0.002
H  H33  1  0.07415438  0.71405898  0.67702890  1  0.087363  0.000656  0.98029  0.002  0.093107  0.000605  1.048461  0.001  0.094865  0.000412  1.047744  0.001  0.115149  0.091693  0.000757  1.049075  0.002
H  H34  1  0.53812955  0.78640524  0.17703765  1  0.085802  0.000657  0.979555  0.002  0.091461  0.000608  1.048313  0.001  0.093169  0.000413  1.047686  0.001  0.114247  0.090084  0.000761  1.048845  0.002
H  H35  1  0.50155633  0.21369277  0.82290666  1  0.086265  -0.000653  0.978121  -0.002  0.092842  -0.000607  1.045805  -0.001  0.094598  -0.000413  1.045087  -0.001  0.114878  0.091452  -0.000773  1.046368  -0.002
H  H36  1  0.16169047  0.43809040  0.32519749  1  0.112526  0.000246  0.933399  0.0  0.121277  3.2e-05  0.995236  0.0  0.125545  3.2e-05  0.991479  0.0  0.110037  0.118161  1.3e-05  0.998024  0.0
H  H37  1  0.92495278  0.56156413  0.67489552  1  0.113827  -0.000247  0.93346  0.0  0.122595  -3.3e-05  0.995035  0.0  0.126861  -3.1e-05  0.99129  0.0  0.110632  0.119568  -3.8e-05  0.997733  0.0
H  H38  1  0.23672662  0.93824218  0.17479768  1  0.112773  -0.000248  0.933926  0.0  0.121457  -3.2e-05  0.995703  0.0  0.125741  -3.1e-05  0.991932  0.0  0.110004  0.11843  -3.6e-05  0.998427  0.0
H  H39  1  0.34993610  0.06148623  0.82505217  1  0.113485  0.000247  0.932561  0.0  0.122264  3.2e-05  0.994322  0.0  0.126616  3.1e-05  0.990472  0.0  0.110376  0.119116  1.2e-05  0.99714  0.0
H  H40  1  0.46315103  0.63295962  0.31267044  1  0.108175  -0.00018  0.927196  0.0  0.120475  -1.6e-05  0.980622  0.0  0.124225  -1.9e-05  0.978399  0.0  0.108237  0.11783  -2.5e-05  0.982178  0.0
H  H41  1  0.40864609  0.36720920  0.68764750  1  0.107869  0.000185  0.927656  0.0  0.120319  1.7e-05  0.981031  0.0  0.124083  1.9e-05  0.978796  0.0  0.107884  0.117695  -5e-06  0.982569  0.0
H  H42  1  0.52589571  0.13288298  0.18739633  1  0.10864  0.000183  0.926427  0.0  0.120647  1.5e-05  0.980381  0.0  0.124422  1.9e-05  0.97812  0.0  0.108308  0.118022  -6e-06  0.981942  0.0
H  H43  1  0.84632658  0.86764002  0.81243491  1  0.109193  -0.000183  0.925694  0.0  0.121781  -1.6e-05  0.979015  0.0  0.125564  -1.9e-05  0.976779  0.0  0.108948  0.119097  -2.6e-05  0.98061  0.0
H  H44  1  0.30454693  0.59816460  0.47026636  1  0.089556  -8.6e-05  0.972665  0.0  0.097149  -0.000164  1.039899  0.0  0.099663  -0.000168  1.039  0.0  0.10052  0.095212  -0.000162  1.040903  0.0
H  H45  1  0.37301756  0.40173321  0.52997530  1  0.089348  8.5e-05  0.971909  0.0  0.096789  0.000164  1.039419  0.0  0.099323  0.000169  1.038522  0.0  0.100492  0.094852  0.000118  1.040425  0.0
H  H46  1  0.52479561  0.09818622  0.02979536  1  0.089679  8.5e-05  0.972415  0.0  0.096972  0.000165  1.040023  0.0  0.09956  0.000169  1.039061  0.0  0.100395  0.094944  0.000116  1.041113  0.0
H  H47  1  0.65297401  0.90196656  0.97004380  1  0.089669  -8.5e-05  0.972092  0.0  0.096503  -0.000165  1.040259  0.0  0.099095  -0.000169  1.039298  0.0  0.100299  0.094499  -0.000165  1.041304  0.0
C  C48  1  0.12914459  0.28875706  0.19632899  1  0.119561  0.004977  3.707281  0.005  0.093552  1.5e-05  3.956849  0.0  0.101539  0.001079  3.978995  0.002  0.041171  0.088675  -0.000838  3.941962  0.0
C  C49  1  0.61412847  0.71118282  0.80370490  1  0.120505  -0.004972  3.706631  -0.005  0.094315  -1.1e-05  3.956513  0.0  0.102293  -0.001073  3.978641  -0.002  0.040944  0.089285  0.000824  3.941982  0.0
C  C50  1  0.07535774  0.78867822  0.30378220  1  0.118654  -0.00497  3.70759  -0.005  0.091889  -1.1e-05  3.956951  0.0  0.099847  -0.001078  3.979123  -0.002  0.040527  0.086761  0.000831  3.942561  0.0
C  C51  1  0.16792254  0.21131679  0.69617954  1  0.118955  0.004971  3.706164  0.005  0.092742  1.2e-05  3.955139  0.0  0.1007  0.001075  3.977301  0.002  0.041543  0.087859  -0.000836  3.940356  0.0
C  C52  1  0.01804003  0.26508373  0.26032520  1  -0.150205  -0.00829  3.691493  -0.009  -0.16696  -0.003557  3.931034  -0.004  -0.175502  -0.003164  3.951703  -0.004  -0.078535  -0.161367  -0.003794  3.916967  -0.004
C  C53  1  0.54344117  0.73475245  0.73965697  1  -0.147694  0.008285  3.688664  0.009  -0.164979  0.003564  3.92846  0.004  -0.173477  0.003156  3.949166  0.004  -0.077048  -0.159429  0.003783  3.914449  0.004
C  C54  1  0.02819958  0.76500227  0.23982614  1  -0.147365  0.008278  3.688676  0.009  -0.163742  0.003553  3.928663  0.004  -0.172275  0.003162  3.94938  0.004  -0.076265  -0.158112  0.003779  3.914577  0.004
C  C55  1  0.03314048  0.23492747  0.76016480  1  -0.146168  -0.008287  3.686849  -0.009  -0.162364  -0.003556  3.927206  -0.004  -0.170865  -0.003161  3.947889  -0.004  -0.076187  -0.156841  -0.003785  3.913175  -0.004
C  C56  1  0.91397602  0.27112624  0.22833560  1  0.097137  0.005971  3.750422  0.005  0.110947  0.002065  3.977358  0.002  0.115699  0.002264  3.997565  0.002  0.016986  0.107837  0.001838  3.963529  0.002
C  C57  1  0.41342164  0.72866145  0.77163772  1  0.097121  -0.005962  3.750651  -0.005  0.11061  -0.002074  3.977273  -0.002  0.115349  -0.002252  3.997508  -0.002  0.017039  0.107477  -0.001854  3.963502  -0.002
C  C58  1  0.89206873  0.77116407  0.27185703  1  0.099729  -0.005961  3.746609  -0.005  0.111621  -0.002064  3.975174  -0.002  0.116373  -0.002264  3.995381  -0.002  0.017067  0.108509  -0.001859  3.961371  -0.002
C  C59  1  0.93518692  0.22877763  0.72815506  1  0.095523  0.005962  3.749041  0.005  0.107307  0.002061  3.97827  0.002  0.112038  0.002256  3.9985  0.002  0.014584  0.104245  0.001832  3.964427  0.002
C  C60  1  0.92795838  0.30337711  0.13138556  1  -0.135402  -0.007968  3.65333  -0.008  -0.153431  -0.003295  3.891823  -0.004  -0.160938  -0.003014  3.910775  -0.004  -0.07127  -0.148602  -0.00349  3.87916  -0.004
C  C61  1  0.36261666  0.69654677  0.86861041  1  -0.13474  0.007952  3.651812  0.008  -0.153266  0.003298  3.890236  0.004  -0.160764  0.003004  3.90918  0.004  -0.070722  -0.148499  0.003483  3.877676  0.004
C  C62  1  0.80907416  0.80352799  0.36879798  1  -0.137805  0.007952  3.651833  0.008  -0.155546  0.003294  3.891091  0.004  -0.163063  0.003014  3.910057  0.004  -0.071515  -0.150702  0.003484  3.878473  0.004
C  C63  1  0.98146058  0.19651594  0.63120940  1  -0.136259  -0.007961  3.653898  -0.008  -0.15351  -0.003292  3.893004  -0.004  -0.16101  -0.003008  3.911976  -0.004  -0.070531  -0.148746  -0.003485  3.880359  -0.004
C  C64  1  0.04349063  0.32379961  0.07114680  1  0.141758  0.005506  3.672775  0.005  0.112191  0.000486  3.925734  0.001  0.121538  0.0015  3.94481  0.002  0.048656  0.106356  -0.000305  3.913077  0.0
C  C65  1  0.43831800  0.67614711  0.92887164  1  0.136901  -0.005497  3.670123  -0.005  0.108439  -0.00048  3.922851  -0.001  0.11778  -0.001495  3.941922  -0.002  0.047002  0.102593  0.000299  3.91025  0.0
C  C66  1  0.86444911  0.82396313  0.42899156  1  0.141176  -0.005501  3.671806  -0.005  0.111419  -0.000484  3.925041  -0.001  0.120758  -0.001498  3.944118  -0.002  0.048204  0.105597  0.000295  3.912372  0.0
C  C67  1  0.11742930  0.17612150  0.57099484  1  0.142246  0.005507  3.673461  0.005  0.112716  0.00049  3.92625  0.001  0.122054  0.001501  3.945321  0.002  0.048852  0.106905  -0.000298  3.913582  0.0
C  C68  1  0.68849111  0.15504641  0.43944771  1  0.137512  0.00552  3.676046  0.005  0.109094  0.000584  3.9257  0.001  0.118748  0.001567  3.944842  0.002  0.045544  0.103036  -0.000276  3.913124  0.0
C  C69  1  0.28310455  0.84486558  0.56045737  1  0.137913  -0.005503  3.677165  -0.005  0.109324  -0.000579  3.926932  -0.001  0.119011  -0.001561  3.945992  -0.002  0.045395  0.103216  0.000243  3.914362  0.0
C  C70  1  0.87788192  0.65511297  0.06062495  1  0.138802  -0.005538  3.674943  -0.006  0.110298  -0.000579  3.924309  -0.001  0.119967  -0.001567  3.943441  -0.002  0.045833  0.10416  0.000247  3.911749  0.0
C  C71  1  0.59359787  0.34492622  0.93936209  1  0.138778  0.005513  3.677758  0.005  0.11012  0.000584  3.927797  0.001  0.119787  0.001568  3.946878  0.002  0.045796  0.104067  -0.000274  3.915253  0.0
C  C72  1  0.80277780  0.17720956  0.37903988  1  -0.149633  -0.007662  3.653425  -0.008  -0.164591  -0.003156  3.891017  -0.004  -0.172783  -0.002875  3.910641  -0.003  -0.076856  -0.159212  -0.003298  3.877921  -0.004
C  C73  1  0.35918525  0.82252919  0.62088147  1  -0.148943  0.007641  3.656578  0.008  -0.164708  0.003162  3.893723  0.004  -0.172883  0.002864  3.913335  0.003  -0.077049  -0.159414  0.003291  3.880706  0.004
C  C74  1  0.93167408  0.67733648  0.12107568  1  -0.149812  0.007683  3.655104  0.008  -0.165604  0.003157  3.89239  0.004  -0.173784  0.002878  3.911997  0.003  -0.077049  -0.160257  0.003297  3.879301  0.004
C  C75  1  0.73004153  0.32279938  0.87889020  1  -0.149472  -0.007663  3.655829  -0.008  -0.165636  -0.003155  3.893053  -0.004  -0.173738  -0.002878  3.912699  -0.003  -0.076891  -0.160379  -0.003295  3.879987  -0.004
C  C76  1  0.79580010  0.24381179  0.29393561  1  0.101733  0.005703  3.751962  0.005  0.112538  0.001936  3.979517  0.002  0.117668  0.002161  3.999667  0.002  0.016627  0.109207  0.001685  3.96574  0.002
C  C77  1  0.33344389  0.75611953  0.70607069  1  0.097546  -0.005702  3.753889  -0.005  0.110146  -0.00195  3.978863  -0.002  0.115273  -0.002155  3.999025  -0.002  0.015046  0.106834  -0.001705  3.965037  -0.002
C  C78  1  0.83956425  0.74386114  0.20622685  1  0.098037  -0.005733  3.751461  -0.005  0.111198  -0.001939  3.976782  -0.002  0.116332  -0.002169  3.996905  -0.002  0.015218  0.107855  -0.001707  3.96303  -0.002
C  C79  1  0.78963708  0.25624474  0.79374531  1  0.099766  0.005697  3.752703  0.005  0.112205  0.001932  3.979253  0.002  0.11734  0.002161  3.999396  0.002  0.016573  0.108878  0.001684  3.965411  0.002
C  C80  1  0.67159169  0.28344094  0.27358239  1  -0.162094  -0.007993  3.690189  -0.008  -0.176072  -0.003568  3.928598  -0.004  -0.185059  -0.003157  3.949535  -0.004  -0.083029  -0.170244  -0.003808  3.91454  -0.004
C  C81  1  0.22824082  0.71676939  0.72647699  1  -0.159077  0.007969  3.691824  0.008  -0.173433  0.003565  3.929044  0.004  -0.182449  0.003142  3.950006  0.004  -0.081431  -0.167529  0.003779  3.914879  0.004
C  C82  1  0.69501173  0.78344757  0.22653404  1  -0.159794  0.008006  3.694295  0.008  -0.1741  0.003562  3.931872  0.004  -0.183041  0.003157  3.95289  0.004  -0.081529  -0.168293  0.003795  3.917728  0.004
C  C83  1  0.70496870  0.21666652  0.77342883  1  -0.158789  -0.007969  3.693191  -0.008  -0.172836  -0.003557  3.930924  -0.004  -0.181763  -0.003152  3.951961  -0.004  -0.081468  -0.166954  -0.003787  3.916644  -0.004
C  C84  1  0.56226797  0.25696752  0.33721738  1  0.119305  0.004702  3.701258  0.005  0.093372  -0.000157  3.950601  0.0  0.101763  0.000894  3.971932  0.001  0.039274  0.088219  -0.000987  3.936396  -0.001
C  C85  1  0.15618209  0.74328569  0.66277554  1  0.115855  -0.004696  3.707925  -0.005  0.091052  0.00016  3.956354  0.0  0.099438  -0.000888  3.977727  -0.001  0.037969  0.085606  0.000971  3.942652  0.001
C  C86  1  0.64940665  0.75705648  0.16280488  1  0.118785  -0.004718  3.709144  -0.005  0.093074  0.000162  3.958425  0.0  0.101493  -0.000895  3.979805  -0.001  0.038435  0.087726  0.000977  3.944452  0.001
C  C87  1  0.56923740  0.24306207  0.83714056  1  0.11721  0.004676  3.703178  0.005  0.091472  -0.000167  3.952404  0.0  0.099849  0.000888  3.973794  0.001  0.03833  0.086099  -0.000995  3.938618  -0.001
C  C88  1  0.23056050  0.47854647  0.32119626  1  -0.075139  -0.005573  3.679128  -0.005  -0.110198  -0.002121  3.933309  -0.002  -0.108066  -0.001665  3.949129  -0.002  -0.073875  -0.11148  -0.002807  3.9226  -0.002
C  C89  1  0.03023864  0.52123699  0.67893715  1  -0.076765  0.005631  3.680773  0.005  -0.111913  0.002146  3.934962  0.002  -0.109772  0.001661  3.950747  0.002  -0.074396  -0.113293  0.002119  3.924245  0.002
C  C90  1  0.30170639  0.97858960  0.17878803  1  -0.076096  0.00564  3.679664  0.005  -0.110819  0.002154  3.933383  0.002  -0.108736  0.001673  3.949137  0.002  -0.073831  -0.112198  0.002102  3.922702  0.002
C  C91  1  0.45927893  0.02124864  0.82102231  1  -0.077166  -0.005665  3.678662  -0.005  -0.112709  -0.00215  3.932713  -0.002  -0.110653  -0.001686  3.948492  -0.002  -0.074987  -0.113944  -0.002874  3.922013  -0.003
C  C92  1  0.32144189  0.49622914  0.23233982  1  -0.056835  -0.004118  3.712633  -0.005  -0.040433  -0.002649  3.945899  -0.003  -0.044984  -0.001641  3.963483  -0.002  -0.005262  -0.037619  -0.003647  3.934089  -0.004
C  C93  1  0.04988591  0.50370701  0.76781145  1  -0.054497  0.004056  3.709736  0.005  -0.038003  0.002636  3.942205  0.003  -0.042541  0.00163  3.959853  0.002  -0.004482  -0.035042  0.003309  3.930173  0.004
C  C94  1  0.30371711  0.99628355  0.26764217  1  -0.056194  0.004052  3.710108  0.005  -0.040269  0.002627  3.943781  0.003  -0.044702  0.001621  3.961154  0.002  -0.005911  -0.037411  0.003293  3.931963  0.004
C  C95  1  0.56779644  0.00371096  0.73217049  1  -0.055552  -0.004055  3.711172  -0.005  -0.038723  -0.00264  3.943796  -0.003  -0.043322  -0.001625  3.961502  -0.002  -0.005068  -0.035893  -0.003639  3.931942  -0.004
C  C96  1  0.40672165  0.55157258  0.22926108  1  -0.04189  0.004914  3.698155  0.005  -0.028082  0.002944  3.929514  0.004  -0.030756  0.00179  3.946266  0.002  -1.8e-05  -0.026281  0.00386  3.918174  0.004
C  C97  1  0.18738668  0.44850720  0.77094899  1  -0.042488  -0.004849  3.696673  -0.005  -0.028981  -0.00295  3.928881  -0.004  -0.031622  -0.001777  3.94555  -0.002  -0.000648  -0.027074  -0.003109  3.917341  -0.004
C  C98  1  0.38601739  0.05151652  0.27075708  1  -0.041717  -0.004868  3.694194  -0.005  -0.02823  -0.002945  3.926337  -0.003  -0.030802  -0.001777  3.942792  -0.002  0.000361  -0.026373  -0.003087  3.91498  -0.004
C  C99  1  0.70840633  0.94869044  0.72909341  1  -0.042069  0.004829  3.696703  0.005  -0.028053  0.002934  3.927981  0.003  -0.030637  0.001766  3.944578  0.002  -0.000143  -0.02648  0.003846  3.916878  0.004
C  C100  1  0.39967858  0.58772739  0.31525737  1  -0.066084  0.003956  3.726779  0.004  -0.09003  0.0014  3.983768  0.001  -0.08989  0.001144  4.000357  0.001  -0.082344  -0.090002  0.00195  3.972501  0.002
C  C101  1  0.30254531  0.41229055  0.68499902  1  -0.067003  -0.004024  3.725888  -0.004  -0.090931  -0.00139  3.983099  -0.001  -0.090818  -0.001159  3.999711  -0.001  -0.081746  -0.090865  -0.001825  3.97162  -0.002
C  C102  1  0.46493143  0.08772825  0.18481064  1  -0.065507  -0.004023  3.723627  -0.004  -0.089019  -0.001404  3.980392  -0.001  -0.088949  -0.001162  3.997025  -0.001  -0.081436  -0.089003  -0.001807  3.96895  -0.002
C  C103  1  0.73760103  0.91264029  0.81504633  1  -0.067307  0.004045  3.721415  0.004  -0.091662  0.001413  3.978227  0.001  -0.091621  0.001171  3.994897  0.001  -0.082652  -0.091499  0.002008  3.966865  0.002
C  C104  1  0.31007326  0.56819468  0.40396952  1  -0.093809  -0.00516  3.758971  -0.004  -0.124642  -0.001793  4.030877  -0.001  -0.126326  -0.001589  4.051271  -0.001  -0.086685  -0.123787  -0.001942  4.017648  -0.002
C  C105  1  0.28220458  0.43164823  0.59624939  1  -0.090814  0.005226  3.752251  0.004  -0.121494  0.001802  4.023974  0.001  -0.123194  0.001592  4.044365  0.001  -0.08629  -0.120443  0.002826  4.010617  0.002
C  C106  1  0.46398823  0.06822450  0.09608074  1  -0.093875  0.005221  3.754983  0.004  -0.124522  0.001807  4.026622  0.001  -0.126287  0.001597  4.047038  0.001  -0.086602  -0.123402  0.002817  4.013116  0.002
C  C107  1  0.62846658  0.93194310  0.90377161  1  -0.09181  -0.005235  3.752405  -0.004  -0.122088  -0.001806  4.024078  -0.001  -0.123841  -0.001605  4.044461  -0.001  -0.086368  -0.121194  -0.001976  4.010911  -0.002
C  C108  1  0.22405540  0.51401581  0.40773960  1  -0.03434  0.005175  3.773724  0.005  -0.021929  0.001806  4.02187  0.002  -0.02846  0.001398  4.047715  0.001  -0.020229  -0.017551  0.002169  4.00493  0.002
C  C109  1  0.14579442  0.48570850  0.59245261  1  -0.036349  -0.005234  3.773042  -0.005  -0.023876  -0.001836  4.021092  -0.002  -0.030431  -0.001394  4.046946  -0.001  -0.019668  -0.019486  -0.002528  4.004172  -0.002
C  C110  1  0.38179381  0.01402382  0.09226766  1  -0.033996  -0.005233  3.771164  -0.005  -0.021246  -0.001835  4.018433  -0.002  -0.027759  -0.001401  4.044337  -0.001  -0.019911  -0.016838  -0.002511  4.001387  -0.002
C  C111  1  0.48829837  0.98584197  0.90755184  1  -0.034287  0.005245  3.769116  0.005  -0.021165  0.001826  4.016225  0.002  -0.027661  0.00141  4.042106  0.001  -0.019255  -0.016821  0.002217  3.99941  0.002
C  C112  1  0.11832769  0.49984642  0.50007986  1  0.382348  9e-06  3.728064  0.0  0.364581  -2e-06  3.991216  0.0  0.384579  5e-06  3.995494  0.0  0.156488  0.350049  -4.4e-05  3.989611  0.0
C  C113  1  0.36849130  0.99982259  0.99989994  1  0.379865  -3e-06  3.727583  0.0  0.361973  -1e-06  3.990692  0.0  0.381829  0.0  3.995194  0.0  0.156061  0.347383  -4.5e-05  3.989173  0.0
C  C114  1  0.31776085  0.46786993  0.13975441  1  0.629517  0.003841  3.91955  0.007  0.581798  -0.000115  4.23067  0.003  0.618567  0.00041  4.223458  0.003  0.201817  0.556901  -0.000568  4.2349  0.003
C  C115  1  0.92529303  0.53203807  0.86036797  1  0.630377  -0.003836  3.920182  -0.007  0.583367  0.000114  4.230257  -0.003  0.620086  -0.000408  4.223075  -0.003  0.204029  0.558388  0.000445  4.234532  -0.003
C  C116  1  0.20738730  0.96809416  0.36021201  1  0.631833  -0.003844  3.914292  -0.007  0.584877  0.000112  4.22467  -0.003  0.621581  -0.000409  4.217392  -0.003  0.204975  0.559942  0.000441  4.228953  -0.003
C  C117  1  0.53575227  0.03194223  0.63962263  1  0.631625  0.003847  3.912364  0.007  0.583726  -0.000109  4.223987  0.003  0.620464  0.000412  4.216784  0.003  0.20324  0.558868  -0.00056  4.228144  0.003
C  C118  1  0.51267974  0.56380244  0.13492397  1  0.629746  -0.004378  3.917155  -0.008  0.582457  -0.000248  4.22849  -0.003  0.619068  -0.000725  4.221543  -0.003  0.203591  0.557572  0.000208  4.232641  -0.003
C  C119  1  0.21129089  0.43617917  0.86527414  1  0.630339  0.004372  3.920765  0.008  0.582622  0.000249  4.232699  0.003  0.619268  0.000725  4.225657  0.003  0.203197  0.55765  -0.000178  4.237005  0.003
C  C120  1  0.39763053  0.06369474  0.36511292  1  0.628277  0.004366  3.918414  0.008  0.581157  0.000243  4.229532  0.003  0.617732  0.000723  4.222637  0.003  0.202519  0.556257  -0.000186  4.233678  0.003
C  C121  1  0.82656674  0.93643819  0.63477904  1  0.627248  -0.004364  3.917004  -0.008  0.579635  -0.000243  4.228617  -0.003  0.61622  -0.000722  4.221697  -0.003  0.202761  0.554815  0.000216  4.232669  -0.003
N  N122  1  0.14348255  0.31669580  0.10243320  1  -0.308919  -0.076116  3.31485  -0.091  -0.257936  -0.053089  3.610673  -0.068  -0.29069  -0.044773  3.634425  -0.061  -0.344477  -0.238392  -0.057001  3.596741  -0.071
N  N123  1  0.56248838  0.68324621  0.89761064  1  -0.307264  0.076025  3.31133  0.091  -0.256867  0.053066  3.607311  0.068  -0.289623  0.044763  3.631011  0.061  -0.343505  -0.237344  0.056995  3.593629  0.071
N  N124  1  0.99577117  0.81676603  0.39766232  1  -0.308362  0.075992  3.313267  0.091  -0.256826  0.053016  3.608644  0.068  -0.289505  0.044716  3.632331  0.061  -0.344505  -0.237197  0.056881  3.5948  0.071
N  N125  1  0.21025926  0.18330764  0.60229182  1  -0.310114  -0.075945  3.316833  -0.091  -0.258843  -0.052986  3.612513  -0.068  -0.291588  -0.044691  3.63618  -0.061  -0.345187  -0.239226  -0.056913  3.59885  -0.071
N  N126  1  0.56932459  0.19410099  0.41964352  1  -0.308921  -0.075416  3.315879  -0.09  -0.256157  -0.053145  3.608054  -0.068  -0.288017  -0.044775  3.629663  -0.061  -0.347203  -0.237124  -0.057051  3.595709  -0.071
N  N127  1  0.18300560  0.80601598  0.58027762  1  -0.305965  0.07523  3.316008  0.09  -0.253385  0.053031  3.607479  0.068  -0.285187  0.044684  3.629074  0.061  -0.344842  -0.234318  0.056814  3.595109  0.071
N  N128  1  0.73892075  0.69416767  0.08037478  1  -0.307978  0.075363  3.317265  0.091  -0.254041  0.053091  3.607922  0.069  -0.285949  0.044721  3.629578  0.061  -0.34479  -0.235031  0.056896  3.59547  0.071
N  N129  1  0.51345642  0.30586647  0.91961629  1  -0.308613  -0.075358  3.316829  -0.09  -0.255962  -0.053088  3.60929  -0.068  -0.287808  -0.044723  3.630922  -0.061  -0.346984  -0.236992  -0.056986  3.596845  -0.071
O  O130  1  0.35535766  0.35664068  0.12497963  1  -0.589756  -0.103369  2.066443  -0.131  -0.559918  -0.066216  2.348524  -0.093  -0.604745  -0.051784  2.343094  -0.077  -0.317128  -0.529828  -0.074786  2.352116  -0.101
O  O131  1  0.83679439  0.64325136  0.87504201  1  -0.590958  0.103396  2.066423  0.131  -0.561255  0.066233  2.348039  0.093  -0.606212  0.051795  2.342788  0.077  -0.319101  -0.530803  0.074862  2.351489  0.101
O  O132  1  0.23014346  0.85686456  0.37501038  1  -0.59022  0.10342  2.063115  0.131  -0.561459  0.066237  2.34576  0.093  -0.606326  0.0518  2.340386  0.077  -0.319104  -0.530946  0.074885  2.349238  0.101
O  O133  1  0.46214666  0.14317465  0.62483726  1  -0.590158  -0.103365  2.064719  -0.131  -0.560891  -0.06621  2.347476  -0.093  -0.605786  -0.05179  2.342108  -0.077  -0.317643  -0.530678  -0.07478  2.351132  -0.101
O  O134  1  0.27774815  0.55163226  0.08386576  1  -0.590485  0.000415  1.939737  -0.001  -0.557245  0.000201  2.177578  -0.001  -0.582664  0.000976  2.168559  0.001  -0.302589  -0.539395  -0.000607  2.183545  -0.002
O  O135  1  0.91324107  0.44834110  0.91636568  1  -0.591871  -0.000423  1.94157  0.001  -0.559087  -0.000207  2.179177  0.001  -0.584476  -0.000976  2.170147  -0.001  -0.303332  -0.541216  0.000535  2.185212  0.001
O  O136  1  0.11154409  0.05186107  0.41611931  1  -0.592854  -0.000431  1.940152  0.001  -0.559554  -0.000209  2.177584  0.001  -0.584972  -0.000978  2.16856  -0.001  -0.303796  -0.541678  0.00053  2.18362  0.001
O  O137  1  0.57937902  0.94816115  0.58378563  1  -0.592533  0.000428  1.937922  -0.001  -0.559256  0.000205  2.176113  -0.001  -0.584574  0.000977  2.166873  0.001  -0.303539  -0.541392  -0.000596  2.182041  -0.002
O  O138  1  0.61078797  0.47106488  0.09056192  1  -0.590833  -0.000508  1.925895  0.001  -0.557459  -0.00032  2.161006  0.0  -0.583303  -0.001099  2.15181  -0.001  -0.305145  -0.539156  0.000468  2.167047  0.001
O  O139  1  0.17242498  0.52883807  0.90968346  1  -0.591539  0.000513  1.930117  -0.001  -0.557542  0.000316  2.164956  0.0  -0.583419  0.001104  2.15568  0.001  -0.304957  -0.539363  -0.000424  2.171109  -0.001
O  O140  1  0.45148501  0.97100252  0.40946478  1  -0.58938  0.000515  1.925833  -0.001  -0.556094  0.000318  2.161038  0.0  -0.581846  0.001101  2.151685  0.001  -0.304384  -0.537979  -0.000456  2.167178  -0.001
O  O141  1  0.83217073  0.02913039  0.59046300  1  -0.589856  -0.000524  1.924058  0.001  -0.556251  -0.000322  2.159208  0.0  -0.581973  -0.001102  2.149791  -0.001  -0.304879  -0.537992  0.000474  2.165302  0.001
O  O142  1  0.49579575  0.67151181  0.10648170  1  -0.581433  0.105586  2.032225  0.134  -0.553925  0.067852  2.311402  0.095  -0.598375  0.053226  2.305068  0.079  -0.318072  -0.524116  0.076005  2.315736  0.102
O  O143  1  0.27368673  0.32842489  0.89363600  1  -0.581485  -0.105563  2.032914  -0.134  -0.554258  -0.067874  2.312575  -0.095  -0.598603  -0.053242  2.306024  -0.079  -0.317942  -0.524478  -0.075949  2.316951  -0.102
O  O144  1  0.35222683  0.17142563  0.39355827  1  -0.58053  -0.10547  2.034427  -0.134  -0.55296  -0.06783  2.313173  -0.095  -0.597401  -0.053214  2.306878  -0.079  -0.317449  -0.523086  -0.075878  2.317489  -0.102
O  O145  1  0.91722682  0.82869188  0.60631918  1  -0.579927  0.105639  2.034708  0.134  -0.552357  0.067968  2.313561  0.095  -0.596725  0.053335  2.307208  0.079  -0.317279  -0.522492  0.076145  2.317914  0.102
O  O146  1  0.00955963  0.49994937  0.50005932  1  -0.445551  -1.5e-05  1.862305  0.0  -0.41244  2e-06  2.048034  0.0  -0.425642  -7e-06  2.044518  0.0  -0.271861  -0.403438  0.000489  2.050871  0.001
O  O147  1  0.25982076  0.99965384  0.99989758  1  -0.445032  6e-06  1.862146  0.0  -0.412036  2e-06  2.047962  0.0  -0.425201  2e-06  2.044535  0.0  -0.271953  -0.403023  0.000498  2.050831  0.001
