# generated using pymatgen
data_CoH30(C22N3)2
_symmetry_space_group_name_H-M   'P 1'
_cell_length_a   9.26919136
_cell_length_b   19.10972881
_cell_length_c   19.11086394
_cell_angle_alpha   117.43675319
_cell_angle_beta   99.30655388
_cell_angle_gamma   99.30868946
_symmetry_Int_Tables_number   1
_chemical_formula_structural   CoH30(C22N3)2
_chemical_formula_sum   'Co3 H90 C132 N18'
_cell_volume   2854.91886064
_cell_formula_units_Z   3
loop_
 _symmetry_equiv_pos_site_id
 _symmetry_equiv_pos_as_xyz
  1  'x, y, z'
loop_
 _atom_site_type_symbol
 _atom_site_label
 _atom_site_symmetry_multiplicity
 _atom_site_fract_x
 _atom_site_fract_y
 _atom_site_fract_z
 _atom_site_occupancy
 _atom_site_pbe_bader_charge
 _atom_site_pbe_bader_spin_density
 _atom_site_pbe_cm5_charge
 _atom_site_pbe_ddec_charge
 _atom_site_pbe_ddec_spin_density
 _atom_site_pbe_ddec_sum_bond_order
 _atom_site_pbe_magmom
Co  Co0  1  0.00000100  0.00000178  0.50000081  1  1.115351  1.005306  0.666983  0.485696  1.099351  3.073442  0.997
Co  Co1  1  0.50000015  0.49999895  0.50000073  1  1.113666  1.005493  0.667053  0.487288  1.099324  3.069626  0.997
Co  Co2  1  0.99999980  0.49999981  0.99999909  1  1.113974  1.004559  0.667949  0.488109  1.098206  3.068684  0.996
H  H3  1  0.74871142  0.23272914  0.65426152  1  0.083676  6.6e-05  0.101758  0.121238  2.9e-05  1.016572  0.0
H  H4  1  0.09454198  0.34570543  0.57848968  1  0.046283  4.5e-05  0.101794  0.121258  2.9e-05  1.016843  0.0
H  H5  1  0.51600537  0.42151468  0.76726638  1  0.086371  6.6e-05  0.102179  0.121764  3.1e-05  1.01707  0.0
H  H6  1  0.25128682  0.76727121  0.34573777  1  0.083283  6.6e-05  0.101761  0.121251  2.9e-05  1.016547  0.0
H  H7  1  0.90545674  0.65429369  0.42151065  1  0.046305  4.5e-05  0.101808  0.121285  2.8e-05  1.016883  0.0
H  H8  1  0.48399427  0.57848628  0.23273435  1  0.08636  6.6e-05  0.102186  0.121768  3.1e-05  1.0171  0.0
H  H9  1  0.56625892  0.14568853  0.49911022  1  0.08605  3.4e-05  0.098534  0.11289  -4e-06  1.055926  0.0
H  H10  1  0.06714293  0.50083399  0.64654964  1  0.099898  3.9e-05  0.0984  0.11243  -5e-06  1.055953  0.0
H  H11  1  0.42049230  0.35340158  0.85428957  1  0.085379  3.5e-05  0.09902  0.113108  -6e-06  1.056598  0.0
H  H12  1  0.43374041  0.85431182  0.50089073  1  0.086064  3.4e-05  0.098516  0.112858  -4e-06  1.055924  0.0
H  H13  1  0.93285549  0.49916453  0.35344934  1  0.099889  3.9e-05  0.098389  0.11243  -5e-06  1.055974  0.0
H  H14  1  0.57950892  0.64659815  0.14570967  1  0.085388  3.5e-05  0.099027  0.113118  -6e-06  1.056563  0.0
H  H15  1  0.57078960  0.88651863  0.22879325  1  0.063446  2.6e-05  0.10085  0.119203  -2e-06  1.027631  0.0
H  H16  1  0.34202580  0.77118446  0.65771050  1  0.062852  2.3e-05  0.101082  0.119411  -3e-06  1.027058  0.0
H  H17  1  0.68432009  0.34229718  0.11350040  1  0.090363  3.5e-05  0.100711  0.11892  -3e-06  1.028467  0.0
H  H18  1  0.42921130  0.11348050  0.77120621  1  0.063436  2.6e-05  0.100843  0.119175  -2e-06  1.027648  0.0
H  H19  1  0.65797463  0.22881589  0.34229000  1  0.06285  2.3e-05  0.101059  0.119379  -3e-06  1.027074  0.0
H  H20  1  0.31567815  0.65770317  0.88649889  1  0.090359  3.5e-05  0.100716  0.118932  -3e-06  1.028464  0.0
H  H21  1  0.75826466  0.78885787  0.18850987  1  0.100189  1.6e-05  0.099873  0.1192  -1.1e-05  1.045669  0.0
H  H22  1  0.56979045  0.81147676  0.60034932  1  0.080147  4e-06  0.099834  0.119093  -1.1e-05  1.04557  0.0
H  H23  1  0.96947881  0.39966784  0.21112645  1  0.088847  9e-06  0.099878  0.119725  -1.1e-05  1.045177  0.0
H  H24  1  0.24173546  0.21114187  0.81149085  1  0.100183  1.6e-05  0.099878  0.119206  -1.1e-05  1.045646  0.0
H  H25  1  0.43020688  0.18852176  0.39964957  1  0.080128  4e-06  0.099854  0.119141  -1.1e-05  1.045521  0.0
H  H26  1  0.03052053  0.60033251  0.78887345  1  0.08883  9e-06  0.099877  0.119722  -1.1e-05  1.045167  0.0
H  H27  1  0.38527388  0.98293219  0.41774493  1  0.08414  -7.2e-05  0.097942  0.103068  -0.000115  1.037379  0.0
H  H28  1  0.96730929  0.58224374  0.56514491  1  0.079302  -7.3e-05  0.097384  0.102496  -0.000117  1.037761  0.0
H  H29  1  0.40226029  0.43479483  0.01704938  1  0.067015  -7.3e-05  0.097369  0.102687  -0.000116  1.037329  0.0
H  H30  1  0.61472467  0.01706877  0.58225519  1  0.084124  -7.2e-05  0.097944  0.103081  -0.000115  1.037349  0.0
H  H31  1  0.03269162  0.41775539  0.43485560  1  0.079285  -7.3e-05  0.097382  0.102482  -0.000117  1.037753  0.0
H  H32  1  0.59773983  0.56520491  0.98294977  1  0.067015  -7.3e-05  0.097368  0.102686  -0.000116  1.037333  0.0
H  H33  1  0.14846306  0.98679611  0.34130892  1  0.101323  -0.000142  0.099098  0.103762  -0.000197  1.041907  0.0
H  H34  1  0.80699942  0.65870120  0.64545365  1  0.092612  -0.000139  0.099522  0.103929  -0.000195  1.042173  0.0
H  H35  1  0.16158597  0.35455764  0.01323956  1  0.098996  -0.00014  0.099929  0.105721  -0.000194  1.040413  0.0
H  H36  1  0.85153720  0.01320608  0.65869243  1  0.101335  -0.000142  0.099104  0.103725  -0.000197  1.041934  0.0
H  H37  1  0.19300070  0.34129854  0.35454603  1  0.092588  -0.000139  0.099528  0.103941  -0.000195  1.042199  0.0
H  H38  1  0.83841445  0.64544271  0.98675991  1  0.098967  -0.00014  0.099924  0.105709  -0.000194  1.040471  0.0
H  H39  1  0.39492468  0.05519714  0.19983433  1  0.038187  -3e-05  0.095441  0.095697  -2.4e-05  1.002219  0.0
H  H40  1  0.19498762  0.80011362  0.85533050  1  0.034743  -2.9e-05  0.096304  0.096791  -2.4e-05  1.00211  0.0
H  H41  1  0.33959609  0.14463958  0.94486653  1  0.031804  -3e-05  0.095837  0.09619  -2.4e-05  1.00179  0.0
H  H42  1  0.60507544  0.94480260  0.80016535  1  0.038183  -3e-05  0.095422  0.095662  -2.4e-05  1.002258  0.0
H  H43  1  0.80501281  0.19988673  0.14467001  1  0.034738  -2.9e-05  0.096308  0.096776  -2.4e-05  1.002135  0.0
H  H44  1  0.66040464  0.85536139  0.05513429  1  0.031796  -3e-05  0.095824  0.096142  -2.4e-05  1.001771  0.0
H  H45  1  0.63226980  0.04924711  0.27536240  1  0.063382  2.2e-05  0.098779  0.099893  5e-06  0.996133  0.0
H  H46  1  0.35669363  0.72457164  0.77386180  1  0.03778  2.1e-05  0.098433  0.098603  5e-06  0.997605  0.0
H  H47  1  0.58284665  0.22607692  0.95073936  1  0.033978  2.2e-05  0.098017  0.09845  5e-06  0.998443  0.0
H  H48  1  0.36772923  0.95075263  0.72463719  1  0.063314  2.2e-05  0.098788  0.099921  5e-06  0.996111  0.0
H  H49  1  0.64330649  0.27542810  0.22613840  1  0.037788  2.1e-05  0.098423  0.098589  5e-06  0.997588  0.0
H  H50  1  0.41715347  0.77392282  0.04925979  1  0.033996  2.2e-05  0.098023  0.098442  5e-06  0.998437  0.0
H  H51  1  0.00940455  0.98387117  0.21709846  1  0.036197  1e-05  0.091375  0.129989  -3e-06  1.001831  0.0
H  H52  1  0.79214841  0.78294136  0.76675430  1  0.049153  1e-05  0.090952  0.129938  -3e-06  1.00153  0.0
H  H53  1  0.02536491  0.23318956  0.01615245  1  0.056368  1e-05  0.09074  0.129301  -2e-06  1.0023  0.0
H  H54  1  0.99059649  0.01613040  0.78290214  1  0.036156  1e-05  0.091377  0.129999  -3e-06  1.001795  0.0
H  H55  1  0.20785280  0.21705838  0.23324599  1  0.049145  1e-05  0.09097  0.129958  -3e-06  1.001541  0.0
H  H56  1  0.97463552  0.76681079  0.98384754  1  0.056373  1e-05  0.09074  0.129304  -2e-06  1.002292  0.0
H  H57  1  0.11004368  0.01337966  0.15860422  1  0.010283  -0.0  0.086523  0.117258  -1e-06  1.009356  0.0
H  H58  1  0.95135114  0.84143755  0.85474790  1  0.010002  -0.0  0.087283  0.117831  -1e-06  1.008882  0.0
H  H59  1  0.09657919  0.14520555  0.98665835  1  0.010295  -0.0  0.086718  0.117195  -1e-06  1.009234  0.0
H  H60  1  0.88995766  0.98662252  0.84139669  1  0.010296  -0.0  0.086516  0.117264  -1e-06  1.009374  0.0
H  H61  1  0.04864898  0.15856219  0.14525178  1  0.009993  -0.0  0.087285  0.11785  -1e-06  1.008866  0.0
H  H62  1  0.90342202  0.85479419  0.01334089  1  0.010306  -0.0  0.086716  0.117174  -1e-06  1.009238  0.0
H  H63  1  0.09430794  0.08869794  0.25385238  1  0.026317  -5e-06  0.09065  0.128471  -5e-06  1.006988  0.0
H  H64  1  0.84034340  0.74619386  0.83482086  1  0.025163  -6e-06  0.089952  0.127189  -6e-06  1.008617  0.0
H  H65  1  0.00557671  0.16516969  0.91135007  1  0.056133  -6e-06  0.0906  0.128013  -6e-06  1.007108  0.0
H  H66  1  0.90569091  0.91130363  0.74614804  1  0.026369  -5e-06  0.09066  0.128482  -5e-06  1.006959  0.0
H  H67  1  0.15965593  0.25380649  0.16517904  1  0.02516  -6e-06  0.08997  0.127238  -6e-06  1.008595  0.0
H  H68  1  0.99442403  0.83483127  0.08865075  1  0.056126  -6e-06  0.090597  0.128007  -6e-06  1.007095  0.0
H  H69  1  0.17970297  0.81583528  0.21708000  1  0.087762  0.001036  0.10713  0.11853  0.00042  1.002854  0.0
H  H70  1  0.96265824  0.78293167  0.59878219  1  0.080876  0.001043  0.107167  0.1187  0.000423  1.002698  0.0
H  H71  1  0.36382474  0.40120669  0.18416626  1  0.095714  0.001041  0.106857  0.118121  0.000422  1.003115  0.0
H  H72  1  0.82029964  0.18416507  0.78291911  1  0.087784  0.001036  0.107128  0.118542  0.00042  1.002839  0.0
H  H73  1  0.03734219  0.21706868  0.40121832  1  0.080884  0.001043  0.107174  0.118731  0.000423  1.002613  0.0
H  H74  1  0.63617538  0.59879304  0.81583342  1  0.095733  0.001041  0.106862  0.118098  0.000423  1.003093  0.0
H  H75  1  0.15204407  0.68645920  0.08716190  1  0.077715  0.001866  0.112561  0.075904  0.000533  1.034566  0.001
H  H76  1  0.06500742  0.91287813  0.59934370  1  0.069811  0.001866  0.11241  0.075457  0.00052  1.035722  0.001
H  H77  1  0.46554587  0.40069469  0.31356426  1  0.091194  0.001834  0.11224  0.074785  0.00052  1.037064  0.001
H  H78  1  0.84795526  0.31354115  0.91283643  1  0.07774  0.001866  0.112542  0.075892  0.000533  1.034672  0.001
H  H79  1  0.93499270  0.08712161  0.40065703  1  0.069812  0.001866  0.11242  0.075472  0.00052  1.035737  0.001
H  H80  1  0.53445036  0.59930382  0.68643507  1  0.09124  0.001834  0.112254  0.074802  0.00052  1.037026  0.001
H  H81  1  0.80529330  0.55746625  0.12876216  1  0.098367  0.001996  0.116274  0.08746  0.000642  1.009965  0.001
H  H82  1  0.67660818  0.87123115  0.42873614  1  0.098888  0.002028  0.116357  0.086716  0.000658  1.009332  0.001
H  H83  1  0.24782167  0.57130871  0.44247475  1  0.091973  0.00202  0.11539  0.084951  0.000657  1.010327  0.001
H  H84  1  0.19470604  0.44253410  0.87123722  1  0.098329  0.001996  0.116268  0.087457  0.000642  1.01  0.001
H  H85  1  0.32339194  0.12876858  0.57126459  1  0.098884  0.002029  0.116375  0.08673  0.000658  1.009349  0.001
H  H86  1  0.75217814  0.42869042  0.55752515  1  0.091973  0.00202  0.115404  0.084967  0.000657  1.010326  0.001
H  H87  1  0.81771322  0.68140880  0.26017348  1  0.071954  0.001243  0.109297  0.121201  0.000504  0.990088  0.001
H  H88  1  0.55762930  0.73979989  0.42124710  1  0.089919  0.001219  0.109255  0.121436  0.000497  0.988907  0.001
H  H89  1  0.13639909  0.57879574  0.31852875  1  0.093629  0.001212  0.108225  0.119876  0.000496  0.989504  0.001
H  H90  1  0.18228939  0.31859155  0.73982668  1  0.071921  0.001243  0.109314  0.121222  0.000504  0.990082  0.001
H  H91  1  0.44236973  0.26019985  0.57875250  1  0.08993  0.001219  0.109257  0.121439  0.000497  0.988906  0.001
H  H92  1  0.86360274  0.42120522  0.68147215  1  0.093863  0.001212  0.108226  0.119898  0.000496  0.989489  0.001
C  C93  1  0.87496278  0.13688100  0.60614234  1  0.414002  -0.009768  0.086407  0.174143  -0.010214  4.067581  -0.006
C  C94  1  0.26892204  0.39386960  0.53078620  1  0.352421  -0.009889  0.085884  0.172608  -0.010271  4.071183  -0.006
C  C95  1  0.73808939  0.46920160  0.86311162  1  0.3921  -0.009814  0.086796  0.174892  -0.01025  4.069007  -0.006
C  C96  1  0.12504045  0.86312058  0.39385843  1  0.414019  -0.009768  0.086416  0.174172  -0.010214  4.067597  -0.006
C  C97  1  0.73107777  0.60612953  0.46921475  1  0.35247  -0.009889  0.085876  0.172595  -0.010271  4.071204  -0.006
C  C98  1  0.26190854  0.53079814  0.13688789  1  0.392057  -0.009814  0.086842  0.174977  -0.010249  4.068892  -0.006
C  C99  1  0.75747705  0.17744318  0.60321495  1  -0.08046  -0.005874  -0.1109  -0.193076  -0.006208  4.004614  -0.003
C  C100  1  0.15437194  0.39676558  0.57427047  1  -0.054398  -0.005876  -0.110999  -0.192604  -0.006236  4.007389  -0.003
C  C101  1  0.58003677  0.42572000  0.82253177  1  -0.091816  -0.005846  -0.111521  -0.193676  -0.006185  4.007518  -0.003
C  C102  1  0.24252509  0.82255839  0.39678678  1  -0.080044  -0.005873  -0.110927  -0.19314  -0.006208  4.004739  -0.003
C  C103  1  0.84562788  0.60323354  0.42572943  1  -0.054399  -0.005876  -0.110978  -0.192529  -0.006236  4.00735  -0.003
C  C104  1  0.41996615  0.57428096  0.17746922  1  -0.091725  -0.005848  -0.111574  -0.193746  -0.006188  4.00743  -0.003
C  C105  1  0.66517073  0.13348689  0.52530721  1  -0.08228  -0.005927  -0.108787  -0.184755  -0.006272  4.005348  -0.003
C  C106  1  0.13987134  0.47464977  0.60817111  1  -0.072187  -0.005972  -0.109272  -0.185283  -0.006329  4.007456  -0.003
C  C107  1  0.53162575  0.39178619  0.86649160  1  -0.061378  -0.005962  -0.109736  -0.187029  -0.006319  4.008386  -0.003
C  C108  1  0.33482611  0.86651285  0.47469326  1  -0.082199  -0.005927  -0.108721  -0.184632  -0.006272  4.005467  -0.003
C  C109  1  0.86012926  0.52534874  0.39182909  1  -0.072162  -0.005972  -0.109302  -0.185397  -0.00633  4.007557  -0.003
C  C110  1  0.46837219  0.60821355  0.13350791  1  -0.061491  -0.005959  -0.109706  -0.186974  -0.006317  4.008463  -0.003
C  C111  1  0.72636247  0.06624942  0.48067431  1  0.377242  -0.009453  0.083392  0.16137  -0.009735  4.06029  -0.006
C  C112  1  0.24562322  0.51930147  0.58553823  1  0.416533  -0.009442  0.08467  0.163709  -0.009747  4.058175  -0.006
C  C113  1  0.66004857  0.41440844  0.93375554  1  0.434683  -0.009379  0.084369  0.163974  -0.009699  4.05814  -0.006
C  C114  1  0.27363687  0.93375093  0.51932716  1  0.376919  -0.009453  0.083341  0.161231  -0.009735  4.060305  -0.006
C  C115  1  0.75437599  0.48069643  0.41446210  1  0.416555  -0.009443  0.084718  0.163745  -0.009747  4.058206  -0.006
C  C116  1  0.33995216  0.58559252  0.06624684  1  0.434702  -0.00938  0.084344  0.163932  -0.0097  4.058098  -0.006
C  C117  1  0.66764713  0.01112816  0.39684645  1  0.044909  -0.005644  -0.006632  -0.07972  -0.006329  4.001415  -0.003
C  C118  1  0.27066981  0.60312764  0.61424654  1  0.012847  -0.005745  -0.005852  -0.079666  -0.006411  4.000821  -0.003
C  C119  1  0.65641405  0.38569873  0.98886801  1  -0.038948  -0.005775  -0.005789  -0.079988  -0.006393  4.000505  -0.003
C  C120  1  0.33235251  0.98887280  0.60315428  1  0.045204  -0.005643  -0.006597  -0.079673  -0.006329  4.001292  -0.003
C  C121  1  0.72933049  0.39687027  0.38575388  1  0.012842  -0.005744  -0.005883  -0.079651  -0.006411  4.000962  -0.003
C  C122  1  0.34358607  0.61430100  0.01112958  1  -0.038883  -0.005775  -0.005803  -0.07999  -0.006394  4.000343  -0.003
C  C123  1  0.73763632  0.95170979  0.35317361  1  0.350058  -0.009228  0.080784  0.154895  -0.009444  4.073043  -0.006
C  C124  1  0.38447635  0.64680645  0.59854742  1  0.320639  -0.009257  0.080173  0.154407  -0.009459  4.068773  -0.006
C  C125  1  0.78592243  0.40143956  0.04826298  1  0.384073  -0.009141  0.080521  0.154681  -0.00939  4.07201  -0.006
C  C126  1  0.26236472  0.04829179  0.64682698  1  0.350048  -0.009227  0.080797  0.154883  -0.009444  4.073224  -0.006
C  C127  1  0.61552456  0.35319268  0.40145308  1  0.320499  -0.009257  0.080172  0.154408  -0.009459  4.068716  -0.006
C  C128  1  0.21407599  0.59855896  0.95173495  1  0.384075  -0.009139  0.080568  0.154694  -0.009388  4.072065  -0.006
C  C129  1  0.67473883  0.89079965  0.26774769  1  -0.001665  -0.006113  -0.111244  -0.189294  -0.006549  4.015505  -0.003
C  C130  1  0.40705458  0.73224179  0.62307571  1  -0.012463  -0.006131  -0.111499  -0.189104  -0.006549  4.016201  -0.003
C  C131  1  0.78395859  0.37693511  0.10918077  1  -0.055952  -0.006139  -0.111437  -0.188703  -0.006525  4.016812  -0.003
C  C132  1  0.32526051  0.10920070  0.73225326  1  -0.001779  -0.006114  -0.111176  -0.189165  -0.00655  4.015537  -0.003
C  C133  1  0.59294493  0.26775672  0.37692493  1  -0.012368  -0.006132  -0.111502  -0.189079  -0.00655  4.016177  -0.003
C  C134  1  0.21604013  0.62306401  0.89081747  1  -0.056126  -0.00614  -0.111407  -0.188631  -0.006526  4.016805  -0.003
C  C135  1  0.76904117  0.84111450  0.24763860  1  -0.153627  -0.005805  -0.111775  -0.190973  -0.006105  4.006857  -0.003
C  C136  1  0.52151308  0.75236042  0.59353384  1  -0.073175  -0.005738  -0.112691  -0.192603  -0.006108  4.009881  -0.003
C  C137  1  0.92798840  0.40650495  0.15884989  1  -0.084025  -0.005705  -0.112363  -0.192773  -0.006069  4.006832  -0.003
C  C138  1  0.23096004  0.15888524  0.75236169  1  -0.153573  -0.005804  -0.111855  -0.191071  -0.006104  4.006935  -0.003
C  C139  1  0.47848594  0.24763931  0.40646680  1  -0.073208  -0.005737  -0.112699  -0.192655  -0.006107  4.009817  -0.003
C  C140  1  0.07201033  0.59349418  0.84114887  1  -0.083883  -0.005703  -0.112389  -0.192858  -0.006068  4.006812  -0.003
C  C141  1  0.88943904  0.87132045  0.32097095  1  0.446969  -0.009961  0.084668  0.167227  -0.010461  4.070931  -0.007
C  C142  1  0.56860305  0.67904040  0.55044213  1  0.393711  -0.009995  0.084637  0.167273  -0.010432  4.07248  -0.007
C  C143  1  0.01816895  0.44959842  0.12861593  1  0.392247  -0.009965  0.084036  0.166887  -0.0104  4.070976  -0.006
C  C144  1  0.11056309  0.12868112  0.67903025  1  0.446949  -0.009961  0.084685  0.167237  -0.010462  4.070976  -0.007
C  C145  1  0.43139676  0.32095873  0.44955829  1  0.393692  -0.009996  0.08468  0.16735  -0.010432  4.072473  -0.007
C  C146  1  0.98183227  0.55040132  0.87138331  1  0.392256  -0.009965  0.084031  0.166917  -0.0104  4.070916  -0.006
C  C147  1  0.00588506  0.83428124  0.32456855  1  0.015611  -0.00634  -0.008067  -0.090804  -0.007057  4.003638  -0.003
C  C148  1  0.68134108  0.67542543  0.50973668  1  0.077126  -0.006253  -0.00626  -0.087828  -0.00704  4.003745  -0.003
C  C149  1  0.17161867  0.49029150  0.16568585  1  0.050827  -0.006249  -0.007118  -0.090908  -0.006984  4.003597  -0.003
C  C150  1  0.99411567  0.16571973  0.67543070  1  0.015628  -0.00634  -0.008104  -0.09084  -0.007057  4.003632  -0.003
C  C151  1  0.31865904  0.32457431  0.49026457  1  0.077103  -0.006252  -0.006322  -0.087924  -0.00704  4.003738  -0.003
C  C152  1  0.82838066  0.50970886  0.83431352  1  0.05073  -0.006248  -0.007117  -0.090852  -0.006982  4.003364  -0.003
C  C153  1  0.52596295  0.01583856  0.35210126  1  -0.051818  -8.3e-05  -0.011244  0.073661  -5.4e-05  4.016724  0.0
C  C154  1  0.17369756  0.64786267  0.66369025  1  0.032604  -7.5e-05  -0.010255  0.074709  -5.3e-05  4.016091  0.0
C  C155  1  0.51002142  0.33624473  0.98418026  1  -0.074716  -8.3e-05  -0.011105  0.074764  -5.3e-05  4.014953  0.0
C  C156  1  0.47403826  0.98416118  0.64789902  1  -0.05189  -8.3e-05  -0.011268  0.073694  -5.4e-05  4.016749  0.0
C  C157  1  0.82630116  0.35213646  0.33631061  1  0.032581  -7.6e-05  -0.010276  0.074666  -5.3e-05  4.016079  0.0
C  C158  1  0.48997918  0.66375379  0.01581837  1  -0.074592  -8.3e-05  -0.011153  0.074687  -5.3e-05  4.015079  0.0
C  C159  1  0.38801334  0.99899928  0.37007184  1  -0.009515  -0.000306  -0.091942  -0.12573  -0.000342  3.972691  0.0
C  C160  1  0.01775129  0.62991501  0.62889602  1  -0.0436  -0.000299  -0.091896  -0.12534  -0.000331  3.97014  0.0
C  C161  1  0.38891843  0.37106417  0.00101780  1  0.003875  -0.00029  -0.091682  -0.125043  -0.000326  3.972252  0.0
C  C162  1  0.61198520  0.00100168  0.62992881  1  -0.009483  -0.000306  -0.091938  -0.1258  -0.000342  3.972686  0.0
C  C163  1  0.98224853  0.37008412  0.37110440  1  -0.0436  -0.000299  -0.091895  -0.125295  -0.000331  3.970159  0.0
C  C164  1  0.61108090  0.62893618  0.99898210  1  0.003888  -0.00029  -0.091648  -0.125011  -0.000326  3.972271  0.0
C  C165  1  0.25416872  0.00106017  0.32658844  1  -0.083461  -3.5e-05  -0.098585  -0.147732  -6.5e-05  3.975455  0.0
C  C166  1  0.92741829  0.67340267  0.67444270  1  -0.142831  -3e-05  -0.098858  -0.148881  -6e-05  3.973696  0.0
C  C167  1  0.25301806  0.32554563  0.99899613  1  -0.132445  -2.9e-05  -0.099096  -0.150812  -5.8e-05  3.975302  0.0
C  C168  1  0.74583293  0.99894263  0.67341329  1  -0.083488  -3.5e-05  -0.098564  -0.147608  -6.5e-05  3.975379  0.0
C  C169  1  0.07258122  0.32659584  0.32555794  1  -0.142774  -3e-05  -0.09888  -0.148917  -6e-05  3.973766  0.0
C  C170  1  0.74698504  0.67445350  0.00100245  1  -0.132403  -2.9e-05  -0.099094  -0.150756  -5.9e-05  3.975242  0.0
C  C171  1  0.25346653  0.02120735  0.26472285  1  -0.048332  -0.000188  -0.015822  0.155848  -0.000182  3.997445  0.0
C  C172  1  0.98857446  0.73527846  0.75645838  1  0.059621  -0.000201  -0.016251  0.156835  -0.000197  3.995863  0.0
C  C173  1  0.23216345  0.24353917  0.97888767  1  0.027762  -0.000196  -0.016  0.155998  -0.000191  3.994281  0.0
C  C174  1  0.74653372  0.97879484  0.73527849  1  -0.048415  -0.000188  -0.015814  0.155838  -0.000182  3.997392  0.0
C  C175  1  0.01142644  0.26472067  0.24354213  1  0.059641  -0.000201  -0.016237  0.156836  -0.000197  3.995865  0.0
C  C176  1  0.76783619  0.75646179  0.02111201  1  0.02771  -0.000196  -0.016039  0.15588  -0.000191  3.994374  0.0
C  C177  1  0.39175418  0.03844303  0.24714347  1  -0.063222  -3.1e-05  -0.10131  -0.154692  -2.9e-05  4.012419  0.0
C  C178  1  0.14441402  0.75280094  0.79127959  1  -0.10602  -3e-05  -0.103071  -0.158451  -2.8e-05  4.011855  0.0
C  C179  1  0.35317036  0.20870332  0.96161871  1  -0.065514  -2.8e-05  -0.101415  -0.154986  -2.7e-05  4.010125  0.0
C  C180  1  0.60824455  0.96155610  0.75285634  1  -0.0632  -3.1e-05  -0.101341  -0.154685  -2.9e-05  4.012461  0.0
C  C181  1  0.85558440  0.24719757  0.20871992  1  -0.106031  -3e-05  -0.103072  -0.158406  -2.8e-05  4.011849  0.0
C  C182  1  0.64683086  0.79129642  0.03838053  1  -0.065206  -2.8e-05  -0.101358  -0.154847  -2.7e-05  4.010151  0.0
C  C183  1  0.52572675  0.03560612  0.28986282  1  -0.060311  -0.000276  -0.09469  -0.132431  -0.000276  4.007164  0.0
C  C184  1  0.23564788  0.71005872  0.74571165  1  -0.062545  -0.00029  -0.094054  -0.129813  -0.000291  4.006862  0.0
C  C185  1  0.48998013  0.25424012  0.96440427  1  -0.013227  -0.00029  -0.093954  -0.131196  -0.000293  4.008166  0.0
C  C186  1  0.47427446  0.96439361  0.71013694  1  -0.060242  -0.000276  -0.094707  -0.132516  -0.000276  4.007246  0.0
C  C187  1  0.76435303  0.28994041  0.25428886  1  -0.062534  -0.00029  -0.094042  -0.129813  -0.00029  4.006817  0.0
C  C188  1  0.51002108  0.74575961  0.03559497  1  -0.013657  -0.000291  -0.093951  -0.131182  -0.000293  4.008194  0.0
C  C189  1  0.10916454  0.02664813  0.22089930  1  -0.017624  1.6e-05  -0.239216  -0.411977  4e-06  3.980537  0.0
C  C190  1  0.88813608  0.77913962  0.80572028  1  -0.030171  1.6e-05  -0.238635  -0.410845  4e-06  3.980904  0.0
C  C191  1  0.08242200  0.19424918  0.97341195  1  -0.073445  1.6e-05  -0.238787  -0.410526  5e-06  3.97968  0.0
C  C192  1  0.89083680  0.97335406  0.77910161  1  -0.017596  1.6e-05  -0.239196  -0.411987  4e-06  3.980497  0.0
C  C193  1  0.11186404  0.22086012  0.19427940  1  -0.030163  1.6e-05  -0.238666  -0.410935  4e-06  3.980936  0.0
C  C194  1  0.91757733  0.80575117  0.02658795  1  -0.073466  1.6e-05  -0.238802  -0.410505  5e-06  3.979684  0.0
C  C195  1  0.99996961  0.75879060  0.24897730  1  -0.029987  -0.003131  0.014555  0.13233  -0.003149  4.010498  -0.002
C  C196  1  0.75106274  0.75102724  0.50983146  1  -0.014607  -0.00313  0.014425  0.132863  -0.003152  4.007839  -0.002
C  C197  1  0.24125017  0.49020663  0.24118537  1  -0.046631  -0.003132  0.014678  0.134081  -0.003148  4.00445  -0.002
C  C198  1  0.00003112  0.24121036  0.75102194  1  -0.029996  -0.00313  0.014559  0.132324  -0.003149  4.010546  -0.002
C  C199  1  0.24893488  0.24897189  0.49016879  1  -0.014605  -0.00313  0.014505  0.133105  -0.003152  4.007837  -0.002
C  C200  1  0.75874667  0.50979311  0.75881405  1  -0.046513  -0.003133  0.014694  0.134061  -0.003149  4.004483  -0.002
C  C201  1  0.09572456  0.75948517  0.19959029  1  0.017804  0.003642  -0.083189  -0.180156  0.001883  3.938426  0.003
C  C202  1  0.89619052  0.80043784  0.55994491  1  -0.075629  0.003712  -0.083824  -0.181658  0.001876  3.934427  0.003
C  C203  1  0.33621418  0.44008016  0.24049843  1  -0.040914  0.003664  -0.08363  -0.18143  0.001877  3.933462  0.003
C  C204  1  0.90427478  0.24051518  0.80040857  1  0.017674  0.003642  -0.083188  -0.180196  0.001883  3.938383  0.003
C  C205  1  0.10381069  0.19956190  0.44005643  1  -0.075619  0.003712  -0.083839  -0.181787  0.001876  3.934525  0.003
C  C206  1  0.66378581  0.55991713  0.75949802  1  -0.041104  0.003664  -0.08366  -0.181424  0.001877  3.933672  0.003
C  C207  1  0.08032266  0.68772353  0.12740118  1  0.470286  -0.001516  0.046209  0.097878  -0.002415  3.951474  -0.001
C  C208  1  0.95300977  0.87262438  0.56036403  1  0.552261  -0.001721  0.046929  0.099629  -0.002491  3.949311  -0.001
C  C209  1  0.39256828  0.43967168  0.31227880  1  0.47486  -0.001654  0.046702  0.100638  -0.002493  3.953445  -0.001
C  C210  1  0.91967667  0.31227682  0.87259715  1  0.470279  -0.001516  0.046232  0.097895  -0.002415  3.951615  -0.001
C  C211  1  0.04699065  0.12737597  0.43963700  1  0.552001  -0.001719  0.046905  0.099589  -0.002491  3.949425  -0.001
C  C212  1  0.60743184  0.56032806  0.68772140  1  0.474996  -0.001654  0.046723  0.100659  -0.002493  3.953512  -0.001
C  C213  1  0.88686716  0.61583009  0.15024720  1  0.47994  -0.001113  0.045987  0.092824  -0.002023  3.955158  -0.001
C  C214  1  0.73671676  0.84974420  0.46560666  1  0.476762  -0.001049  0.046222  0.094903  -0.001955  3.953247  -0.001
C  C215  1  0.27104680  0.53443253  0.38412770  1  0.494794  -0.001046  0.048025  0.098828  -0.001954  3.954057  -0.001
C  C216  1  0.11313358  0.38417087  0.84975204  1  0.47996  -0.001113  0.046039  0.092832  -0.002023  3.955288  -0.001
C  C217  1  0.26328179  0.15025676  0.53439451  1  0.47676  -0.00105  0.046277  0.094918  -0.001955  3.953231  -0.001
C  C218  1  0.72895192  0.46556660  0.61587263  1  0.494782  -0.001047  0.047986  0.09878  -0.001954  3.954161  -0.001
C  C219  1  0.89409347  0.68477054  0.22332619  1  -0.047597  0.003693  -0.08509  -0.186558  0.001896  3.951213  0.003
C  C220  1  0.67088428  0.77664942  0.46143411  1  -0.053935  0.003738  -0.085719  -0.188699  0.001911  3.950164  0.003
C  C221  1  0.20943347  0.53860465  0.31519605  1  -0.048422  0.003725  -0.085291  -0.188097  0.001916  3.948169  0.003
C  C222  1  0.10590695  0.31522981  0.77667275  1  -0.047474  0.003693  -0.085102  -0.186542  0.001896  3.951365  0.003
C  C223  1  0.32911614  0.22335093  0.53856640  1  -0.053962  0.003738  -0.08573  -0.188738  0.001911  3.950105  0.003
C  C224  1  0.79056556  0.46139508  0.68480354  1  -0.048711  0.003725  -0.085325  -0.188156  0.001916  3.948209  0.003
N  N225  1  0.85470631  0.06843373  0.53101148  1  -1.137531  -0.002808  -0.345702  -0.309184  -0.002798  3.459157  0.0
N  N226  1  0.32370772  0.46899808  0.53742817  1  -1.141632  -0.002799  -0.346053  -0.310164  -0.002798  3.457666  0.0
N  N227  1  0.78623872  0.46254064  0.93157371  1  -1.135985  -0.002757  -0.34547  -0.308631  -0.002777  3.457472  0.0
N  N228  1  0.14529443  0.93156724  0.46898933  1  -1.137509  -0.002809  -0.345694  -0.309151  -0.002799  3.459096  0.0
N  N229  1  0.67629319  0.53100104  0.46257338  1  -1.141806  -0.002796  -0.346048  -0.310184  -0.002798  3.457733  0.0
N  N230  1  0.21376201  0.53746032  0.06842553  1  -1.135937  -0.002757  -0.34549  -0.308655  -0.002777  3.457523  0.0
N  N231  1  0.87114061  0.93994134  0.38520759  1  -1.129031  -0.002765  -0.350271  -0.316624  -0.002896  3.482491  0.0
N  N232  1  0.48599345  0.61478668  0.55478743  1  -1.133433  -0.002793  -0.350325  -0.316495  -0.002925  3.479031  0.0
N  N233  1  0.93118074  0.44522151  0.06000123  1  -1.129877  -0.002801  -0.350221  -0.317108  -0.002937  3.482233  0.0
N  N234  1  0.12886122  0.06005962  0.61479278  1  -1.129007  -0.002764  -0.350307  -0.316626  -0.002895  3.482659  0.0
N  N235  1  0.51400497  0.38521184  0.44521364  1  -1.133369  -0.002792  -0.350329  -0.316571  -0.002924  3.479115  0.0
N  N236  1  0.06881908  0.55477762  0.93999658  1  -1.129888  -0.002802  -0.350225  -0.317118  -0.002937  3.48234  0.0
N  N237  1  0.97798122  0.61682168  0.10257537  1  -1.207157  0.07036  -0.307538  -0.213819  0.03762  3.5172  0.061
N  N238  1  0.87551869  0.89743589  0.51428546  1  -1.193498  0.07044  -0.307323  -0.213965  0.037597  3.517439  0.061
N  N239  1  0.36114925  0.48576260  0.38315293  1  -1.195378  0.070497  -0.307524  -0.216441  0.037599  3.521105  0.061
N  N240  1  0.02201781  0.38317806  0.89742265  1  -1.207131  0.070362  -0.307571  -0.213802  0.037622  3.517322  0.061
N  N241  1  0.12448204  0.10256507  0.48571588  1  -1.193266  0.070441  -0.307389  -0.213969  0.037599  3.517496  0.061
N  N242  1  0.63884807  0.51423591  0.61684597  1  -1.195384  0.070503  -0.307499  -0.216395  0.037601  3.521101  0.061
