# generated using pymatgen
data_KH24C14S2(N2O3)2
_symmetry_space_group_name_H-M   'P 1'
_cell_length_a   8.16997413
_cell_length_b   8.51087266
_cell_length_c   9.05041174
_cell_angle_alpha   70.97781133
_cell_angle_beta   63.32774400
_cell_angle_gamma   64.60590587
_symmetry_Int_Tables_number   1
_chemical_formula_structural   KH24C14S2(N2O3)2
_chemical_formula_sum   'K1 H24 C14 S2 N4 O6'
_cell_volume   501.02069305
_cell_formula_units_Z   1
loop_
 _symmetry_equiv_pos_site_id
 _symmetry_equiv_pos_as_xyz
  1  'x, y, z'
loop_
 _atom_site_type_symbol
 _atom_site_label
 _atom_site_symmetry_multiplicity
 _atom_site_fract_x
 _atom_site_fract_y
 _atom_site_fract_z
 _atom_site_occupancy
 _atom_site_pbe_bader_spin_density
 _atom_site_pbe_cm5_charge
 _atom_site_pbe_ddec_charge
 _atom_site_pbe_ddec_spin_density
 _atom_site_pbe_ddec_sum_bond_order
 _atom_site_pbe_magmom
K  K0  1  0.49999825  0.99999253  0.50000869  1  0  0.825395  0.778925  0  0.766518  0
H  H1  1  0.17359488  0.60569693  0.64801179  1  0  0.095855  0.061242  0  1.039493  0
H  H2  1  0.82640785  0.39430202  0.35198846  1  0  0.095857  0.061264  0  1.039447  0
H  H3  1  0.06968444  0.84019599  0.63057145  1  0  0.100849  0.064166  0  0.987072  0
H  H4  1  0.93031506  0.15980428  0.36942970  1  0  0.100841  0.064149  0  0.987092  0
H  H5  1  0.23697582  0.84863297  0.32594613  1  0  0.102103  0.068213  0  0.98026  0
H  H6  1  0.76302417  0.15136599  0.67405302  1  0  0.102091  0.068207  0  0.980294  0
H  H7  1  0.35260443  0.61448385  0.35250985  1  0  0.098161  0.066651  0  1.008213  0
H  H8  1  0.64739605  0.38551379  0.64749061  1  0  0.09816  0.066685  0  1.00817  0
H  H9  1  0.67633420  0.66149238  0.24343841  1  0  0.101619  0.069709  0  1.009761  0
H  H10  1  0.32366490  0.33850526  0.75656261  1  0  0.101626  0.069735  0  1.009722  0
H  H11  1  0.56141952  0.73476163  0.09366875  1  0  0.092506  0.051746  0  1.032948  0
H  H12  1  0.43858281  0.26523469  0.90633026  1  0  0.092528  0.051772  0  1.032928  0
H  H13  1  0.73506841  0.94510544  0.93695171  1  0  0.097472  0.062329  0  1.008087  0
H  H14  1  0.26493206  0.05489219  0.06304986  1  0  0.097464  0.062313  0  1.008091  0
H  H15  1  0.85384131  0.84575139  0.08691873  1  0  0.100386  0.064214  0  1.042344  0
H  H16  1  0.14615916  0.15424625  0.91308173  1  0  0.100366  0.064158  0  1.042372  0
H  H17  1  0.85760216  0.15634454  0.93303173  1  0  0.098261  0.07128  0  1.02593  0
H  H18  1  0.14239831  0.84365310  0.06696983  1  0  0.098265  0.071294  0  1.025956  0
H  H19  1  0.60239753  0.23517930  0.04808611  1  0  0.087361  0.038324  0  1.053442  0
H  H20  1  0.39760295  0.76481834  0.95191435  1  0  0.087364  0.03834  0  1.053359  0
H  H21  1  0.36282962  0.60778972  0.80509738  1  0  0.09461  0.050384  0  1.028858  0
H  H22  1  0.63717133  0.39220660  0.19490329  1  0  0.094624  0.050434  0  1.028848  0
H  H23  1  0.10473161  0.67480105  0.91090582  1  0  0.095418  0.063212  0  1.001469  0
H  H24  1  0.89527071  0.32519527  0.08909319  1  0  0.095439  0.063253  0  1.001392  0
C  C25  1  0.19821725  0.72542542  0.64289659  1  0  -0.076849  -0.009426  0  3.95595  0
C  C26  1  0.80178274  0.27457353  0.35710477  1  0  -0.076861  -0.009435  0  3.956041  0
C  C27  1  0.36444492  0.74037900  0.34907936  1  0  -0.072934  0.002196  0  3.927973  0
C  C28  1  0.63555555  0.25961864  0.65092110  1  0  -0.072942  0.002148  0  3.928103  0
C  C29  1  0.55012850  0.75954359  0.21097994  1  0  -0.077583  -0.009097  0  3.943566  0
C  C30  1  0.44987197  0.24045405  0.78901942  1  0  -0.0776  -0.009118  0  3.943555  0
C  C31  1  0.72957045  0.95306683  0.05863788  1  0  -0.079388  -0.006905  0  3.920261  0
C  C32  1  0.27043002  0.04693081  0.94136258  1  0  -0.079367  -0.00683  0  3.920228  0
C  C33  1  0.74008115  0.12817454  0.04984311  1  0  -0.08081  -0.008488  0  3.926772  0
C  C34  1  0.25991932  0.87182309  0.95015845  1  0  -0.080829  -0.008516  0  3.926804  0
C  C35  1  0.22404506  0.71189749  0.80173788  1  0  -0.077812  -0.009184  0  3.955681  0
C  C36  1  0.77595678  0.28810014  0.19826203  1  0  -0.077873  -0.009346  0  3.955681  0
C  C37  1  0.05221581  0.41536778  0.53996279  1  0  0.196355  0.256079  0  4.178755  0
C  C38  1  0.94778162  0.58464568  0.46003076  1  0  0.196477  0.256245  0  4.178803  0
S  S39  1  0.19927947  0.42084454  0.24305146  1  0  0.279247  0.273147  0  3.288406  0
S  S40  1  0.80071199  0.57917026  0.75694189  1  0  0.279187  0.273075  0  3.288524  0
N  N41  1  0.19854434  0.30833376  0.43204844  1  0  -0.417675  -0.452312  0  3.162592  0
N  N42  1  0.80145672  0.69168101  0.56794324  1  0  -0.417704  -0.452357  0  3.162648  0
N  N43  1  0.01450492  0.60609854  0.29164880  1  0  -0.340932  -0.429966  0  3.157091  0
N  N44  1  0.98549154  0.39391755  0.70834765  1  0  -0.34087  -0.429834  0  3.156955  0
O  O45  1  0.36948144  0.74201799  0.50394049  1  0  -0.281403  -0.241165  0  2.525622  0
O  O46  1  0.63052040  0.25797964  0.49605941  1  0  -0.281342  -0.241103  0  2.525716  0
O  O47  1  0.55240899  0.93290635  0.18820843  1  0  -0.27754  -0.249082  0  2.492118  0
O  O48  1  0.44759100  0.06709261  0.81179183  1  0  -0.277575  -0.249128  0  2.492134  0
O  O49  1  0.77546180  0.12246143  0.19321829  1  0  -0.269991  -0.236782  0  2.488945  0
O  O50  1  0.22454005  0.87753620  0.80678272  1  0  -0.270009  -0.236817  0  2.488945  0
