# generated using pymatgen
data_CdH12C18(NO3)2
_symmetry_space_group_name_H-M   'P 1'
_cell_length_a   8.84208769
_cell_length_b   10.25091427
_cell_length_c   10.49524428
_cell_angle_alpha   71.32738365
_cell_angle_beta   69.03458125
_cell_angle_gamma   78.16684215
_symmetry_Int_Tables_number   1
_chemical_formula_structural   CdH12C18(NO3)2
_chemical_formula_sum   'Cd2 H24 C36 N4 O12'
_cell_volume   837.13195369
_cell_formula_units_Z   2
loop_
 _symmetry_equiv_pos_site_id
 _symmetry_equiv_pos_as_xyz
  1  'x, y, z'
loop_
 _atom_site_type_symbol
 _atom_site_label
 _atom_site_symmetry_multiplicity
 _atom_site_fract_x
 _atom_site_fract_y
 _atom_site_fract_z
 _atom_site_occupancy
 _atom_site_pbe_bader_spin_density
 _atom_site_pbe_cm5_charge
 _atom_site_pbe_ddec_charge
 _atom_site_pbe_ddec_spin_density
 _atom_site_pbe_ddec_sum_bond_order
 _atom_site_pbe_magmom
Cd  Cd0  1  0.85327459  0.17410337  0.06128796  1  0  0.801826  0.973745  0  2.176174  0
Cd  Cd1  1  0.14673698  0.82591687  0.93870365  1  0  0.801827  0.973742  0  2.176055  0
H  H2  1  0.00562241  0.35590221  0.17018257  1  0  0.115409  0.094849  0  1.027581  0
H  H3  1  0.99438358  0.64409623  0.82981675  1  0  0.115353  0.094736  0  1.027638  0
H  H4  1  0.50252143  0.23989202  0.33351469  1  0  0.299857  0.277861  0  1.016793  0
H  H5  1  0.49748010  0.76009541  0.66647852  1  0  0.299891  0.277943  0  1.016634  0
H  H6  1  0.20830111  0.32770994  0.29405444  1  0  0.11179  0.124096  0  0.997942  0
H  H7  1  0.79170361  0.67228043  0.70594179  1  0  0.111807  0.124101  0  0.99779  0
H  H8  1  0.98947495  0.93025800  0.27926237  1  0  0.120287  0.106425  0  1.017716  0
H  H9  1  0.01050199  0.06975905  0.72073463  1  0  0.120257  0.106409  0  1.01767  0
H  H10  1  0.19371940  0.88586497  0.40420078  1  0  0.109851  0.121619  0  0.989076  0
H  H11  1  0.80625263  0.11413446  0.59580161  1  0  0.109866  0.121656  0  0.98908  0
H  H12  1  0.29607549  0.02083322  0.54289443  1  0  0.114713  0.098133  0  0.987152  0
H  H13  1  0.70391635  0.97915403  0.45710360  1  0  0.114714  0.098135  0  0.987181  0
H  H14  1  0.44903846  0.00922456  0.38021824  1  0  0.113985  0.106653  0  0.994898  0
H  H15  1  0.55095055  0.99076581  0.61977880  1  0  0.113989  0.106666  0  0.994863  0
H  H16  1  0.19801898  0.51939974  0.56804924  1  0  0.110387  0.116586  0  0.984634  0
H  H17  1  0.80198400  0.48058540  0.43194990  1  0  0.110394  0.116589  0  0.984758  0
H  H18  1  0.33622306  0.71354319  0.55826059  1  0  0.10171  0.096875  0  1.023252  0
H  H19  1  0.66378086  0.28644407  0.44173673  1  0  0.101648  0.096815  0  1.023218  0
H  H20  1  0.15231667  0.35895922  0.89547177  1  0  0.116933  0.123528  0  1.006503  0
H  H21  1  0.84767384  0.64104633  0.10453014  1  0  0.116948  0.123556  0  1.006527  0
H  H22  1  0.61092158  0.46853378  0.86778834  1  0  0.112012  0.127871  0  1.005691  0
H  H23  1  0.38908082  0.53148197  0.13221390  1  0  0.111939  0.127772  0  1.005814  0
H  H24  1  0.56975711  0.05438957  0.86368736  1  0  0.109958  0.122047  0  1.026118  0
H  H25  1  0.43026010  0.94561485  0.13631557  1  0  0.109988  0.122064  0  1.02622  0
C  C26  1  0.04789271  0.25345706  0.22609845  1  0  0.039172  0.085979  0  3.966461  0
C  C27  1  0.95211234  0.74654870  0.77389721  1  0  0.039338  0.086162  0  3.966051  0
C  C28  1  0.16226036  0.23697186  0.29411753  1  0  -0.083419  -0.166295  0  3.923985  0
C  C29  1  0.83773492  0.76302564  0.70588045  1  0  -0.08341  -0.166285  0  3.923534  0
C  C30  1  0.04013782  0.01576125  0.28533689  1  0  0.047019  0.097064  0  3.947935  0
C  C31  1  0.95984004  0.98424828  0.71466859  1  0  0.046927  0.096978  0  3.947923  0
C  C32  1  0.15447469  0.99220439  0.35489043  1  0  -0.084159  -0.178992  0  3.946602  0
C  C33  1  0.84550443  0.00779595  0.64511438  1  0  -0.084158  -0.179057  0  3.946638  0
C  C34  1  0.21899122  0.10389308  0.35933455  1  0  0.01937  0.149224  0  3.921434  0
C  C35  1  0.78099801  0.89610443  0.64066330  1  0  0.01931  0.149256  0  3.92137  0
C  C36  1  0.34741086  0.07694423  0.43083050  1  0  -0.053022  -0.063025  0  3.935857  0
C  C37  1  0.65258121  0.92305020  0.56916737  1  0  -0.052983  -0.063048  0  3.935973  0
C  C38  1  0.33270622  0.27654394  0.51579281  1  0  0.230899  0.448932  0  4.170032  0
C  C39  1  0.66729940  0.72344832  0.48420739  1  0  0.230954  0.448949  0  4.169702  0
C  C40  1  0.42169256  0.39171375  0.50431751  1  0  -0.009631  -0.018257  0  3.976283  0
C  C41  1  0.57830998  0.60827434  0.49568475  1  0  -0.009443  -0.017891  0  3.975739  0
C  C42  1  0.33035285  0.51205271  0.53829556  1  0  -0.075747  -0.085861  0  3.948754  0
C  C43  1  0.66965215  0.48793567  0.46169923  1  0  -0.075729  -0.085918  0  3.94868  0
C  C44  1  0.40814009  0.61976746  0.53324101  1  0  -0.086302  -0.106665  0  3.98071  0
C  C45  1  0.59186209  0.38022411  0.46675086  1  0  -0.086256  -0.106539  0  3.98063  0
C  C46  1  0.25511974  0.09284977  0.87496584  1  0  0.208561  0.585487  0  4.200635  0
C  C47  1  0.74489358  0.90714725  0.12504315  1  0  0.208445  0.58529  0  4.20071  0
C  C48  1  0.35326373  0.19700761  0.87360226  1  0  -0.011259  -0.025513  0  3.972258  0
C  C49  1  0.64674843  0.80298971  0.12639937  1  0  -0.011224  -0.025486  0  3.972517  0
C  C50  1  0.28093489  0.33040106  0.88530132  1  0  -0.037099  -0.043975  0  3.799097  0
C  C51  1  0.71907028  0.66960359  0.11469652  1  0  -0.037094  -0.04389  0  3.79959  0
C  C52  1  0.37471852  0.42799761  0.88278913  1  0  -0.009069  -0.01641  0  3.987503  0
C  C53  1  0.62528498  0.57200979  0.11721702  1  0  -0.009105  -0.016468  0  3.987896  0
C  C54  1  0.53727695  0.39306812  0.87240981  1  0  -0.06925  -0.171949  0  3.815854  0
C  C55  1  0.46272951  0.60694463  0.12759016  1  0  -0.069132  -0.171687  0  3.815872  0
C  C56  1  0.61196422  0.25432987  0.87099369  1  0  0.121428  0.380071  0  4.064555  0
C  C57  1  0.38803648  0.74568088  0.12900568  1  0  0.121438  0.379807  0  4.064666  0
C  C58  1  0.51446904  0.15862876  0.86817644  1  0  -0.06273  -0.160341  0  3.797402  0
C  C59  1  0.48554142  0.84137111  0.13183833  1  0  -0.062854  -0.160411  0  3.797617  0
C  C60  1  0.29398363  0.56716021  0.90188500  1  0  0.197516  0.55078  0  4.244324  0
C  C61  1  0.70601247  0.43284820  0.09812209  1  0  0.197471  0.550663  0  4.24431  0
N  N62  1  0.98790410  0.14486738  0.22135207  1  0  -0.34125  -0.275307  0  3.546671  0
N  N63  1  0.01209150  0.85514546  0.77864631  1  0  -0.341227  -0.275298  0  3.546487  0
N  N64  1  0.41252841  0.19795147  0.42426985  1  0  -0.429615  -0.370763  0  3.578517  0
N  N65  1  0.58746971  0.80204302  0.57572622  1  0  -0.429806  -0.370987  0  3.578298  0
O  O66  1  0.10143197  0.11183281  0.91444062  1  0  -0.321816  -0.56149  0  2.368787  0
O  O67  1  0.89858001  0.88815565  0.08557783  1  0  -0.321797  -0.561375  0  2.368762  0
O  O68  1  0.33472768  0.98403054  0.83921305  1  0  -0.318732  -0.536592  0  2.212993  0
O  O69  1  0.66529154  0.01596746  0.16079680  1  0  -0.318635  -0.536516  0  2.212971  0
O  O70  1  0.37423208  0.67241474  0.83683732  1  0  -0.322132  -0.562368  0  2.26206  0
O  O71  1  0.62575700  0.32759321  0.16315577  1  0  -0.322077  -0.562292  0  2.261928  0
O  O72  1  0.14994301  0.57304056  0.98709912  1  0  -0.307749  -0.531583  0  2.169198  0
O  O73  1  0.85005250  0.42696407  0.01289966  1  0  -0.307771  -0.531562  0  2.169209  0
O  O74  1  0.75936447  0.21656047  0.87001601  1  0  -0.279416  -0.431877  0  2.182068  0
O  O75  1  0.24064642  0.78345551  0.12997984  1  0  -0.279405  -0.431708  0  2.182141  0
O  O76  1  0.19732816  0.25424708  0.60618812  1  0  -0.300337  -0.480709  0  2.118874  0
O  O77  1  0.80267131  0.74574635  0.39380881  1  0  -0.300347  -0.480722  0  2.118913  0
