# generated using pymatgen
data_Cu2H15C15Br2(NO)3
_symmetry_space_group_name_H-M   'P 1'
_cell_length_a   13.39436816
_cell_length_b   13.60977096
_cell_length_c   21.44514186
_cell_angle_alpha   90.00012911
_cell_angle_beta   89.99977511
_cell_angle_gamma   90.00017658
_symmetry_Int_Tables_number   1
_chemical_formula_structural   Cu2H15C15Br2(NO)3
_chemical_formula_sum   'Cu16 H120 C120 Br16 N24 O24'
_cell_volume   3909.32675521
_cell_formula_units_Z   8
loop_
 _symmetry_equiv_pos_site_id
 _symmetry_equiv_pos_as_xyz
  1  'x, y, z'
loop_
 _atom_site_type_symbol
 _atom_site_label
 _atom_site_symmetry_multiplicity
 _atom_site_fract_x
 _atom_site_fract_y
 _atom_site_fract_z
 _atom_site_occupancy
 _atom_site_pbe_bader_charge
 _atom_site_pbe_bader_spin_density
 _atom_site_pbe_cm5_charge
 _atom_site_pbe_ddec_charge
 _atom_site_pbe_ddec_spin_density
 _atom_site_pbe_ddec_sum_bond_order
 _atom_site_pbe_magmom
Cu  Cu0  1  0.75533639  0.74999497  0.99999906  1  0.584051  0  0.463153  0.356446  0  2.394288  0
Cu  Cu1  1  0.74466258  0.75000068  0.49999865  1  0.584109  0  0.463139  0.356415  0  2.394353  0
Cu  Cu2  1  0.24466351  0.25000268  0.99999979  1  0.584121  0  0.463129  0.356438  0  2.394312  0
Cu  Cu3  1  0.25534121  0.25000034  0.50000122  1  0.584208  0  0.463144  0.356373  0  2.394317  0
Cu  Cu4  1  0.85000774  0.57827483  0.84513997  1  0.607688  0  0.456734  0.33702  0  2.358678  0
Cu  Cu5  1  0.85001045  0.92172978  0.15486313  1  0.607582  0  0.456772  0.337104  0  2.358696  0
Cu  Cu6  1  0.64999442  0.57827639  0.65486402  1  0.607591  0  0.456755  0.337041  0  2.358743  0
Cu  Cu7  1  0.64999369  0.92171659  0.34513910  1  0.60761  0  0.456738  0.337026  0  2.358637  0
Cu  Cu8  1  0.14998933  0.42172105  0.15485850  1  0.607692  0  0.456728  0.336959  0  2.358793  0
Cu  Cu9  1  0.14999185  0.07827344  0.84514047  1  0.607685  0  0.456695  0.336981  0  2.358653  0
Cu  Cu10  1  0.35000713  0.42172389  0.34513492  1  0.60761  0  0.456767  0.337105  0  2.358644  0
Cu  Cu11  1  0.35001084  0.07827707  0.65486030  1  0.607705  0  0.45674  0.337043  0  2.358678  0
Cu  Cu12  1  0.75000093  0.48265130  0.75000239  1  0.407887  0  0.201062  0.20564  0  2.579417  0
Cu  Cu13  1  0.74999654  0.01735529  0.24999791  1  0.407937  0  0.201017  0.205606  0  2.579334  0
Cu  Cu14  1  0.24999689  0.51736001  0.24999654  1  0.407942  0  0.200965  0.20554  0  2.579113  0
Cu  Cu15  1  0.24999978  0.98264646  0.74999730  1  0.407886  0  0.20103  0.205625  0  2.579381  0
H  H16  1  0.89816357  0.65500085  0.95399539  1  0.118117  0  0.090447  0.068412  0  1.122791  0
H  H17  1  0.89816673  0.84499803  0.04600433  1  0.118168  0  0.090437  0.068394  0  1.122889  0
H  H18  1  0.60183509  0.65499821  0.54600405  1  0.118167  0  0.09044  0.068366  0  1.12285  0
H  H19  1  0.60183344  0.84499463  0.45399593  1  0.11816  0  0.090434  0.068365  0  1.122856  0
H  H20  1  0.10183349  0.34500016  0.04600401  1  0.118186  0  0.090457  0.0684  0  1.122836  0
H  H21  1  0.10183258  0.15500372  0.95399647  1  0.118193  0  0.090458  0.068417  0  1.122847  0
H  H22  1  0.39816646  0.34499987  0.45399629  1  0.118181  0  0.090446  0.068421  0  1.12281  0
H  H23  1  0.39816811  0.15500198  0.54600394  1  0.118205  0  0.090466  0.068417  0  1.122834  0
H  H24  1  0.21509436  0.60386815  0.93965588  1  0.128622  0  0.116606  0.123139  0  0.99915  0
H  H25  1  0.21509684  0.89613381  0.06034458  1  0.128614  0  0.116624  0.123151  0  0.999182  0
H  H26  1  0.28490624  0.60386758  0.56034191  1  0.128681  0  0.116637  0.123214  0  0.999139  0
H  H27  1  0.28490559  0.89613091  0.43965744  1  0.128675  0  0.116619  0.123165  0  0.999179  0
H  H28  1  0.78490270  0.39612993  0.06034306  1  0.128642  0  0.11661  0.12315  0  0.999141  0
H  H29  1  0.78490396  0.10386721  0.93965902  1  0.128665  0  0.116645  0.12317  0  0.999169  0
H  H30  1  0.71509531  0.39613123  0.43965936  1  0.128677  0  0.11661  0.123137  0  0.999222  0
H  H31  1  0.71509820  0.10386937  0.56034336  1  0.128607  0  0.116609  0.123164  0  0.999184  0
H  H32  1  0.06723998  0.57202463  0.11725952  1  0.162067  0  0.08985  0.095139  0  1.105929  0
H  H33  1  0.06724261  0.92797761  0.88274223  1  0.162092  0  0.08981  0.095058  0  1.105954  0
H  H34  1  0.43275994  0.57202272  0.38273971  1  0.162038  0  0.089827  0.095105  0  1.105957  0
H  H35  1  0.43275976  0.92797769  0.61725835  1  0.162089  0  0.089812  0.095069  0  1.105962  0
H  H36  1  0.93275858  0.42797638  0.88274035  1  0.161944  0  0.089822  0.095102  0  1.105942  0
H  H37  1  0.93276043  0.07202340  0.11726090  1  0.162033  0  0.089845  0.095195  0  1.105904  0
H  H38  1  0.56723863  0.42797462  0.61725969  1  0.162055  0  0.089845  0.095125  0  1.105954  0
H  H39  1  0.56724254  0.07202259  0.38274152  1  0.162087  0  0.08982  0.095098  0  1.105943  0
H  H40  1  0.66879067  0.61041926  0.10449881  1  0.065578  0  0.104428  0.097584  0  0.969191  0
H  H41  1  0.66879384  0.88958333  0.89550520  1  0.065571  0  0.104461  0.097622  0  0.969128  0
H  H42  1  0.83121025  0.61042002  0.39549645  1  0.065481  0  0.104402  0.097533  0  0.969272  0
H  H43  1  0.83120854  0.88958306  0.60449410  1  0.06552  0  0.104498  0.097709  0  0.969154  0
H  H44  1  0.33121013  0.38958396  0.89550106  1  0.06556  0  0.104451  0.097592  0  0.969095  0
H  H45  1  0.33120845  0.11042209  0.10449747  1  0.065519  0  0.104438  0.097612  0  0.969185  0
H  H46  1  0.16878905  0.38958320  0.60449782  1  0.065536  0  0.10449  0.097713  0  0.969153  0
H  H47  1  0.16879301  0.11041575  0.39550483  1  0.065582  0  0.104462  0.097638  0  0.96909  0
H  H48  1  0.70626395  0.72326771  0.13891969  1  0.104231  0  0.097467  0.091461  0  1.023531  0
H  H49  1  0.70625952  0.77673352  0.86108376  1  0.104214  0  0.097424  0.091446  0  1.023535  0
H  H50  1  0.79373509  0.72327265  0.36108086  1  0.104177  0  0.097448  0.091465  0  1.023549  0
H  H51  1  0.79373878  0.77673326  0.63891632  1  0.104202  0  0.097427  0.09145  0  1.023566  0
H  H52  1  0.29373760  0.27673330  0.86108018  1  0.104071  0  0.097458  0.091474  0  1.023452  0
H  H53  1  0.29373605  0.22327116  0.13891938  1  0.104189  0  0.097456  0.091456  0  1.023623  0
H  H54  1  0.20625825  0.27673204  0.63891668  1  0.104168  0  0.09744  0.09145  0  1.023507  0
H  H55  1  0.20626202  0.22326555  0.36108309  1  0.104107  0  0.097422  0.091446  0  1.023532  0
H  H56  1  0.82074083  0.64649596  0.20784373  1  0.098659  0  0.09666  0.081368  0  1.007433  0
H  H57  1  0.82073932  0.85350269  0.79215804  1  0.099079  0  0.096682  0.081433  0  1.007399  0
H  H58  1  0.67925871  0.64650251  0.29215298  1  0.098677  0  0.09662  0.081304  0  1.00732  0
H  H59  1  0.67926146  0.85350306  0.70784261  1  0.098848  0  0.096683  0.081408  0  1.007413  0
H  H60  1  0.17925923  0.35350506  0.79215660  1  0.098661  0  0.096663  0.081404  0  1.007412  0
H  H61  1  0.17925775  0.14649833  0.20784370  1  0.098794  0  0.096642  0.081332  0  1.007459  0
H  H62  1  0.32073686  0.35349998  0.70784316  1  0.098793  0  0.096648  0.081367  0  1.00747  0
H  H63  1  0.32074008  0.14649575  0.29215772  1  0.098655  0  0.096664  0.0814  0  1.007467  0
H  H64  1  0.76692332  0.53011989  0.18571143  1  0.063547  0  0.105335  0.075057  0  0.990995  0
H  H65  1  0.76692427  0.96987786  0.81428907  1  0.063587  0  0.105365  0.075084  0  0.990984  0
H  H66  1  0.73306914  0.53012521  0.31428698  1  0.063275  0  0.105286  0.074971  0  0.990903  0
H  H67  1  0.73307762  0.96987758  0.68571034  1  0.063582  0  0.105348  0.075068  0  0.990958  0
H  H68  1  0.23307449  0.46987892  0.81428751  1  0.063497  0  0.105343  0.075041  0  0.991061  0
H  H69  1  0.23307578  0.03012316  0.18571079  1  0.063619  0  0.10536  0.075065  0  0.990877  0
H  H70  1  0.26692420  0.46987727  0.68571242  1  0.063514  0  0.105353  0.075078  0  0.990944  0
H  H71  1  0.26692468  0.03012050  0.31428906  1  0.063571  0  0.105337  0.075046  0  0.991016  0
H  H72  1  0.98226745  0.61435112  0.73869987  1  0.09292  0  0.096181  0.096909  0  1.013202  0
H  H73  1  0.98227012  0.88564580  0.26130010  1  0.092963  0  0.096203  0.096963  0  1.013204  0
H  H74  1  0.51773333  0.61435120  0.76129904  1  0.092926  0  0.096191  0.096934  0  1.013223  0
H  H75  1  0.51773316  0.88564506  0.23870021  1  0.093462  0  0.096181  0.096923  0  1.013202  0
H  H76  1  0.01773261  0.38564842  0.26129906  1  0.092937  0  0.096187  0.096922  0  1.013219  0
H  H77  1  0.01773218  0.11435301  0.73870117  1  0.092949  0  0.096194  0.096939  0  1.013263  0
H  H78  1  0.48226672  0.38564835  0.23870223  1  0.092954  0  0.096192  0.096947  0  1.013258  0
H  H79  1  0.48226615  0.11435375  0.76130012  1  0.09343  0  0.096192  0.096921  0  1.013209  0
H  H80  1  0.98099540  0.74155977  0.75955411  1  0.075362  0  0.093394  0.094864  0  0.999046  0
H  H81  1  0.98099333  0.75843936  0.24044541  1  0.075336  0  0.093352  0.094837  0  0.999087  0
H  H82  1  0.51900353  0.74155977  0.74044638  1  0.075359  0  0.093381  0.094835  0  0.999091  0
H  H83  1  0.51900657  0.75843502  0.25955240  1  0.075239  0  0.093374  0.094907  0  0.998972  0
H  H84  1  0.01900167  0.25844125  0.24044576  1  0.075397  0  0.093359  0.094822  0  0.999096  0
H  H85  1  0.01900449  0.24155945  0.75955493  1  0.075372  0  0.093372  0.094845  0  0.999075  0
H  H86  1  0.48099652  0.25844051  0.25955395  1  0.075374  0  0.093361  0.094862  0  0.999058  0
H  H87  1  0.48099274  0.24156452  0.74044654  1  0.075257  0  0.093358  0.094885  0  0.998939  0
H  H88  1  0.15862120  0.60173471  0.75880846  1  0.055952  0  0.098503  0.062243  0  0.994316  0
H  H89  1  0.15862254  0.89825752  0.24118981  1  0.056085  0  0.098513  0.062275  0  0.99433  0
H  H90  1  0.34137866  0.60173349  0.74119259  1  0.055688  0  0.098497  0.062196  0  0.994284  0
H  H91  1  0.34137691  0.89825930  0.25880756  1  0.055805  0  0.098468  0.062216  0  0.99435  0
H  H92  1  0.84137961  0.39826557  0.24119094  1  0.055947  0  0.098492  0.062243  0  0.994304  0
H  H93  1  0.84137677  0.10173468  0.75880866  1  0.055712  0  0.098499  0.062249  0  0.994304  0
H  H94  1  0.65862214  0.39826606  0.25880774  1  0.055685  0  0.098487  0.062196  0  0.994331  0
H  H95  1  0.65862240  0.10174245  0.74119184  1  0.056072  0  0.098482  0.062248  0  0.994342  0
H  H96  1  0.15919030  0.73491329  0.75807599  1  0.129981  0  0.099758  0.08899  0  1.019553  0
H  H97  1  0.15918749  0.76508041  0.24192321  1  0.129765  0  0.099781  0.089021  0  1.019477  0
H  H98  1  0.34080773  0.73491501  0.74192479  1  0.129711  0  0.099758  0.088977  0  1.01948  0
H  H99  1  0.34081004  0.76507704  0.25807350  1  0.129589  0  0.099774  0.088972  0  1.019393  0
H  H100  1  0.84080826  0.26508625  0.24192388  1  0.12974  0  0.099765  0.088997  0  1.019515  0
H  H101  1  0.84080883  0.23491620  0.75807386  1  0.129691  0  0.099753  0.088982  0  1.019491  0
H  H102  1  0.65919158  0.26508601  0.25807555  1  0.129964  0  0.099769  0.089002  0  1.019479  0
H  H103  1  0.65918777  0.23492398  0.74192730  1  0.129806  0  0.099745  0.088952  0  1.019435  0
H  H104  1  0.36550014  0.37225094  0.10503340  1  0.065563  0  0.092519  0.08576  0  1.020977  0
H  H105  1  0.36550175  0.12775080  0.89496551  1  0.065543  0  0.092492  0.085741  0  1.02098  0
H  H106  1  0.13449841  0.37224890  0.39496601  1  0.065528  0  0.092514  0.085785  0  1.021064  0
H  H107  1  0.13449886  0.12775067  0.60503439  1  0.065546  0  0.092496  0.085768  0  1.020961  0
H  H108  1  0.63450066  0.62774860  0.89496694  1  0.065569  0  0.092518  0.085771  0  1.02101  0
H  H109  1  0.63450055  0.87224874  0.10503389  1  0.06552  0  0.0925  0.085755  0  1.021021  0
H  H110  1  0.86550015  0.62774917  0.60503339  1  0.065548  0  0.092505  0.085769  0  1.02103  0
H  H111  1  0.86550269  0.87224961  0.39496547  1  0.065538  0  0.092516  0.08577  0  1.021007  0
H  H112  1  0.38225121  0.47502501  0.15627349  1  0.081489  0  0.083273  0.083613  0  1.058939  0
H  H113  1  0.38225282  0.02497972  0.84372631  1  0.081476  0  0.083302  0.083646  0  1.05895  0
H  H114  1  0.11774766  0.47502054  0.34372560  1  0.081455  0  0.083321  0.083714  0  1.058944  0
H  H115  1  0.11774746  0.02497972  0.65627485  1  0.081439  0  0.083325  0.083717  0  1.058923  0
H  H116  1  0.61774661  0.52497674  0.84372591  1  0.08146  0  0.08332  0.083721  0  1.058922  0
H  H117  1  0.61774574  0.97501983  0.15627543  1  0.08153  0  0.083308  0.083689  0  1.058927  0
H  H118  1  0.88225389  0.52497901  0.65627427  1  0.081451  0  0.083328  0.083728  0  1.05895  0
H  H119  1  0.88225334  0.97502056  0.34372548  1  0.081456  0  0.083328  0.083722  0  1.058908  0
H  H120  1  0.46413080  0.56120939  0.07157082  1  0.095541  0  0.103552  0.084269  0  0.979725  0
H  H121  1  0.46413542  0.93879111  0.92842716  1  0.095345  0  0.10354  0.084254  0  0.979735  0
H  H122  1  0.03586685  0.56120938  0.42842839  1  0.095576  0  0.103553  0.084275  0  0.979705  0
H  H123  1  0.03586550  0.93878983  0.57157297  1  0.095362  0  0.103537  0.084239  0  0.979722  0
H  H124  1  0.53586552  0.43878868  0.92842858  1  0.095531  0  0.103541  0.084253  0  0.979765  0
H  H125  1  0.53586688  0.06120843  0.07157271  1  0.095403  0  0.103539  0.084269  0  0.979764  0
H  H126  1  0.96413619  0.43879017  0.57157148  1  0.095535  0  0.103526  0.084218  0  0.979705  0
H  H127  1  0.96413680  0.06120825  0.42842783  1  0.095338  0  0.103514  0.084236  0  0.979724  0
H  H128  1  0.43947117  0.45613770  0.02206679  1  0.084921  0  0.0952  0.075325  0  1.036011  0
H  H129  1  0.43947424  0.04386501  0.97793287  1  0.08487  0  0.095187  0.075304  0  1.035976  0
H  H130  1  0.06052689  0.45613646  0.47793274  1  0.0849  0  0.095174  0.075247  0  1.03606  0
H  H131  1  0.06052760  0.04386289  0.52206785  1  0.084946  0  0.095185  0.075246  0  1.036095  0
H  H132  1  0.56052590  0.54386258  0.97793261  1  0.084913  0  0.095195  0.07526  0  1.036051  0
H  H133  1  0.56052880  0.95613601  0.02206840  1  0.084943  0  0.095183  0.075289  0  1.03607  0
H  H134  1  0.93947167  0.54386235  0.52206713  1  0.084938  0  0.095195  0.075262  0  1.036061  0
H  H135  1  0.93947246  0.95613592  0.47793295  1  0.08489  0  0.095165  0.075233  0  1.036071  0
C  C136  1  0.97370411  0.61653947  0.03982925  1  -0.0126  0  -0.009388  -0.001858  0  3.998375  0
C  C137  1  0.97370312  0.88346404  0.96017122  1  -0.012398  0  -0.009311  -0.001779  0  3.9985  0
C  C138  1  0.52629684  0.61653954  0.46016975  1  -0.012645  0  -0.00937  -0.001841  0  3.998388  0
C  C139  1  0.52629626  0.88345748  0.53982901  1  -0.013233  0  -0.009294  -0.001746  0  3.998361  0
C  C140  1  0.02629669  0.38346007  0.96016969  1  -0.012711  0  -0.009346  -0.001753  0  3.998424  0
C  C141  1  0.02629544  0.11654285  0.03983052  1  -0.012671  0  -0.009391  -0.001875  0  3.998269  0
C  C142  1  0.47370397  0.38345927  0.53983012  1  -0.012598  0  -0.009353  -0.001772  0  3.998411  0
C  C143  1  0.47370604  0.11653619  0.46017086  1  -0.012561  0  -0.00928  -0.001745  0  3.998548  0
C  C144  1  0.96939341  0.63671487  0.97583800  1  -0.048633  0  -0.068833  -0.104102  0  3.923673  0
C  C145  1  0.96939452  0.86328496  0.02416155  1  -0.04822  0  -0.068862  -0.10423  0  3.923885  0
C  C146  1  0.53060594  0.63671340  0.52416048  1  -0.048211  0  -0.068815  -0.104083  0  3.923728  0
C  C147  1  0.53060421  0.86327922  0.47583781  1  -0.048032  0  -0.068873  -0.104152  0  3.923858  0
C  C148  1  0.03060515  0.36328394  0.02416094  1  -0.048203  0  -0.068865  -0.104179  0  3.923798  0
C  C149  1  0.03060404  0.13671826  0.97583926  1  -0.048688  0  -0.068898  -0.104205  0  3.923834  0
C  C150  1  0.46939561  0.36328467  0.47583892  1  -0.04818  0  -0.068844  -0.104253  0  3.923747  0
C  C151  1  0.46939809  0.13672033  0.52416206  1  -0.048657  0  -0.068858  -0.10413  0  3.923808  0
C  C152  1  0.05640757  0.63275965  0.93975075  1  0.006479  0  -0.008409  -0.005534  0  4.01455  0
C  C153  1  0.05641219  0.86724183  0.06024823  1  0.00631  0  -0.008382  -0.005469  0  4.014583  0
C  C154  1  0.44359164  0.63275662  0.56024848  1  0.006352  0  -0.008314  -0.005394  0  4.014483  0
C  C155  1  0.44358940  0.86723574  0.43975002  1  0.006361  0  -0.008364  -0.005565  0  4.014771  0
C  C156  1  0.94358876  0.36724137  0.06024818  1  0.006283  0  -0.008337  -0.00542  0  4.014616  0
C  C157  1  0.94358861  0.13275992  0.93975211  1  0.006343  0  -0.008305  -0.005422  0  4.014676  0
C  C158  1  0.55641140  0.36724439  0.43975139  1  0.006308  0  -0.008377  -0.005415  0  4.014542  0
C  C159  1  0.55641439  0.13276234  0.56024985  1  0.006175  0  -0.008448  -0.005631  0  4.014636  0
C  C160  1  0.14747631  0.60745375  0.96765858  1  0.005775  0  -0.065765  -0.110547  0  3.881717  0
C  C161  1  0.14747970  0.89254506  0.03234065  1  0.005949  0  -0.065725  -0.11054  0  3.881794  0
C  C162  1  0.35252207  0.60745182  0.53234108  1  0.005888  0  -0.065798  -0.110698  0  3.881691  0
C  C163  1  0.35252346  0.89254100  0.46765904  1  0.006191  0  -0.065787  -0.110577  0  3.881849  0
C  C164  1  0.85252150  0.39254653  0.03234129  1  0.005865  0  -0.065743  -0.110567  0  3.881745  0
C  C165  1  0.85252185  0.10745669  0.96766015  1  0.006287  0  -0.065755  -0.110546  0  3.88182  0
C  C166  1  0.64747799  0.39254332  0.46766065  1  0.005866  0  -0.065736  -0.110562  0  3.881747  0
C  C167  1  0.64747958  0.10745708  0.53234083  1  0.005921  0  -0.065726  -0.110541  0  3.881815  0
C  C168  1  0.15061113  0.58104827  0.03078529  1  0.024839  0  -0.006332  0.003525  0  4.007165  0
C  C169  1  0.15061319  0.91895496  0.96921532  1  0.024492  0  -0.006332  0.003477  0  4.007062  0
C  C170  1  0.34938807  0.58104861  0.46921302  1  0.024739  0  -0.006254  0.003653  0  4.007126  0
C  C171  1  0.34938990  0.91895375  0.53078571  1  0.024241  0  -0.006388  0.003441  0  4.006989  0
C  C172  1  0.84938743  0.41894907  0.96921411  1  0.024868  0  -0.006343  0.003527  0  4.007064  0
C  C173  1  0.84938612  0.08105267  0.03078688  1  0.024456  0  -0.006421  0.003444  0  4.007186  0
C  C174  1  0.65061273  0.41894726  0.53078778  1  0.024821  0  -0.006341  0.003521  0  4.007272  0
C  C175  1  0.65061463  0.08104580  0.46921416  1  0.024518  0  -0.006311  0.003452  0  4.007278  0
C  C176  1  0.06420605  0.58753766  0.06728971  1  -0.027312  0  -0.069408  -0.107463  0  3.883896  0
C  C177  1  0.06420011  0.91247413  0.93271252  1  -0.027405  0  -0.069453  -0.107413  0  3.88388  0
C  C178  1  0.43579466  0.58753593  0.43270954  1  -0.027187  0  -0.069481  -0.107532  0  3.883994  0
C  C179  1  0.43579997  0.91247331  0.56728804  1  -0.027232  0  -0.069378  -0.107373  0  3.883838  0
C  C180  1  0.93579773  0.41246630  0.93271063  1  -0.027047  0  -0.069443  -0.107499  0  3.883943  0
C  C181  1  0.93579547  0.08753644  0.06729155  1  -0.027067  0  -0.06934  -0.107466  0  3.883856  0
C  C182  1  0.56420315  0.41246729  0.56728986  1  -0.02714  0  -0.069435  -0.107456  0  3.884092  0
C  C183  1  0.56420307  0.08752624  0.43271183  1  -0.02718  0  -0.069477  -0.107474  0  3.884106  0
C  C184  1  0.88448366  0.62312512  0.07897809  1  1.168188  0  0.2305  0.372365  0  4.00236  0
C  C185  1  0.88448066  0.87687666  0.92102399  1  1.167883  0  0.230541  0.372558  0  4.00222  0
C  C186  1  0.61551581  0.62312605  0.42102185  1  1.168525  0  0.230469  0.372426  0  4.002306  0
C  C187  1  0.61551795  0.87687124  0.57897716  1  1.168219  0  0.230384  0.372322  0  4.002472  0
C  C188  1  0.11551640  0.37687590  0.92101992  1  1.168346  0  0.230616  0.372551  0  4.002306  0
C  C189  1  0.11551790  0.12312803  0.07897774  1  1.168215  0  0.230464  0.372451  0  4.002349  0
C  C190  1  0.38448201  0.37687349  0.57897848  1  1.168239  0  0.23047  0.372465  0  4.002305  0
C  C191  1  0.38448434  0.12312096  0.42102318  1  1.16786  0  0.230496  0.372361  0  4.002417  0
C  C192  1  0.73361046  0.65283450  0.12075839  1  0.22594  0  -0.075755  -0.065545  0  3.888982  0
C  C193  1  0.73361062  0.84716682  0.87924407  1  0.225962  0  -0.075735  -0.065508  0  3.889036  0
C  C194  1  0.76638910  0.65283648  0.37923927  1  0.226222  0  -0.075762  -0.065563  0  3.88922  0
C  C195  1  0.76639088  0.84716567  0.62075564  1  0.225983  0  -0.075733  -0.06562  0  3.889044  0
C  C196  1  0.26639034  0.34716725  0.87924148  1  0.226096  0  -0.075753  -0.065468  0  3.888908  0
C  C197  1  0.26639018  0.15283787  0.12075814  1  0.226162  0  -0.075782  -0.065593  0  3.88904  0
C  C198  1  0.23360797  0.34716674  0.62075734  1  0.225979  0  -0.075755  -0.065661  0  3.88909  0
C  C199  1  0.23361216  0.15283240  0.37924376  1  0.226115  0  -0.075722  -0.065556  0  3.889005  0
C  C200  1  0.79896979  0.59918132  0.16862645  1  0.337202  0  -0.059778  0.014587  0  3.776432  0
C  C201  1  0.79896892  0.90081799  0.83137444  1  0.336813  0  -0.059839  0.014485  0  3.776456  0
C  C202  1  0.70102737  0.59918734  0.33137206  1  0.336944  0  -0.059679  0.014767  0  3.776127  0
C  C203  1  0.70103126  0.90081829  0.66862535  1  0.336817  0  -0.05985  0.014515  0  3.776441  0
C  C204  1  0.20103027  0.40081896  0.83137295  1  0.337223  0  -0.059785  0.014569  0  3.776609  0
C  C205  1  0.20102964  0.09918449  0.16862589  1  0.336826  0  -0.059793  0.01462  0  3.776266  0
C  C206  1  0.29896896  0.40081662  0.66862641  1  0.336876  0  -0.059809  0.014554  0  3.776503  0
C  C207  1  0.29896880  0.09918199  0.33137359  1  0.337215  0  -0.059816  0.014533  0  3.776427  0
C  C208  1  0.05322438  0.64870689  0.87221426  1  1.201653  0  0.23325  0.378077  0  4.00887  0
C  C209  1  0.05322853  0.85129164  0.12778426  1  1.201725  0  0.233206  0.378159  0  4.008635  0
C  C210  1  0.44677413  0.64870632  0.62778546  1  1.201496  0  0.233179  0.378012  0  4.008862  0
C  C211  1  0.44677077  0.85128605  0.37221350  1  1.201417  0  0.233263  0.37823  0  4.008607  0
C  C212  1  0.94677344  0.35129192  0.12778421  1  1.201733  0  0.233178  0.378041  0  4.008786  0
C  C213  1  0.94677227  0.14871011  0.87221561  1  1.201851  0  0.233213  0.378159  0  4.008652  0
C  C214  1  0.55322891  0.35129543  0.37221534  1  1.201835  0  0.233193  0.378081  0  4.008796  0
C  C215  1  0.55323078  0.14871496  0.62778590  1  1.201416  0  0.23319  0.3781  0  4.008728  0
C  C216  1  0.01050528  0.66879956  0.77193054  1  0.222627  0  -0.080766  -0.061601  0  3.871197  0
C  C217  1  0.01050650  0.83119957  0.22806809  1  0.222633  0  -0.080775  -0.061674  0  3.871361  0
C  C218  1  0.48949404  0.66880021  0.72806967  1  0.222604  0  -0.080788  -0.061632  0  3.871204  0
C  C219  1  0.48949424  0.83119523  0.27192872  1  0.222383  0  -0.080802  -0.061766  0  3.871139  0
C  C220  1  0.98949254  0.33120072  0.22806933  1  0.222598  0  -0.080752  -0.0616  0  3.871246  0
C  C221  1  0.98949356  0.16879924  0.77193085  1  0.222609  0  -0.080786  -0.061657  0  3.87135  0
C  C222  1  0.51050676  0.33120007  0.27193113  1  0.222613  0  -0.080802  -0.061724  0  3.87139  0
C  C223  1  0.51050582  0.16880285  0.72807115  1  0.222393  0  -0.080792  -0.061669  0  3.8711  0
C  C224  1  0.12416348  0.66893200  0.77746919  1  0.32338  0  -0.061058  0.019064  0  3.776752  0
C  C225  1  0.12416473  0.83106233  0.22252776  1  0.32355  0  -0.061116  0.019008  0  3.776676  0
C  C226  1  0.37583509  0.66893155  0.72253009  1  0.323397  0  -0.06106  0.019102  0  3.776593  0
C  C227  1  0.37583526  0.83106134  0.27746950  1  0.323397  0  -0.061077  0.019059  0  3.776665  0
C  C228  1  0.87583509  0.33106901  0.22253022  1  0.323363  0  -0.061048  0.019069  0  3.776725  0
C  C229  1  0.87583458  0.16893354  0.77747024  1  0.323428  0  -0.061081  0.019038  0  3.776749  0
C  C230  1  0.62416421  0.33106946  0.27746977  1  0.323373  0  -0.061056  0.019085  0  3.77682  0
C  C231  1  0.62416480  0.16894041  0.72253130  1  0.323399  0  -0.061106  0.018989  0  3.77671  0
C  C232  1  0.24271910  0.53930712  0.05626271  1  1.192416  0  0.2329  0.378909  0  4.00778  0
C  C233  1  0.24272145  0.96069345  0.94373907  1  1.192607  0  0.232971  0.379127  0  4.007961  0
C  C234  1  0.25727997  0.53930562  0.44373507  1  1.192444  0  0.232824  0.378808  0  4.008051  0
C  C235  1  0.25728028  0.96069058  0.55626155  1  1.192489  0  0.232881  0.37894  0  4.007855  0
C  C236  1  0.75727946  0.46069022  0.94373622  1  1.192271  0  0.232838  0.378741  0  4.008046  0
C  C237  1  0.75727935  0.03931050  0.05626313  1  1.192161  0  0.232897  0.378884  0  4.007854  0
C  C238  1  0.74271934  0.46069025  0.55626573  1  1.192143  0  0.232835  0.378702  0  4.007942  0
C  C239  1  0.74272276  0.03930676  0.44373831  1  1.192629  0  0.232926  0.379098  0  4.007968  0
C  C240  1  0.35658083  0.45213325  0.10983549  1  0.271291  0  -0.084225  -0.067723  0  3.874232  0
C  C241  1  0.35658296  0.04786847  0.89016484  1  0.271567  0  -0.084218  -0.067748  0  3.874388  0
C  C242  1  0.14341573  0.45213049  0.39016404  1  0.271588  0  -0.084241  -0.06788  0  3.874394  0
C  C243  1  0.14341739  0.04786838  0.60983635  1  0.271565  0  -0.084256  -0.067881  0  3.874467  0
C  C244  1  0.64341624  0.54786629  0.89016438  1  0.271578  0  -0.084244  -0.067878  0  3.87433  0
C  C245  1  0.64341709  0.95213108  0.10983736  1  0.27145  0  -0.08423  -0.067768  0  3.874351  0
C  C246  1  0.85658507  0.54786759  0.60983583  1  0.271594  0  -0.084254  -0.067949  0  3.874456  0
C  C247  1  0.85658267  0.95213116  0.39016399  1  0.27156  0  -0.084252  -0.067832  0  3.874397  0
C  C248  1  0.40841481  0.50703938  0.05656326  1  0.318823  0  -0.060991  0.021255  0  3.743353  0
C  C249  1  0.40841875  0.99296316  0.94343533  1  0.318971  0  -0.060966  0.021327  0  3.74324  0
C  C250  1  0.09158342  0.50703811  0.44343541  1  0.318767  0  -0.061004  0.021349  0  3.743306  0
C  C251  1  0.09158308  0.99296126  0.55656535  1  0.318962  0  -0.060941  0.02145  0  3.743291  0
C  C252  1  0.59158301  0.49295943  0.94343568  1  0.318782  0  -0.061004  0.021341  0  3.743223  0
C  C253  1  0.59158429  0.00703712  0.05656547  1  0.318947  0  -0.060983  0.021243  0  3.743464  0
C  C254  1  0.90841664  0.49295996  0.55656445  1  0.318774  0  -0.060964  0.021455  0  3.743269  0
C  C255  1  0.90841847  0.00703755  0.44343499  1  0.318981  0  -0.060919  0.021422  0  3.743264  0
Br  Br256  1  0.57412590  0.74999984  0.99999975  1  -0.636654  0  -0.355222  -0.554675  0  1.186722  0
Br  Br257  1  0.92587381  0.75000022  0.50000029  1  -0.636719  0  -0.355226  -0.554677  0  1.18671  0
Br  Br258  1  0.42587176  0.25000075  0.99999957  1  -0.636698  0  -0.355205  -0.554659  0  1.18676  0
Br  Br259  1  0.07412774  0.24999933  0.49999958  1  -0.636778  0  -0.355217  -0.554675  0  1.186712  0
Br  Br260  1  0.74998778  0.66762428  0.75000159  1  -0.576867  0  -0.24071  -0.434963  0  1.677531  0
Br  Br261  1  0.75000753  0.83236974  0.25000129  1  -0.576854  0  -0.240659  -0.434906  0  1.677319  0
Br  Br262  1  0.25000257  0.33236424  0.25000108  1  -0.576926  0  -0.240626  -0.434892  0  1.677039  0
Br  Br263  1  0.25001418  0.16762393  0.74999998  1  -0.576905  0  -0.240675  -0.434904  0  1.677357  0
Br  Br264  1  0.91326569  0.42340956  0.75875285  1  -0.57629  0  -0.272691  -0.437691  0  1.571178  0
Br  Br265  1  0.91326827  0.07658870  0.24124705  1  -0.576194  0  -0.272679  -0.4377  0  1.571222  0
Br  Br266  1  0.58673150  0.42341345  0.74124719  1  -0.576289  0  -0.272679  -0.43769  0  1.571201  0
Br  Br267  1  0.58673098  0.07658824  0.25875351  1  -0.576313  0  -0.272701  -0.437708  0  1.571219  0
Br  Br268  1  0.08672988  0.57658705  0.24124655  1  -0.576318  0  -0.272655  -0.437635  0  1.571208  0
Br  Br269  1  0.08673253  0.92341232  0.75875329  1  -0.57624  0  -0.272678  -0.437682  0  1.571206  0
Br  Br270  1  0.41326781  0.57658537  0.25875268  1  -0.576278  0  -0.272656  -0.437657  0  1.571261  0
Br  Br271  1  0.41326908  0.92341131  0.74124636  1  -0.576288  0  -0.272691  -0.437699  0  1.57117  0
N  N272  1  0.80180126  0.66973266  0.06748891  1  -1.141164  0  -0.411787  -0.352461  0  3.584574  0
N  N273  1  0.80180028  0.83026592  0.93251291  1  -1.140906  0  -0.41184  -0.352683  0  3.584769  0
N  N274  1  0.69820060  0.66973022  0.43251063  1  -1.141299  0  -0.411752  -0.352505  0  3.58459  0
N  N275  1  0.69819968  0.83026365  0.56748771  1  -1.140979  0  -0.411727  -0.352442  0  3.584849  0
N  N276  1  0.19819880  0.33026982  0.93251003  1  -1.14111  0  -0.411914  -0.352743  0  3.584862  0
N  N277  1  0.19819903  0.16973803  0.06748929  1  -1.141101  0  -0.411727  -0.352472  0  3.584752  0
N  N278  1  0.30179946  0.33026933  0.56748830  1  -1.141233  0  -0.411737  -0.352443  0  3.584833  0
N  N279  1  0.30180262  0.16973296  0.43251216  1  -1.140857  0  -0.411763  -0.352438  0  3.584576  0
N  N280  1  0.97629303  0.64289475  0.83552416  1  -1.15025  0  -0.410229  -0.338776  0  3.548069  0
N  N281  1  0.97629473  0.85710657  0.16447536  1  -1.150234  0  -0.410182  -0.338825  0  3.547929  0
N  N282  1  0.52370559  0.64289597  0.66447619  1  -1.150016  0  -0.410196  -0.338773  0  3.548096  0
N  N283  1  0.52370398  0.85709811  0.33552258  1  -1.150248  0  -0.410227  -0.338748  0  3.5479  0
N  N284  1  0.02370478  0.35710333  0.16447571  1  -1.150271  0  -0.410164  -0.338701  0  3.548025  0
N  N285  1  0.02370458  0.14289592  0.83552451  1  -1.150238  0  -0.410177  -0.338792  0  3.547884  0
N  N286  1  0.47629521  0.35710431  0.33552601  1  -1.150321  0  -0.410152  -0.338779  0  3.548076  0
N  N287  1  0.47629832  0.14289777  0.66447729  1  -1.15022  0  -0.410171  -0.338725  0  3.54781  0
N  N288  1  0.24994428  0.47851412  0.10284291  1  -1.18127  0  -0.413442  -0.354865  0  3.61023  0
N  N289  1  0.24994779  0.02148727  0.89716001  1  -1.181563  0  -0.413461  -0.354943  0  3.61036  0
N  N290  1  0.25005161  0.47851318  0.39715572  1  -1.181609  0  -0.413404  -0.354754  0  3.610111  0
N  N291  1  0.25005249  0.02148601  0.60284161  1  -1.181522  0  -0.413421  -0.354896  0  3.610224  0
N  N292  1  0.75005129  0.52148322  0.89715696  1  -1.181644  0  -0.413413  -0.354743  0  3.610165  0
N  N293  1  0.75005227  0.97851448  0.10284359  1  -1.181487  0  -0.413431  -0.354888  0  3.610091  0
N  N294  1  0.74994844  0.52148563  0.60284462  1  -1.181571  0  -0.413397  -0.354655  0  3.610039  0
N  N295  1  0.74994757  0.97851206  0.39715966  1  -1.181571  0  -0.413444  -0.354951  0  3.610301  0
O  O296  1  0.88974234  0.57484741  0.13410755  1  -1.024828  0  -0.160309  -0.194123  0  2.461076  0
O  O297  1  0.88974432  0.92515071  0.86589359  1  -1.024799  0  -0.160324  -0.194185  0  2.460982  0
O  O298  1  0.61025175  0.57485768  0.36588999  1  -1.024911  0  -0.160293  -0.194164  0  2.4611  0
O  O299  1  0.61025818  0.92514841  0.63410670  1  -1.025037  0  -0.160284  -0.194116  0  2.461066  0
O  O300  1  0.11025548  0.42515214  0.86589045  1  -1.024908  0  -0.160318  -0.194194  0  2.461086  0
O  O301  1  0.11025723  0.07485104  0.13410722  1  -1.025093  0  -0.160332  -0.194188  0  2.461073  0
O  O302  1  0.38974233  0.42514921  0.63410848  1  -1.024819  0  -0.160375  -0.194258  0  2.461135  0
O  O303  1  0.38974486  0.07484747  0.36589317  1  -1.024854  0  -0.160331  -0.194131  0  2.460888  0
O  O304  1  0.14201181  0.66938109  0.84497536  1  -1.031443  0  -0.167061  -0.210819  0  2.409812  0
O  O305  1  0.14201573  0.83062064  0.15502248  1  -1.031607  0  -0.167107  -0.210895  0  2.409766  0
O  O306  1  0.35798601  0.66937520  0.65502672  1  -1.031457  0  -0.167125  -0.210825  0  2.40981  0
O  O307  1  0.35798351  0.83061837  0.34497293  1  -1.031225  0  -0.167041  -0.210823  0  2.409849  0
O  O308  1  0.85798451  0.33062213  0.15502451  1  -1.031501  0  -0.167093  -0.210846  0  2.409793  0
O  O309  1  0.85798507  0.16937670  0.84497460  1  -1.031635  0  -0.167089  -0.210863  0  2.409883  0
O  O310  1  0.64201479  0.33062581  0.34497315  1  -1.03149  0  -0.167094  -0.210791  0  2.409848  0
O  O311  1  0.64201729  0.16938559  0.65502741  1  -1.031298  0  -0.166989  -0.210755  0  2.409921  0
O  O312  1  0.32771913  0.56209597  0.02592429  1  -1.024078  0  -0.164459  -0.201999  0  2.4035  0
O  O313  1  0.32772197  0.93790339  0.97407729  1  -1.024061  0  -0.164481  -0.202113  0  2.403443  0
O  O314  1  0.17228150  0.56209579  0.47407493  1  -1.023999  0  -0.164417  -0.202032  0  2.403509  0
O  O315  1  0.17228043  0.93790309  0.52592377  1  -1.024077  0  -0.16444  -0.202026  0  2.403472  0
O  O316  1  0.67228092  0.43790284  0.97407605  1  -1.02402  0  -0.164415  -0.201946  0  2.403418  0
O  O317  1  0.67227958  0.06209616  0.02592444  1  -1.02399  0  -0.164443  -0.201942  0  2.403513  0
O  O318  1  0.82771855  0.43790155  0.52592587  1  -1.023936  0  -0.164457  -0.202016  0  2.403415  0
O  O319  1  0.82772186  0.06209572  0.47407703  1  -1.024073  0  -0.164452  -0.202066  0  2.403441  0
