# generated using pymatgen
data_ZnH6C2(N5F)2
_symmetry_space_group_name_H-M   'P 1'
_cell_length_a   3.35299174
_cell_length_b   10.23140395
_cell_length_c   12.15183215
_cell_angle_alpha   89.99997406
_cell_angle_beta   89.99998137
_cell_angle_gamma   98.15141953
_symmetry_Int_Tables_number   1
_chemical_formula_structural   ZnH6C2(N5F)2
_chemical_formula_sum   'Zn2 H12 C4 N20 F4'
_cell_volume   412.66667708
_cell_formula_units_Z   2
loop_
 _symmetry_equiv_pos_site_id
 _symmetry_equiv_pos_as_xyz
  1  'x, y, z'
loop_
 _atom_site_type_symbol
 _atom_site_label
 _atom_site_symmetry_multiplicity
 _atom_site_fract_x
 _atom_site_fract_y
 _atom_site_fract_z
 _atom_site_occupancy
 _atom_site_pbe_bader_spin_density
 _atom_site_pbe_cm5_charge
 _atom_site_pbe_ddec_charge
 _atom_site_pbe_ddec_spin_density
 _atom_site_pbe_ddec_sum_bond_order
 _atom_site_pbe_magmom
Zn  Zn0  1  0.49999789  0.99999881  0.99999961  1  0  0.673703  0.887767  0  2.223124  0
Zn  Zn1  1  0.99999950  0.49999946  0.50000018  1  0  0.673711  0.88779  0  2.223115  0
H  H2  1  0.51880519  0.70065291  0.65601286  1  0  0.296149  0.301448  0  1.005764  0
H  H3  1  0.98119307  0.79934657  0.15601249  1  0  0.296132  0.301455  0  1.005759  0
H  H4  1  0.48119587  0.29934792  0.34398673  1  0  0.296148  0.301452  0  1.005757  0
H  H5  1  0.01880419  0.20065228  0.84398792  1  0  0.296141  0.301438  0  1.005763  0
H  H6  1  0.72663573  0.72316200  0.96609283  1  0  0.299674  0.330925  0  0.953117  0
H  H7  1  0.77336550  0.77683827  0.46609332  1  0  0.299679  0.330928  0  0.953111  0
H  H8  1  0.27336832  0.27683883  0.03390676  1  0  0.299666  0.330917  0  0.953125  0
H  H9  1  0.22663217  0.22316156  0.53390709  1  0  0.299675  0.330946  0  0.953092  0
H  H10  1  0.69643886  0.60916095  0.85801203  1  0  0.3086  0.30715  0  0.998026  0
H  H11  1  0.80356252  0.89083939  0.35801248  1  0  0.308601  0.30715  0  0.998  0
H  H12  1  0.30356519  0.39083988  0.14198673  1  0  0.308603  0.307155  0  0.998014  0
H  H13  1  0.19644112  0.10916046  0.64198794  1  0  0.308601  0.307161  0  0.997989  0
C  C14  1  0.53110577  0.78678882  0.82286340  1  0  0.347891  0.509877  0  4.103363  0
C  C15  1  0.96889566  0.71321154  0.32286389  1  0  0.347847  0.509809  0  4.103482  0
C  C16  1  0.46889489  0.21321102  0.17713537  1  0  0.347844  0.509827  0  4.103398  0
C  C17  1  0.03110201  0.28678829  0.67713652  1  0  0.347853  0.509876  0  4.103387  0
N  N18  1  0.47212829  0.91066045  0.85010207  1  0  -0.254761  -0.34489  0  3.451361  0
N  N19  1  0.02786877  0.58934080  0.35010183  1  0  -0.254745  -0.344869  0  3.451304  0
N  N20  1  0.52786978  0.08934037  0.14989752  1  0  -0.254732  -0.344866  0  3.451363  0
N  N21  1  0.97212632  0.41066001  0.64989858  1  0  -0.254744  -0.344904  0  3.451338  0
N  N22  1  0.39476327  0.97271618  0.75473537  1  0  -0.086643  -0.06138  0  3.320366  0
N  N23  1  0.10523949  0.52728416  0.25473515  1  0  -0.086636  -0.061357  0  3.320276  0
N  N24  1  0.60523739  0.02728366  0.24526504  1  0  -0.086629  -0.06135  0  3.320323  0
N  N25  1  0.89476116  0.47271568  0.74526527  1  0  -0.086626  -0.061339  0  3.320341  0
N  N26  1  0.40144083  0.89373233  0.67234617  1  0  -0.091673  -0.06071  0  3.198486  0
N  N27  1  0.09856205  0.60626806  0.17234591  1  0  -0.091687  -0.06072  0  3.198527  0
N  N28  1  0.59856023  0.10626850  0.32765425  1  0  -0.091682  -0.06074  0  3.198511  0
N  N29  1  0.90143861  0.39373178  0.82765450  1  0  -0.091666  -0.060694  0  3.198415  0
N  N30  1  0.48352350  0.77676420  0.71260184  1  0  -0.267346  -0.250197  0  3.577769  0
N  N31  1  0.01647593  0.72323517  0.21260155  1  0  -0.267322  -0.250223  0  3.577854  0
N  N32  1  0.51647716  0.22323564  0.28739775  1  0  -0.267339  -0.250188  0  3.577736  0
N  N33  1  0.98352133  0.27676368  0.78739804  1  0  -0.26735  -0.250231  0  3.577803  0
N  N34  1  0.60699827  0.69135597  0.89183491  1  0  -0.57443  -0.637601  0  3.315337  0
N  N35  1  0.89300605  0.80864436  0.39183455  1  0  -0.574429  -0.637558  0  3.315338  0
N  N36  1  0.39300577  0.30864486  0.10816468  1  0  -0.574422  -0.637574  0  3.315357  0
N  N37  1  0.10699461  0.19135548  0.60816587  1  0  -0.574448  -0.63764  0  3.31533  0
F  F38  1  0.06182719  0.12331858  0.95035296  1  0  -0.314293  -0.538502  0  1.103391  0
F  F39  1  0.43817531  0.37668057  0.45035258  1  0  -0.314306  -0.538522  0  1.103393  0
F  F40  1  0.93816967  0.87667927  0.04964745  1  0  -0.314304  -0.538503  0  1.103375  0
F  F41  1  0.56182534  0.62331927  0.54964702  1  0  -0.314304  -0.538513  0  1.103382  0
