# generated using pymatgen
data_NiH10C10(NCl)2
_symmetry_space_group_name_H-M   'P 1'
_cell_length_a   3.60218407
_cell_length_b   17.03498127
_cell_length_c   18.87185562
_cell_angle_alpha   116.52833109
_cell_angle_beta   90.00032219
_cell_angle_gamma   90.00033497
_symmetry_Int_Tables_number   1
_chemical_formula_structural   NiH10C10(NCl)2
_chemical_formula_sum   'Ni4 H40 C40 N8 Cl8'
_cell_volume   1036.11083457
_cell_formula_units_Z   4
loop_
 _symmetry_equiv_pos_site_id
 _symmetry_equiv_pos_as_xyz
  1  'x, y, z'
loop_
 _atom_site_type_symbol
 _atom_site_label
 _atom_site_symmetry_multiplicity
 _atom_site_fract_x
 _atom_site_fract_y
 _atom_site_fract_z
 _atom_site_occupancy
 _atom_site_hle17_ddec_charge
 _atom_site_hle17_ddec_spin_density
 _atom_site_hle17_ddec_sum_bond_order
 _atom_site_hle17_magmom
 _atom_site_hse06_10hf_bader_charge
 _atom_site_hse06_10hf_bader_spin_density
 _atom_site_hse06_10hf_ddec_charge
 _atom_site_hse06_10hf_ddec_spin_density
 _atom_site_hse06_10hf_ddec_sum_bond_order
 _atom_site_hse06_10hf_magmom
 _atom_site_hse06_ddec_charge
 _atom_site_hse06_ddec_spin_density
 _atom_site_hse06_ddec_sum_bond_order
 _atom_site_hse06_magmom
 _atom_site_pbe_cm5_charge
 _atom_site_pbe_ddec_charge
 _atom_site_pbe_ddec_spin_density
 _atom_site_pbe_ddec_sum_bond_order
 _atom_site_pbe_magmom
Ni  Ni0  1  0.43202166  0.75000106  0.99999858  1  0.628331  1.723311  2.158745  1.414  1.067334  1.570384  0.665786  1.784274  2.523174  1.555  0.772859  1.858549  2.440577  1.663  0.468042  0.591959  1.722063  2.580442  1.468
Ni  Ni1  1  0.56798203  0.24999851  0.99999879  1  0.628337  -1.851855  2.158529  -1.414  1.067304  -1.570316  0.665746  -1.857708  2.523009  -1.555  0.772812  -1.950852  2.440388  -1.663  0.467998  0.591904  -1.780033  2.580306  -1.468
Ni  Ni2  1  0.83557067  0.25000036  0.50000143  1  0.62982  1.722063  2.17954  1.413  1.058138  1.567851  0.669079  1.780851  2.542499  1.551  0.775475  1.855735  2.459546  1.66  0.475609  0.596265  1.717987  2.599264  1.464
Ni  Ni3  1  0.16445441  0.74999905  0.49999886  1  0.630206  1.722156  2.17924  1.413  1.058246  1.567857  0.66931  1.780887  2.542223  1.551  0.775667  1.855746  2.459286  1.66  0.475696  0.596478  1.718017  2.598988  1.464
H  H4  1  0.58306097  0.85167645  0.17210920  1  0.074685  0.00079  0.979505  0.001  0.1305  0.001796  0.082061  0.000716  1.048875  0.001  0.084941  0.000496  1.045414  0.001  0.102436  0.079697  0.000921  1.051813  0.001
H  H5  1  0.58305938  0.64832058  0.82788800  1  0.074683  0.00079  0.979464  0.001  0.130477  0.001796  0.082043  0.000715  1.048858  0.001  0.084922  0.000496  1.045398  0.001  0.102424  0.079681  0.000921  1.051798  0.001
H  H6  1  0.41693357  0.14832361  0.82789082  1  0.074649  -0.00096  0.979495  -0.001  0.130989  -0.001848  0.082041  -0.000815  1.048853  -0.001  0.08492  -0.000577  1.045391  -0.001  0.102425  0.079678  -0.001042  1.05179  -0.001
H  H7  1  0.41694349  0.35167555  0.17210673  1  0.074679  -0.000961  0.979484  -0.001  0.130701  -0.001848  0.082059  -0.000815  1.048848  -0.001  0.084936  -0.000577  1.04539  -0.001  0.102433  0.079696  -0.001042  1.051786  -0.001
H  H8  1  0.27446413  0.92243362  0.99823010  1  0.074128  0.000744  0.977163  0.001  0.109454  0.00171  0.081861  0.00066  1.04536  0.001  0.084467  0.000456  1.042527  0.001  0.103098  0.079703  0.000853  1.047865  0.001
H  H9  1  0.27445289  0.57756996  0.00176995  1  0.074083  0.000744  0.977247  0.001  0.109585  0.00171  0.081801  0.00066  1.045487  0.001  0.084407  0.000456  1.042655  0.001  0.103059  0.079645  0.000853  1.047987  0.001
H  H10  1  0.72554984  0.07756579  0.00176701  1  0.074097  -0.000823  0.977207  -0.001  0.109521  -0.001709  0.081799  -0.000692  1.045432  -0.001  0.084404  -0.000485  1.0426  -0.001  0.103056  0.079637  -0.000887  1.047941  -0.001
H  H11  1  0.72556109  0.42243142  0.99822902  1  0.074176  -0.000823  0.977093  -0.001  0.109538  -0.001709  0.081821  -0.000692  1.045428  -0.001  0.084425  -0.000485  1.042598  -0.001  0.103108  0.079666  -0.000887  1.047923  -0.001
H  H12  1  0.57483879  0.00883289  0.27710660  1  0.105992  0.000869  0.954754  0.0  0.08952  0.001706  0.116923  0.001042  1.013497  0.0  0.120554  0.000725  1.012179  0.0  0.100533  0.11414  0.001354  1.014734  0.001
H  H13  1  0.57484668  0.49116267  0.72289496  1  0.105984  0.000869  0.95476  0.0  0.089566  0.001706  0.11688  0.001042  1.013546  0.0  0.120514  0.000725  1.012221  0.0  0.100519  0.114098  0.001354  1.014785  0.001
H  H14  1  0.42515298  0.99116652  0.72289210  1  0.105971  0.000331  0.954822  0.0  0.089452  0.000276  0.116893  0.000401  1.013583  0.0  0.120526  0.000272  1.012261  0.0  0.100511  0.114106  0.000532  1.014828  0.0
H  H15  1  0.42515897  0.50883280  0.27710427  1  0.105934  0.000331  0.954861  0.0  0.08957  0.000276  0.116854  0.000401  1.013621  0.0  0.120486  0.000272  1.012303  0.0  0.100518  0.114066  0.000532  1.014867  0.0
H  H16  1  0.25168598  0.08217282  0.09470721  1  0.100704  -0.000218  0.983277  0.0  0.104609  -7.9e-05  0.109126  -0.00027  1.048774  0.0  0.113308  -0.000174  1.046367  0.0  0.093949  0.105939  -0.00036  1.05078  0.0
H  H17  1  0.25168326  0.41783057  0.90529717  1  0.100634  -0.000218  0.983396  0.0  0.105239  -7.9e-05  0.109072  -0.00027  1.048896  0.0  0.113241  -0.000174  1.0465  0.0  0.093908  0.105882  -0.00036  1.0509  0.0
H  H18  1  0.74832799  0.91782725  0.90528964  1  0.100728  0.00018  0.983301  0.0  0.104651  9.3e-05  0.10915  0.00025  1.048807  0.0  0.113316  0.000158  1.046417  0.0  0.093969  0.105964  0.000341  1.050808  0.0
H  H19  1  0.74831961  0.58217014  0.09470523  1  0.1007  0.000179  0.98335  0.0  0.104725  9.3e-05  0.109131  0.00025  1.048844  0.0  0.113317  0.000158  1.04643  0.0  0.093925  0.105942  0.000341  1.050847  0.0
H  H20  1  0.40622828  0.12593913  0.23739564  1  0.08486  0.000182  0.974023  0.001  0.104943  -6.7e-05  0.096419  -6e-05  1.03747  0.0  0.098364  -5.1e-05  1.036171  0.0  0.103072  0.094855  -7.5e-05  1.0388  0.0
H  H21  1  0.40623677  0.37405803  0.76260851  1  0.084873  0.000182  0.974069  0.001  0.105003  -6.7e-05  0.096448  -6e-05  1.037477  0.0  0.098396  -5.1e-05  1.036183  0.0  0.103095  0.094886  -7.5e-05  1.038805  0.0
H  H22  1  0.59377459  0.87405962  0.76260068  1  0.084796  -0.00035  0.974131  -0.001  0.104827  -2e-06  0.096396  -4.1e-05  1.03752  0.0  0.098335  -2e-05  1.036243  0.0  0.103059  0.094836  -6.6e-05  1.038841  0.0
H  H23  1  0.59377165  0.62593940  0.23739363  1  0.084893  -0.00035  0.974023  -0.001  0.105035  -2e-06  0.096406  -4.1e-05  1.037531  0.0  0.098351  -2e-05  1.036231  0.0  0.10307  0.094845  -6.6e-05  1.038857  0.0
H  H24  1  0.76111329  0.07420592  0.49758053  1  0.073544  0.000904  0.969428  0.002  0.107949  0.001934  0.080971  0.00078  1.037797  0.001  0.08345  0.000563  1.035055  0.001  0.104601  0.078836  0.000985  1.040341  0.001
H  H25  1  0.76110728  0.42579529  0.50242246  1  0.073609  0.000905  0.969357  0.002  0.107978  0.001934  0.081039  0.00078  1.037735  0.001  0.083514  0.000563  1.034992  0.001  0.104657  0.078904  0.000985  1.04028  0.001
H  H26  1  0.23889791  0.92579675  0.50242691  1  0.073584  0.000908  0.969413  0.002  0.107881  0.001935  0.081013  0.000783  1.037795  0.001  0.083488  0.000564  1.035057  0.001  0.104644  0.078877  0.000989  1.040342  0.001
H  H27  1  0.23890947  0.57420215  0.49757386  1  0.073578  0.000909  0.969441  0.002  0.107865  0.001936  0.081017  0.000783  1.037812  0.001  0.083494  0.000565  1.035075  0.001  0.104663  0.078884  0.000989  1.040353  0.001
H  H28  1  0.91097856  0.32587596  0.67364202  1  0.073929  0.000988  0.973586  0.002  0.113027  0.002016  0.081155  0.000899  1.043356  0.001  0.083885  0.000637  1.039949  0.001  0.103369  0.078847  0.001146  1.046349  0.001
H  H29  1  0.91098239  0.17412688  0.32636285  1  0.074033  0.000988  0.973473  0.002  0.113048  0.002016  0.081282  0.000899  1.043205  0.001  0.084016  0.000636  1.039792  0.001  0.10342  0.078975  0.001146  1.046197  0.001
H  H30  1  0.08903264  0.67412868  0.32636622  1  0.074012  0.00102  0.973556  0.002  0.113097  0.002053  0.081275  0.0009  1.043253  0.001  0.084009  0.000642  1.039842  0.001  0.103443  0.078968  0.001148  1.046248  0.001
H  H31  1  0.08902881  0.82587056  0.67363294  1  0.074016  0.00102  0.973542  0.002  0.113094  0.002053  0.081286  0.000899  1.043249  0.001  0.084022  0.000642  1.039833  0.001  0.103456  0.07898  0.001148  1.046243  0.001
H  H32  1  0.80235544  0.01026771  0.59433227  1  0.100757  0.000813  0.99197  0.0  0.127691  0.001556  0.109148  0.000955  1.057917  0.0  0.113611  0.000659  1.055139  0.0  0.092087  0.105714  0.001245  1.06021  0.001
H  H33  1  0.80234009  0.48973490  0.40567186  1  0.10077  0.000813  0.991916  0.0  0.127484  0.001556  0.109162  0.000955  1.057868  0.0  0.113628  0.000658  1.055087  0.0  0.092084  0.10573  0.001244  1.06016  0.001
H  H34  1  0.19764465  0.98973823  0.40567915  1  0.100685  0.000815  0.991981  0.0  0.127446  0.001567  0.109102  0.000959  1.057911  0.0  0.113552  0.000661  1.05515  0.0  0.092078  0.105677  0.00125  1.060198  0.001
H  H35  1  0.19763780  0.51026124  0.59432233  1  0.100762  0.000815  0.991983  0.0  0.127436  0.001567  0.109172  0.000959  1.057913  0.0  0.113634  0.000661  1.055138  0.0  0.092087  0.105748  0.00125  1.0602  0.001
H  H36  1  0.95899189  0.27322171  0.77906153  1  0.103708  -0.000464  0.967646  0.0  0.122691  -0.000292  0.114368  -0.00046  1.02789  0.0  0.118169  -0.00031  1.026339  0.0  0.09748  0.111522  -0.000606  1.029189  0.0
H  H37  1  0.95898025  0.22678321  0.22094529  1  0.103564  -0.000465  0.9677  0.0  0.122861  -0.000292  0.114277  -0.00046  1.027891  0.0  0.118055  -0.00031  1.026369  0.0  0.097427  0.111435  -0.000606  1.02919  0.0
H  H38  1  0.04100265  0.72678752  0.22095122  1  0.103606  0.000964  0.967687  0.0  0.122884  0.00169  0.114296  0.001073  1.027903  0.0  0.118019  0.000745  1.026447  0.0  0.097418  0.111458  0.001395  1.029192  0.001
H  H39  1  0.04097265  0.77321162  0.77904679  1  0.103598  0.000964  0.967714  0.0  0.123012  0.00169  0.114308  0.001073  1.0279  0.0  0.118035  0.000745  1.026437  0.0  0.097422  0.111471  0.001395  1.029191  0.001
H  H40  1  0.91676183  0.11243672  0.73768267  1  0.083427  0.000269  0.973217  0.001  0.087169  1.1e-05  0.095669  1e-06  1.035341  0.0  0.097541  -1e-05  1.03413  0.0  0.102526  0.094197  1.7e-05  1.036498  0.0
H  H41  1  0.91674211  0.38756679  0.26232089  1  0.083387  0.000269  0.973222  0.001  0.087728  1.1e-05  0.09564  1e-06  1.035337  0.0  0.097511  -1e-05  1.034125  0.0  0.102526  0.094171  1.7e-05  1.03649  0.0
H  H42  1  0.08322161  0.88757185  0.26232822  1  0.083496  0.000168  0.973097  0.001  0.088149  -2.6e-05  0.095722  -6.7e-05  1.035241  0.0  0.097599  -5.7e-05  1.03403  0.0  0.102509  0.094245  -7.9e-05  1.03641  0.0
H  H43  1  0.08319968  0.61242869  0.73767145  1  0.08346  0.000168  0.973158  0.001  0.088197  -2.6e-05  0.095696  -6.7e-05  1.035306  0.0  0.097571  -5.7e-05  1.034094  0.0  0.102501  0.094222  -7.9e-05  1.036473  0.0
C  C44  1  0.51182697  0.90528502  0.15815071  1  0.113885  -0.009505  3.700186  -0.011  0.427161  -0.003577  0.084078  -0.001917  3.95533  -0.003  0.093038  -0.002417  3.97416  -0.003  0.037126  0.077863  -0.001749  3.943228  -0.002
C  C45  1  0.51182981  0.59471185  0.84184741  1  0.113938  -0.009504  3.700254  -0.011  0.427107  -0.003577  0.084099  -0.001916  3.955352  -0.003  0.09306  -0.002416  3.974178  -0.003  0.037178  0.077882  -0.001748  3.943261  -0.002
C  C46  1  0.48817590  0.09471242  0.84184561  1  0.113974  0.008707  3.700182  0.011  0.426412  0.003789  0.084165  0.001818  3.95528  0.003  0.093126  0.002262  3.974106  0.003  0.037183  0.077951  0.001707  3.943177  0.003
C  C47  1  0.48818139  0.40528625  0.15815023  1  0.113852  0.008707  3.700166  0.011  0.426758  0.003789  0.084034  0.001817  3.955321  0.003  0.092998  0.002262  3.974149  0.003  0.03712  0.077816  0.001706  3.943221  0.003
C  C48  1  0.34118518  0.94480887  0.06050490  1  0.126076  -0.009494  3.678669  -0.011  0.492434  -0.003755  0.097564  -0.001905  3.929479  -0.003  0.10665  -0.002394  3.948926  -0.003  0.040427  0.091232  -0.00175  3.916963  -0.002
C  C49  1  0.34118143  0.55519354  0.93949581  1  0.12605  -0.009495  3.678768  -0.011  0.492272  -0.003755  0.097456  -0.001905  3.929594  -0.003  0.106544  -0.002394  3.949034  -0.003  0.040397  0.091127  -0.00175  3.917075  -0.002
C  C50  1  0.65882602  0.05518989  0.93949195  1  0.126051  0.008711  3.678819  0.011  0.492119  0.003831  0.097591  0.001788  3.929554  0.003  0.106681  0.002234  3.948994  0.003  0.040388  0.091256  0.001677  3.917052  0.002
C  C51  1  0.65882977  0.44480849  0.06050449  1  0.126076  0.008711  3.678593  0.011  0.492316  0.003829  0.097594  0.001788  3.929429  0.003  0.106682  0.002234  3.948877  0.003  0.040394  0.091261  0.001677  3.916909  0.002
C  C52  1  0.50875870  0.99225369  0.21565300  1  -0.130417  0.009277  3.746863  0.011  0.001198  0.005201  -0.140011  0.003078  3.994521  0.004  -0.147672  0.002855  4.014592  0.004  -0.090217  -0.13496  0.003481  3.981473  0.004
C  C53  1  0.50876014  0.50774383  0.78434750  1  -0.130528  0.009277  3.746989  0.011  0.001385  0.005201  -0.140089  0.003078  3.994679  0.004  -0.14775  0.002854  4.014753  0.004  -0.090256  -0.13504  0.003481  3.981642  0.004
C  C54  1  0.49123584  0.00774506  0.78434438  1  -0.130476  -0.009164  3.746974  -0.01  -8.5e-05  -0.003814  -0.140087  -0.002254  3.994658  -0.003  -0.147748  -0.002359  4.014727  -0.003  -0.090229  -0.135035  -0.002327  3.981618  -0.003
C  C55  1  0.49123718  0.49225427  0.21565120  1  -0.130317  -0.009164  3.747013  -0.01  0.001348  -0.003813  -0.139886  -0.002254  3.994667  -0.003  -0.147549  -0.002359  4.014735  -0.003  -0.090169  -0.134837  -0.002327  3.98163  -0.003
C  C56  1  0.32825301  0.03321002  0.11451050  1  -0.127343  0.008688  3.734307  0.01  0.001052  0.004046  -0.135237  0.002263  3.977224  0.003  -0.143261  0.002324  3.997525  0.003  -0.090178  -0.129925  0.002375  3.964054  0.003
C  C57  1  0.32824278  0.46679091  0.88549191  1  -0.127225  0.008689  3.734371  0.01  0.00037  0.004047  -0.135157  0.002263  3.977313  0.003  -0.143168  0.002324  3.997623  0.003  -0.090135  -0.129842  0.002376  3.964141  0.003
C  C58  1  0.67174708  0.96678808  0.88548714  1  -0.127435  -0.009326  3.734334  -0.01  0.000993  -0.004022  -0.135366  -0.002369  3.977292  -0.003  -0.143376  -0.002454  3.9976  -0.003  -0.090214  -0.130055  -0.002457  3.964126  -0.003
C  C59  1  0.67175454  0.53320915  0.11450812  1  -0.12741  -0.009324  3.734451  -0.01  0.000853  -0.00402  -0.135309  -0.002369  3.977319  -0.003  -0.143334  -0.002453  3.997617  -0.003  -0.090171  -0.13  -0.002457  3.964158  -0.003
C  C60  1  0.41358331  0.05745001  0.19354105  1  -0.006848  -0.010614  3.731145  -0.011  -0.130084  -0.005171  -0.024307  -0.003022  3.973335  -0.003  -0.019281  -0.002917  3.991245  -0.003  -0.072061  -0.027948  -0.003562  3.961753  -0.004
C  C61  1  0.41358394  0.44254848  0.80646205  1  -0.006853  -0.010614  3.731092  -0.011  -0.130211  -0.005172  -0.024305  -0.003022  3.973266  -0.003  -0.019288  -0.002917  3.991181  -0.003  -0.07211  -0.027949  -0.003562  3.961688  -0.004
C  C62  1  0.58641679  0.94254809  0.80645606  1  -0.006699  0.009814  3.731004  0.011  -0.128173  0.005202  -0.024178  0.002899  3.973178  0.003  -0.019154  0.002768  3.991077  0.003  -0.07205  -0.027829  0.003448  3.96162  0.004
C  C63  1  0.58642449  0.55745027  0.19353956  1  -0.006865  0.009814  3.731087  0.011  -0.130164  0.005201  -0.024308  0.002898  3.973301  0.003  -0.019287  0.002768  3.991226  0.003  -0.072079  -0.027954  0.003447  3.961724  0.004
C  C64  1  0.80824177  0.11551425  0.56041985  1  0.129065  -0.00994  3.679098  -0.011  0.500492  -0.003896  0.101276  -0.002027  3.928547  -0.003  0.110702  -0.00249  3.947566  -0.003  0.041812  0.094662  -0.001899  3.916603  -0.002
C  C65  1  0.80823273  0.38448771  0.43958297  1  0.129049  -0.009942  3.679242  -0.011  0.500129  -0.003896  0.101232  -0.002027  3.928691  -0.003  0.110658  -0.00249  3.947699  -0.003  0.041763  0.094616  -0.001898  3.91675  -0.002
C  C66  1  0.19176943  0.88449039  0.43958839  1  0.129099  -0.010026  3.679301  -0.011  0.499872  -0.003883  0.101252  -0.002028  3.928774  -0.003  0.110682  -0.002498  3.94778  -0.003  0.041769  0.094621  -0.00189  3.916821  -0.002
C  C67  1  0.19176737  0.61550973  0.56041176  1  0.129129  -0.010023  3.679354  -0.011  0.499853  -0.003882  0.101275  -0.002027  3.928799  -0.003  0.1107  -0.002498  3.947807  -0.003  0.041761  0.094656  -0.00189  3.916852  -0.002
C  C68  1  0.89008448  0.25666832  0.65933538  1  0.115039  -0.009936  3.701925  -0.011  0.424017  -0.003941  0.085684  -0.002062  3.956028  -0.003  0.095007  -0.002526  3.974588  -0.003  0.036942  0.079149  -0.001927  3.9444  -0.003
C  C69  1  0.89009071  0.24333317  0.34066892  1  0.11486  -0.009938  3.701806  -0.011  0.424064  -0.003942  0.085456  -0.002063  3.955912  -0.003  0.094768  -0.002526  3.974458  -0.003  0.0368  0.078924  -0.001928  3.944283  -0.003
C  C70  1  0.10992395  0.74333501  0.34067233  1  0.114838  -0.009977  3.70208  -0.011  0.424356  -0.003711  0.085445  -0.001995  3.956138  -0.003  0.094766  -0.002489  3.974667  -0.003  0.036726  0.078895  -0.001812  3.944494  -0.002
C  C71  1  0.10991772  0.75666493  0.65932607  1  0.114842  -0.009977  3.701992  -0.011  0.424301  -0.003711  0.085401  -0.001995  3.956082  -0.003  0.094723  -0.00249  3.974605  -0.003  0.036711  0.078861  -0.001812  3.944448  -0.002
C  C72  1  0.83212757  0.08072954  0.61440497  1  -0.129519  0.00961  3.735642  0.011  -0.171225  0.005289  -0.137653  0.003097  3.977728  0.004  -0.145876  0.002886  3.997735  0.004  -0.091423  -0.132188  0.003484  3.964973  0.004
C  C73  1  0.83210961  0.41927248  0.38559842  1  -0.129511  0.009612  3.735673  0.011  -0.170991  0.005289  -0.137616  0.003097  3.977774  0.004  -0.145841  0.002886  3.997777  0.004  -0.091374  -0.132155  0.003484  3.965017  0.004
C  C74  1  0.16785309  0.91927445  0.38560194  1  -0.129335  0.009673  3.736121  0.012  -0.170846  0.00535  -0.137459  0.003113  3.978194  0.004  -0.145672  0.002895  3.99821  0.004  -0.091322  -0.132008  0.003515  3.965434  0.004
C  C75  1  0.16785439  0.58072496  0.61439684  1  -0.129546  0.009673  3.736094  0.012  -0.17084  0.005349  -0.137648  0.003112  3.978192  0.004  -0.145868  0.002895  3.998202  0.004  -0.091392  -0.132195  0.003515  3.965434  0.004
C  C76  1  0.91865923  0.22716588  0.71697526  1  -0.130125  0.008686  3.744666  0.01  -0.047505  0.003681  -0.139627  0.002082  3.990622  0.003  -0.147589  0.002209  4.010678  0.003  -0.090796  -0.134353  0.002123  3.97769  0.003
C  C77  1  0.91864796  0.27283895  0.28303042  1  -0.129932  0.008688  3.744553  0.01  -0.047544  0.003681  -0.139473  0.002082  3.990517  0.003  -0.147416  0.002209  4.010584  0.003  -0.090711  -0.134204  0.002123  3.977585  0.003
C  C78  1  0.08132421  0.77284335  0.28303536  1  -0.129941  0.009652  3.744679  0.012  -0.047763  0.005406  -0.139452  0.003177  3.990615  0.004  -0.147348  0.00294  4.010694  0.004  -0.090656  -0.134187  0.003594  3.977683  0.005
C  C79  1  0.08132715  0.72715522  0.71696351  1  -0.130029  0.00965  3.744657  0.012  -0.047838  0.005405  -0.139554  0.003177  3.990618  0.004  -0.147451  0.00294  4.010692  0.004  -0.090703  -0.134286  0.003595  3.977696  0.005
C  C80  1  0.89276499  0.13748012  0.69396904  1  -0.004682  -0.011035  3.727666  -0.011  0.059742  -0.005291  -0.021669  -0.003118  3.969159  -0.003  -0.016469  -0.003  3.987078  -0.003  -0.072615  -0.025504  -0.003662  3.957687  -0.004
C  C81  1  0.89275417  0.36252400  0.30603580  1  -0.004649  -0.011037  3.727574  -0.011  0.059446  -0.005291  -0.021667  -0.003118  3.969115  -0.003  -0.016463  -0.003  3.987026  -0.003  -0.072613  -0.025503  -0.003662  3.957645  -0.004
C  C82  1  0.10722678  0.86252846  0.30604185  1  -0.004882  -0.011186  3.727993  -0.012  0.059048  -0.005307  -0.021878  -0.003136  3.969507  -0.003  -0.016677  -0.003021  3.987399  -0.003  -0.072695  -0.025714  -0.003684  3.95804  -0.004
C  C83  1  0.10720706  0.63747148  0.69395761  1  -0.00465  -0.011185  3.727764  -0.012  0.058981  -0.005306  -0.021672  -0.003136  3.96928  -0.003  -0.016468  -0.003021  3.987169  -0.003  -0.072558  -0.025509  -0.003683  3.957821  -0.004
N  N84  1  0.42984746  0.88139876  0.08163506  1  -0.273252  0.054944  3.338805  0.081  -1.239964  0.055792  -0.223545  0.034126  3.61115  0.052  -0.256277  0.027894  3.638025  0.044  -0.327879  -0.202092  0.038884  3.593895  0.057
N  N85  1  0.42984490  0.61860319  0.91836450  1  -0.273185  0.054944  3.338783  0.081  -1.24003  0.055791  -0.223295  0.034126  3.610938  0.052  -0.256027  0.027894  3.637817  0.044  -0.327792  -0.201844  0.038882  3.593691  0.057
N  N86  1  0.57016374  0.11860130  0.91836338  1  -0.273167  -0.059261  3.338627  -0.081  -1.239877  -0.055651  -0.223445  -0.035599  3.610943  -0.052  -0.256179  -0.029439  3.637811  -0.044  -0.327781  -0.201983  -0.040175  3.593684  -0.057
N  N87  1  0.57016352  0.38139753  0.08163474  1  -0.273208  -0.059258  3.338587  -0.081  -1.239949  -0.055648  -0.223454  -0.035597  3.610884  -0.052  -0.256185  -0.029437  3.637746  -0.044  -0.327845  -0.201993  -0.040175  3.593627  -0.057
N  N88  1  0.84001016  0.20195487  0.58213803  1  -0.269966  0.054881  3.348687  0.081  -1.23076  0.055412  -0.220282  0.033835  3.620132  0.051  -0.252657  0.02783  3.64599  0.044  -0.332028  -0.19931  0.038372  3.60378  0.057
N  N89  1  0.84000912  0.29804782  0.41786617  1  -0.270014  0.054882  3.348875  0.081  -1.23099  0.05542  -0.220258  0.033835  3.620264  0.051  -0.252622  0.02783  3.646121  0.044  -0.332031  -0.199288  0.038372  3.603917  0.057
N  N90  1  0.15999826  0.79804846  0.41786862  1  -0.270078  0.055004  3.349013  0.081  -1.230913  0.0556  -0.220303  0.033914  3.620397  0.052  -0.252681  0.027876  3.646275  0.044  -0.331993  -0.199286  0.038499  3.604003  0.057
N  N91  1  0.15999930  0.70194963  0.58213015  1  -0.270065  0.055002  3.348949  0.081  -1.230848  0.055599  -0.220242  0.033914  3.620311  0.052  -0.252626  0.027876  3.64621  0.044  -0.332005  -0.199254  0.038498  3.603949  0.057
Cl  Cl92  1  0.93249513  0.77823560  0.92658517  1  -0.454345  0.133049  1.159723  0.176  -0.623338  0.153515  -0.476247  0.093505  1.459121  0.122  -0.519589  0.069537  1.435852  0.092  -0.230117  -0.44302  0.114239  1.475183  0.146
Cl  Cl93  1  0.93249567  0.72176481  0.07341272  1  -0.45432  0.133052  1.159762  0.176  -0.623261  0.153513  -0.476228  0.093504  1.459151  0.122  -0.519576  0.069536  1.435891  0.092  -0.230093  -0.442997  0.114243  1.475201  0.146
Cl  Cl94  1  0.06751607  0.22176315  0.07341539  1  -0.454379  -0.143931  1.159648  -0.176  -0.623252  -0.153336  -0.476248  -0.097734  1.459073  -0.122  -0.519592  -0.073543  1.435806  -0.092  -0.230109  -0.443025  -0.118303  1.475149  -0.146
Cl  Cl95  1  0.06751553  0.27823395  0.92658307  1  -0.45434  -0.143934  1.159687  -0.176  -0.623315  -0.153337  -0.476208  -0.097734  1.45909  -0.122  -0.519555  -0.073543  1.435827  -0.092  -0.230102  -0.442991  -0.118306  1.475168  -0.146
Cl  Cl96  1  0.33958016  0.14821996  0.42729408  1  -0.462353  0.133906  1.147712  0.177  -0.623334  0.155567  -0.485179  0.094696  1.446894  0.123  -0.529195  0.070305  1.423985  0.093  -0.233961  -0.451176  0.115918  1.462294  0.148
Cl  Cl97  1  0.33958798  0.35178165  0.57270968  1  -0.46241  0.133905  1.147758  0.177  -0.623571  0.155586  -0.485215  0.094697  1.446935  0.123  -0.529229  0.070307  1.424022  0.093  -0.233975  -0.451213  0.115919  1.46234  0.148
Cl  Cl98  1  0.66045047  0.85178337  0.57271363  1  -0.462469  0.133824  1.147633  0.177  -0.623659  0.155459  -0.485253  0.094607  1.446833  0.123  -0.529248  0.070249  1.423927  0.093  -0.233975  -0.451255  0.115803  1.46225  0.148
Cl  Cl99  1  0.66043987  0.64821579  0.42728558  1  -0.462521  0.133823  1.147681  0.177  -0.623362  0.155448  -0.485291  0.094609  1.44688  0.123  -0.529281  0.07025  1.423961  0.093  -0.233996  -0.451293  0.115806  1.462294  0.148
