# generated using pymatgen
data_PH12AuC15Cl
_symmetry_space_group_name_H-M   'P 1'
_cell_length_a   10.95193403
_cell_length_b   10.95196963
_cell_length_c   11.68534262
_cell_angle_alpha   79.32258724
_cell_angle_beta   79.32294678
_cell_angle_gamma   74.80280859
_symmetry_Int_Tables_number   1
_chemical_formula_structural   PH12AuC15Cl
_chemical_formula_sum   'P4 H48 Au4 C60 Cl4'
_cell_volume   1315.28493704
_cell_formula_units_Z   4
loop_
 _symmetry_equiv_pos_site_id
 _symmetry_equiv_pos_as_xyz
  1  'x, y, z'
loop_
 _atom_site_type_symbol
 _atom_site_label
 _atom_site_symmetry_multiplicity
 _atom_site_fract_x
 _atom_site_fract_y
 _atom_site_fract_z
 _atom_site_occupancy
 _atom_site_hle17_bader_spin_density
 _atom_site_hle17_ddec_charge
 _atom_site_hle17_ddec_spin_density
 _atom_site_hle17_ddec_sum_bond_order
 _atom_site_hle17_magmom
 _atom_site_hse06_10hf_bader_spin_density
 _atom_site_hse06_10hf_ddec_charge
 _atom_site_hse06_10hf_ddec_spin_density
 _atom_site_hse06_10hf_ddec_sum_bond_order
 _atom_site_hse06_10hf_magmom
 _atom_site_hse06_bader_spin_density
 _atom_site_hse06_ddec_charge
 _atom_site_hse06_ddec_spin_density
 _atom_site_hse06_ddec_sum_bond_order
 _atom_site_hse06_magmom
 _atom_site_pbe_bader_spin_density
 _atom_site_pbe_cm5_charge
 _atom_site_pbe_ddec_charge
 _atom_site_pbe_ddec_spin_density
 _atom_site_pbe_ddec_sum_bond_order
 _atom_site_pbe_magmom
P  P0  1  0.30557706  0.03102401  0.24052318  1  0  0.428331  0  4.02137  0  0  0.377046  0  4.473811  0  0  0.389427  0  4.470512  0  0  0.000875  0.367783  0  4.476878  0
P  P1  1  0.96897563  0.69442838  0.25948107  1  0  0.428405  0  4.021154  0  0  0.377095  0  4.473745  0  0  0.389457  0  4.470448  0  0  0.000938  0.367839  0  4.476804  0
P  P2  1  0.69442916  0.96897594  0.75947575  1  0  0.428379  0  4.02135  0  0  0.37705  0  4.473906  0  0  0.389419  0  4.470601  0  0  0.000895  0.367793  0  4.47697  0
P  P3  1  0.03101893  0.30556979  0.74052201  1  0  0.428299  0  4.021303  0  0  0.376955  0  4.473867  0  0  0.389328  0  4.470577  0  0  0.000885  0.367698  0  4.476926  0
H  H4  1  0.53470591  0.84208678  0.18017399  1  0  0.079296  0  0.983874  0  0  0.086582  0  1.058203  0  0  0.088833  0  1.05714  0  0  0.091686  0.084838  0  1.059207  0
H  H5  1  0.15791736  0.46529472  0.31982674  1  0  0.079279  0  0.983813  0  0  0.086551  0  1.058161  0  0  0.088804  0  1.057095  0  0  0.09168  0.084809  0  1.059162  0
H  H6  1  0.46529573  0.15791705  0.81982764  1  0  0.079282  0  0.983854  0  0  0.086553  0  1.058213  0  0  0.088804  0  1.057149  0  0  0.091656  0.084807  0  1.05922  0
H  H7  1  0.84208198  0.53470236  0.68016369  1  0  0.079239  0  0.98398  0  0  0.086516  0  1.058332  0  0  0.088765  0  1.057268  0  0  0.091658  0.084773  0  1.059335  0
H  H8  1  0.90200334  0.36693424  0.27083450  1  0  0.094384  0  0.95773  0  0  0.103092  0  1.020087  0  0  0.105353  0  1.020825  0  0  0.097436  0.101519  0  1.019585  0
H  H9  1  0.63306717  0.09800103  0.22914993  1  0  0.094413  0  0.957511  0  0  0.103083  0  1.019934  0  0  0.105342  0  1.020675  0  0  0.097452  0.101542  0  1.01937  0
H  H10  1  0.09800022  0.63306470  0.72915312  1  0  0.094371  0  0.95756  0  0  0.103054  0  1.019966  0  0  0.105316  0  1.020703  0  0  0.097427  0.101502  0  1.019432  0
H  H11  1  0.36693533  0.90199896  0.77084967  1  0  0.094419  0  0.957547  0  0  0.103053  0  1.020014  0  0  0.105313  0  1.020755  0  0  0.097439  0.101513  0  1.019451  0
H  H12  1  0.30662908  0.18043247  0.99977717  1  0  0.086355  0  0.987751  0  0  0.096103  0  1.053949  0  0  0.09743  0  1.055647  0  0  0.098226  0.094922  0  1.05312  0
H  H13  1  0.81957196  0.69337535  0.50021744  1  0  0.086371  0  0.987717  0  0  0.096107  0  1.053925  0  0  0.097435  0  1.055622  0  0  0.098217  0.094929  0  1.053094  0
H  H14  1  0.69336947  0.81956851  0.00022296  1  0  0.086355  0  0.987818  0  0  0.096088  0  1.054031  0  0  0.097418  0  1.055725  0  0  0.098219  0.094903  0  1.053207  0
H  H15  1  0.18042280  0.30662560  0.49977398  1  0  0.086325  0  0.98785  0  0  0.096071  0  1.054049  0  0  0.097397  0  1.05575  0  0  0.09822  0.094902  0  1.053209  0
H  H16  1  0.37261149  0.02470948  0.47326755  1  0  0.080205  0  1.007219  0  0  0.088251  0  1.078453  0  0  0.089834  0  1.079392  0  0  0.090124  0.087222  0  1.077618  0
H  H17  1  0.97530536  0.62738451  0.02674702  1  0  0.080282  0  1.007282  0  0  0.088228  0  1.078574  0  0  0.089819  0  1.079503  0  0  0.090179  0.087183  0  1.077789  0
H  H18  1  0.62737704  0.97530308  0.52673744  1  0  0.080287  0  1.007228  0  0  0.088261  0  1.078494  0  0  0.089842  0  1.079437  0  0  0.090132  0.087216  0  1.077709  0
H  H19  1  0.02468657  0.37262136  0.97326027  1  0  0.080274  0  1.007246  0  0  0.08824  0  1.078505  0  0  0.089836  0  1.079424  0  0  0.090168  0.087195  0  1.077719  0
H  H20  1  0.35993144  0.28238538  0.14509114  1  0  0.092756  0  0.96225  0  0  0.104556  0  1.024729  0  0  0.106572  0  1.024827  0  0  0.100998  0.103078  0  1.024879  0
H  H21  1  0.71760592  0.64008182  0.35490402  1  0  0.092756  0  0.962323  0  0  0.104609  0  1.024733  0  0  0.106625  0  1.024823  0  0  0.101028  0.10313  0  1.024885  0
H  H22  1  0.64008139  0.71760968  0.85489978  1  0  0.092777  0  0.962193  0  0  0.104632  0  1.024607  0  0  0.106648  0  1.024707  0  0  0.101031  0.103153  0  1.024759  0
H  H23  1  0.28238620  0.35992306  0.64510000  1  0  0.092811  0  0.962145  0  0  0.104666  0  1.024559  0  0  0.106683  0  1.024656  0  0  0.10104  0.103187  0  1.024713  0
H  H24  1  0.15186132  0.98741333  0.08175383  1  0  0.085132  0  0.969126  0  0  0.092871  0  1.040435  0  0  0.095938  0  1.038014  0  0  0.091422  0.090632  0  1.042253  0
H  H25  1  0.01258275  0.84814845  0.41824501  1  0  0.085144  0  0.969157  0  0  0.092892  0  1.040445  0  0  0.095962  0  1.038015  0  0  0.091426  0.090647  0  1.042277  0
H  H26  1  0.84814500  0.01258180  0.91823826  1  0  0.085115  0  0.969239  0  0  0.092835  0  1.040561  0  0  0.095889  0  1.038171  0  0  0.091395  0.090599  0  1.042373  0
H  H27  1  0.98741541  0.15185449  0.58176083  1  0  0.085176  0  0.969183  0  0  0.092883  0  1.04051  0  0  0.095945  0  1.0381  0  0  0.091417  0.090647  0  1.042321  0
H  H28  1  0.80970719  0.28674679  0.12711923  1  0  0.087279  0  0.975934  0  0  0.09377  0  1.042505  0  0  0.096355  0  1.041673  0  0  0.092369  0.092057  0  1.042842  0
H  H29  1  0.71324958  0.19029917  0.37286998  1  0  0.087199  0  0.975905  0  0  0.093699  0  1.042474  0  0  0.096284  0  1.041642  0  0  0.092345  0.091985  0  1.042815  0
H  H30  1  0.19029514  0.71324553  0.87287665  1  0  0.087353  0  0.975803  0  0  0.093894  0  1.042333  0  0  0.09648  0  1.041499  0  0  0.092388  0.092179  0  1.042674  0
H  H31  1  0.28675086  0.80970182  0.62713409  1  0  0.087307  0  0.975939  0  0  0.093754  0  1.042529  0  0  0.09634  0  1.041696  0  0  0.092372  0.092041  0  1.042869  0
H  H32  1  0.48110905  0.38200568  0.43850078  1  0  0.091891  0  0.972445  0  0  0.096822  0  1.041421  0  0  0.100109  0  1.039447  0  0  0.091692  0.094189  0  1.043505  0
H  H33  1  0.61800558  0.51890092  0.06148886  1  0  0.091943  0  0.972454  0  0  0.096819  0  1.041456  0  0  0.100101  0  1.039491  0  0  0.091729  0.094194  0  1.043539  0
H  H34  1  0.51889282  0.61800095  0.56149260  1  0  0.09194  0  0.97242  0  0  0.096838  0  1.04142  0  0  0.100116  0  1.039471  0  0  0.091704  0.094205  0  1.043499  0
H  H35  1  0.38199245  0.48109439  0.93851839  1  0  0.092018  0  0.972327  0  0  0.096863  0  1.041349  0  0  0.100144  0  1.039393  0  0  0.09174  0.094236  0  1.043439  0
H  H36  1  0.11929359  0.25808928  0.31766246  1  0  0.081583  0  0.997524  0  0  0.091855  0  1.062484  0  0  0.093477  0  1.063619  0  0  0.094148  0.090732  0  1.061697  0
H  H37  1  0.74191679  0.88070662  0.18233426  1  0  0.081541  0  0.997581  0  0  0.09182  0  1.062541  0  0  0.093444  0  1.063672  0  0  0.094145  0.090695  0  1.061756  0
H  H38  1  0.88070727  0.74191354  0.68233007  1  0  0.081475  0  0.997632  0  0  0.09177  0  1.062584  0  0  0.093393  0  1.063717  0  0  0.094135  0.090646  0  1.061795  0
H  H39  1  0.25808475  0.11928960  0.81767219  1  0  0.081421  0  0.997701  0  0  0.091714  0  1.062656  0  0  0.093338  0  1.063787  0  0  0.094108  0.09059  0  1.061869  0
H  H40  1  0.45234754  0.17607797  0.55796744  1  0  0.080015  0  0.967899  0  0  0.087191  0  1.040509  0  0  0.090172  0  1.038602  0  0  0.089655  0.085139  0  1.04176  0
H  H41  1  0.82394501  0.54764979  0.94203499  1  0  0.079974  0  0.967875  0  0  0.087177  0  1.040474  0  0  0.090151  0  1.038577  0  0  0.089668  0.08516  0  1.041695  0
H  H42  1  0.54764519  0.82393643  0.44203218  1  0  0.079991  0  0.967956  0  0  0.087191  0  1.040556  0  0  0.090164  0  1.038659  0  0  0.089649  0.085168  0  1.041783  0
H  H43  1  0.17605208  0.45234552  0.05797157  1  0  0.080097  0  0.967776  0  0  0.087262  0  1.040414  0  0  0.090236  0  1.038515  0  0  0.089715  0.085247  0  1.041635  0
H  H44  1  0.43148770  0.43586200  0.23196823  1  0  0.095337  0  0.952504  0  0  0.104001  0  1.016158  0  0  0.106779  0  1.015194  0  0  0.100008  0.101949  0  1.017074  0
H  H45  1  0.56413775  0.56852599  0.26801565  1  0  0.09524  0  0.95245  0  0  0.103931  0  1.016088  0  0  0.106709  0  1.015126  0  0  0.099977  0.101919  0  1.016964  0
H  H46  1  0.56852424  0.56413687  0.76801960  1  0  0.095323  0  0.952446  0  0  0.103996  0  1.016098  0  0  0.106775  0  1.015133  0  0  0.100008  0.101981  0  1.016978  0
H  H47  1  0.43586350  0.43146737  0.73199051  1  0  0.09527  0  0.952487  0  0  0.103963  0  1.016128  0  0  0.106742  0  1.015165  0  0  0.09997  0.101937  0  1.017019  0
H  H48  1  0.93348003  0.09831913  0.03430593  1  0  0.079632  0  0.978966  0  0  0.091659  0  1.042908  0  0  0.093974  0  1.041715  0  0  0.090078  0.090007  0  1.043847  0
H  H49  1  0.90167175  0.06652758  0.46569447  1  0  0.079625  0  0.979065  0  0  0.091656  0  1.04302  0  0  0.09397  0  1.04183  0  0  0.0901  0.090003  0  1.043953  0
H  H50  1  0.06652252  0.90167223  0.96569009  1  0  0.079616  0  0.97909  0  0  0.091678  0  1.043008  0  0  0.093991  0  1.04182  0  0  0.090128  0.090028  0  1.043947  0
H  H51  1  0.09832125  0.93346974  0.53432103  1  0  0.079601  0  0.979123  0  0  0.091665  0  1.043049  0  0  0.093978  0  1.041862  0  0  0.090097  0.090016  0  1.043985  0
Au  Au52  1  0.30286257  0.83941643  0.34804240  1  0  0.062053  0  2.200155  0  0  -0.004904  0  2.71068  0  0  0.010982  0  2.674764  0  0  0.277913  -0.015587  0  2.735286  0
Au  Au53  1  0.16058307  0.69714238  0.15196022  1  0  0.062061  0  2.199982  0  0  -0.004879  0  2.710492  0  0  0.011008  0  2.674582  0  0  0.277919  -0.015562  0  2.735099  0
Au  Au54  1  0.69713716  0.16058361  0.65196197  1  0  0.062077  0  2.200254  0  0  -0.004855  0  2.710762  0  0  0.011033  0  2.674849  0  0  0.277938  -0.015534  0  2.735361  0
Au  Au55  1  0.83941240  0.30285577  0.84804013  1  0  0.062085  0  2.200219  0  0  -0.004872  0  2.710769  0  0  0.011018  0  2.674854  0  0  0.277923  -0.015551  0  2.735377  0
C  C56  1  0.52062542  0.91223703  0.10147131  1  0  -0.052842  0  3.739039  0  0  -0.072469  0  3.981312  0  0  -0.073715  0  4.002723  0  0  -0.08122  -0.071639  0  3.966955  0
C  C57  1  0.08776306  0.47937278  0.39853204  1  0  -0.052811  0  3.739045  0  0  -0.07242  0  3.981294  0  0  -0.073667  0  4.002702  0  0  -0.081194  -0.07159  0  3.966938  0
C  C58  1  0.47938226  0.08776485  0.89853129  1  0  -0.052815  0  3.739046  0  0  -0.072442  0  3.981279  0  0  -0.073688  0  4.002691  0  0  -0.081163  -0.071611  0  3.966922  0
C  C59  1  0.91223235  0.52062154  0.60146902  1  0  -0.052747  0  3.738964  0  0  -0.072378  0  3.981204  0  0  -0.07362  0  4.002609  0  0  -0.081205  -0.071547  0  3.966846  0
C  C60  1  0.95722776  0.28537056  0.22768904  1  0  -0.058699  0  3.726325  0  0  -0.069022  0  3.968099  0  0  -0.071986  0  3.989873  0  0  -0.089342  -0.067057  0  3.953336  0
C  C61  1  0.71462828  0.04277174  0.27230402  1  0  -0.058626  0  3.726192  0  0  -0.068921  0  3.967976  0  0  -0.071885  0  3.989752  0  0  -0.089329  -0.066961  0  3.953221  0
C  C62  1  0.04277001  0.71462941  0.77230286  1  0  -0.058542  0  3.726125  0  0  -0.068852  0  3.967922  0  0  -0.071817  0  3.989698  0  0  -0.089268  -0.066896  0  3.953155  0
C  C63  1  0.28537398  0.95722544  0.72770298  1  0  -0.058576  0  3.726047  0  0  -0.068852  0  3.967813  0  0  -0.071818  0  3.98959  0  0  -0.089247  -0.066895  0  3.953058  0
C  C64  1  0.41183896  0.01374449  0.10240675  1  0  -0.093311  0  3.742108  0  0  -0.055876  0  3.975168  0  0  -0.061052  0  4.000325  0  0  -0.020224  -0.052695  0  3.958219  0
C  C65  1  0.98626153  0.58816316  0.39759564  1  0  -0.093335  0  3.742198  0  0  -0.05585  0  3.975123  0  0  -0.061024  0  4.000286  0  0  -0.020253  -0.052669  0  3.958171  0
C  C66  1  0.58816476  0.98625836  0.89759383  1  0  -0.093371  0  3.742146  0  0  -0.055871  0  3.975105  0  0  -0.061047  0  4.000263  0  0  -0.020241  -0.05269  0  3.958154  0
C  C67  1  0.01373356  0.41182828  0.60240172  1  0  -0.093391  0  3.742014  0  0  -0.0559  0  3.974974  0  0  -0.061077  0  4.000136  0  0  -0.020234  -0.052722  0  3.958033  0
C  C68  1  0.39101827  0.10126571  0.00019390  1  0  -0.05465  0  3.714436  0  0  -0.074608  0  3.955624  0  0  -0.075593  0  3.976901  0  0  -0.080545  -0.073802  0  3.941389  0
C  C69  1  0.89873415  0.60898069  0.49980127  1  0  -0.054754  0  3.714373  0  0  -0.074704  0  3.955541  0  0  -0.075688  0  3.976805  0  0  -0.080522  -0.073899  0  3.9413  0
C  C70  1  0.60898352  0.89873334  0.99980771  1  0  -0.054676  0  3.714466  0  0  -0.074638  0  3.95563  0  0  -0.075625  0  3.976901  0  0  -0.080557  -0.073827  0  3.941396  0
C  C71  1  0.10126587  0.39101355  0.50019298  1  0  -0.054641  0  3.714411  0  0  -0.074617  0  3.955594  0  0  -0.075606  0  3.976871  0  0  -0.080559  -0.073819  0  3.941353  0
C  C72  1  0.36049893  0.14331013  0.30422661  1  0  -0.121717  0  3.766186  0  0  -0.080871  0  3.999794  0  0  -0.087752  0  4.02575  0  0  -0.028778  -0.076188  0  3.982358  0
C  C73  1  0.85669094  0.63950569  0.19577650  1  0  -0.121478  0  3.765963  0  0  -0.080701  0  3.999611  0  0  -0.087544  0  4.025522  0  0  -0.028728  -0.076024  0  3.982177  0
C  C74  1  0.63949989  0.85669369  0.69577126  1  0  -0.121579  0  3.766016  0  0  -0.080795  0  3.999674  0  0  -0.087641  0  4.025577  0  0  -0.028745  -0.07612  0  3.982245  0
C  C75  1  0.14329988  0.36050494  0.80422671  1  0  -0.121535  0  3.766064  0  0  -0.080716  0  3.999664  0  0  -0.087594  0  4.025622  0  0  -0.028708  -0.076036  0  3.982226  0
C  C76  1  0.38667469  0.11424128  0.42035041  1  0  -0.072533  0  3.750994  0  0  -0.091519  0  3.987339  0  0  -0.091983  0  4.01097  0  0  -0.086916  -0.091056  0  3.971352  0
C  C77  1  0.88577401  0.61333135  0.07965004  1  0  -0.072684  0  3.751068  0  0  -0.091556  0  3.987485  0  0  -0.092038  0  4.011094  0  0  -0.087007  -0.091095  0  3.971497  0
C  C78  1  0.61332005  0.88576833  0.57964886  1  0  -0.07267  0  3.750994  0  0  -0.091558  0  3.987377  0  0  -0.092031  0  4.011002  0  0  -0.086969  -0.091099  0  3.971394  0
C  C79  1  0.11422277  0.38667349  0.92035314  1  0  -0.072705  0  3.750977  0  0  -0.091599  0  3.98739  0  0  -0.092072  0  4.010995  0  0  -0.087044  -0.091137  0  3.971403  0
C  C80  1  0.37817357  0.25928037  0.23618641  1  0  -0.06194  0  3.722985  0  0  -0.083229  0  3.964737  0  0  -0.082779  0  3.985375  0  0  -0.080303  -0.08334  0  3.950373  0
C  C81  1  0.74071571  0.62184048  0.26380787  1  0  -0.062093  0  3.723084  0  0  -0.083406  0  3.964853  0  0  -0.082967  0  3.985492  0  0  -0.080386  -0.08351  0  3.950496  0
C  C82  1  0.62183746  0.74071852  0.76380329  1  0  -0.06206  0  3.722936  0  0  -0.08336  0  3.964673  0  0  -0.082923  0  3.985308  0  0  -0.08041  -0.083469  0  3.950324  0
C  C83  1  0.25927608  0.37815774  0.73619912  1  0  -0.062074  0  3.722902  0  0  -0.08338  0  3.964636  0  0  -0.082931  0  3.985272  0  0  -0.080347  -0.083488  0  3.95028  0
C  C84  1  0.15018150  0.11742884  0.20126669  1  0  -0.114629  0  3.779247  0  0  -0.076004  0  4.011456  0  0  -0.082056  0  4.037777  0  0  -0.029169  -0.071662  0  3.993448  0
C  C85  1  0.88257092  0.84982203  0.29873027  1  0  -0.114623  0  3.779072  0  0  -0.076034  0  4.011302  0  0  -0.082088  0  4.037627  0  0  -0.029161  -0.07169  0  3.993296  0
C  C86  1  0.84982022  0.88257015  0.79872553  1  0  -0.114716  0  3.779164  0  0  -0.076078  0  4.011306  0  0  -0.082126  0  4.037622  0  0  -0.029173  -0.071735  0  3.993302  0
C  C87  1  0.11742994  0.15017703  0.70127151  1  0  -0.114528  0  3.778976  0  0  -0.075899  0  4.011166  0  0  -0.081949  0  4.037483  0  0  -0.029111  -0.071557  0  3.993163  0
C  C88  1  0.09728770  0.07147117  0.12190416  1  0  -0.074884  0  3.742811  0  0  -0.093  0  3.986785  0  0  -0.094599  0  4.009993  0  0  -0.088672  -0.091689  0  3.970895  0
C  C89  1  0.92852282  0.90271422  0.37810011  1  0  -0.074897  0  3.742807  0  0  -0.09298  0  3.986782  0  0  -0.094576  0  4.009987  0  0  -0.088707  -0.091672  0  3.970889  0
C  C90  1  0.90271262  0.92852596  0.87809294  1  0  -0.0747  0  3.742889  0  0  -0.092776  0  3.986851  0  0  -0.094374  0  4.010044  0  0  -0.08861  -0.091467  0  3.970963  0
C  C91  1  0.07147684  0.09728201  0.62190497  1  0  -0.074912  0  3.743028  0  0  -0.092973  0  3.986998  0  0  -0.094568  0  4.010196  0  0  -0.088673  -0.091664  0  3.971115  0
C  C92  1  0.90537765  0.24025401  0.14803476  1  0  -0.058108  0  3.759462  0  0  -0.06668  0  3.99671  0  0  -0.067342  0  4.017167  0  0  -0.086231  -0.066221  0  3.982845  0
C  C93  1  0.75974292  0.09462519  0.35195716  1  0  -0.057996  0  3.759244  0  0  -0.066541  0  3.996447  0  0  -0.067201  0  4.016904  0  0  -0.086166  -0.066087  0  3.98259  0
C  C94  1  0.09462580  0.75973733  0.85195853  1  0  -0.058204  0  3.759219  0  0  -0.066783  0  3.996418  0  0  -0.067444  0  4.016874  0  0  -0.086246  -0.066325  0  3.98256  0
C  C95  1  0.24026073  0.90537386  0.64804497  1  0  -0.058206  0  3.759376  0  0  -0.066666  0  3.996547  0  0  -0.067325  0  4.017003  0  0  -0.086273  -0.066213  0  3.982695  0
C  C96  1  0.44675827  0.31565280  0.40075078  1  0  -0.044362  0  3.727968  0  0  -0.058751  0  3.971427  0  0  -0.058538  0  3.991445  0  0  -0.081757  -0.058916  0  3.958472  0
C  C97  1  0.68436050  0.55324843  0.09923919  1  0  -0.044372  0  3.727998  0  0  -0.058662  0  3.971423  0  0  -0.058448  0  3.991438  0  0  -0.081745  -0.058841  0  3.958494  0
C  C98  1  0.55324525  0.68435477  0.59924213  1  0  -0.044279  0  3.728013  0  0  -0.058601  0  3.971402  0  0  -0.058392  0  3.991422  0  0  -0.08171  -0.058767  0  3.95846  0
C  C99  1  0.31563681  0.44674593  0.90076836  1  0  -0.044319  0  3.727867  0  0  -0.058544  0  3.971254  0  0  -0.058332  0  3.991264  0  0  -0.081671  -0.05872  0  3.958321  0
C  C100  1  0.07940567  0.22384746  0.25451243  1  0  -0.072381  0  3.740981  0  0  -0.089798  0  3.97888  0  0  -0.090891  0  4.001561  0  0  -0.087664  -0.088859  0  3.963249  0
C  C101  1  0.77614980  0.92059967  0.24548580  1  0  -0.072508  0  3.741131  0  0  -0.089924  0  3.979054  0  0  -0.091017  0  4.001735  0  0  -0.087729  -0.088988  0  3.963432  0
C  C102  1  0.92059655  0.77615344  0.74548021  1  0  -0.072384  0  3.741031  0  0  -0.089827  0  3.978975  0  0  -0.090922  0  4.001658  0  0  -0.087726  -0.088888  0  3.963348  0
C  C103  1  0.22385024  0.07940326  0.75452228  1  0  -0.072364  0  3.740991  0  0  -0.089806  0  3.978915  0  0  -0.090898  0  4.001594  0  0  -0.08771  -0.088871  0  3.963294  0
C  C104  1  0.43034353  0.20016139  0.46792062  1  0  -0.077783  0  3.759126  0  0  -0.085753  0  4.003998  0  0  -0.089704  0  4.025543  0  0  -0.092561  -0.083135  0  3.989483  0
C  C105  1  0.79985585  0.56965830  0.03207668  1  0  -0.077739  0  3.75923  0  0  -0.085757  0  4.004074  0  0  -0.089701  0  4.025626  0  0  -0.092614  -0.083174  0  3.989555  0
C  C106  1  0.56965512  0.79984720  0.53207470  1  0  -0.077786  0  3.759289  0  0  -0.085799  0  4.00414  0  0  -0.089744  0  4.025694  0  0  -0.092582  -0.083213  0  3.989624  0
C  C107  1  0.20013902  0.43034276  0.96792924  1  0  -0.077932  0  3.759233  0  0  -0.085939  0  4.004077  0  0  -0.089889  0  4.025646  0  0  -0.092731  -0.08335  0  3.989537  0
C  C108  1  0.42015073  0.34528163  0.28481086  1  0  -0.065499  0  3.727334  0  0  -0.074752  0  3.971723  0  0  -0.078164  0  3.992872  0  0  -0.085551  -0.07219  0  3.957199  0
C  C109  1  0.65472456  0.57986548  0.21517507  1  0  -0.065392  0  3.72728  0  0  -0.07465  0  3.971615  0  0  -0.078062  0  3.992771  0  0  -0.085465  -0.07212  0  3.957071  0
C  C110  1  0.57985735  0.65472207  0.71517935  1  0  -0.065545  0  3.727295  0  0  -0.074823  0  3.97168  0  0  -0.078236  0  3.992835  0  0  -0.085531  -0.072292  0  3.957139  0
C  C111  1  0.34527198  0.42014031  0.78482628  1  0  -0.065464  0  3.727153  0  0  -0.074758  0  3.971475  0  0  -0.078171  0  3.992625  0  0  -0.085505  -0.072217  0  3.95694  0
C  C112  1  0.97544365  0.13339687  0.09553532  1  0  -0.067426  0  3.766146  0  0  -0.077546  0  4.006907  0  0  -0.08099  0  4.030387  0  0  -0.092266  -0.075363  0  3.991038  0
C  C113  1  0.86659910  0.02455972  0.40446238  1  0  -0.067487  0  3.766174  0  0  -0.077653  0  4.006953  0  0  -0.081101  0  4.03044  0  0  -0.092308  -0.075459  0  3.991073  0
C  C114  1  0.02455965  0.86659924  0.90445713  1  0  -0.067532  0  3.766208  0  0  -0.077725  0  4.007008  0  0  -0.081169  0  4.030491  0  0  -0.09233  -0.075542  0  3.991138  0
C  C115  1  0.13340159  0.97544034  0.59554524  1  0  -0.067467  0  3.76638  0  0  -0.077693  0  4.007166  0  0  -0.081138  0  4.030651  0  0  -0.09232  -0.075511  0  3.991299  0
Cl  Cl116  1  0.29537051  0.64312434  0.45742427  1  0  -0.433457  0  1.113899  0  0  -0.359011  0  1.409217  0  0  -0.378078  0  1.391856  0  0  -0.295437  -0.344667  0  1.421017  0
Cl  Cl117  1  0.35688241  0.70462661  0.04257564  1  0  -0.433487  0  1.113744  0  0  -0.359051  0  1.40905  0  0  -0.378117  0  1.391687  0  0  -0.295455  -0.34471  0  1.420851  0
Cl  Cl118  1  0.70462212  0.35688246  0.54258102  1  0  -0.433486  0  1.113864  0  0  -0.359044  0  1.40917  0  0  -0.378113  0  1.391809  0  0  -0.295451  -0.344702  0  1.42097  0
Cl  Cl119  1  0.64312188  0.29536955  0.95742433  1  0  -0.433463  0  1.113903  0  0  -0.359005  0  1.409196  0  0  -0.378071  0  1.391831  0  0  -0.295435  -0.344666  0  1.421  0
