# generated using pymatgen
data_FeHC3N3Cl
_symmetry_space_group_name_H-M   'P 1'
_cell_length_a   8.10227171
_cell_length_b   14.64580226
_cell_length_c   14.76884217
_cell_angle_alpha   116.90734861
_cell_angle_beta   100.66942379
_cell_angle_gamma   100.63306360
_symmetry_Int_Tables_number   1
_chemical_formula_structural   FeHC3N3Cl
_chemical_formula_sum   'Fe6 H6 C18 N18 Cl6'
_cell_volume   1462.03185359
_cell_formula_units_Z   6
loop_
 _symmetry_equiv_pos_site_id
 _symmetry_equiv_pos_as_xyz
  1  'x, y, z'
loop_
 _atom_site_type_symbol
 _atom_site_label
 _atom_site_symmetry_multiplicity
 _atom_site_fract_x
 _atom_site_fract_y
 _atom_site_fract_z
 _atom_site_occupancy
 _atom_site_hle17_ddec_charge
 _atom_site_hle17_ddec_spin_density
 _atom_site_hle17_ddec_sum_bond_order
 _atom_site_hle17_magmom
 _atom_site_hse06_10hf_ddec_charge
 _atom_site_hse06_10hf_ddec_spin_density
 _atom_site_hse06_10hf_ddec_sum_bond_order
 _atom_site_hse06_10hf_magmom
 _atom_site_hse06_ddec_charge
 _atom_site_hse06_ddec_spin_density
 _atom_site_hse06_ddec_sum_bond_order
 _atom_site_hse06_magmom
 _atom_site_pbe_cm5_charge
 _atom_site_pbe_ddec_charge
 _atom_site_pbe_ddec_spin_density
 _atom_site_pbe_ddec_sum_bond_order
 _atom_site_pbe_magmom
Fe  Fe0  1  0.71239231  0.42629092  0.71361830  1  0.771993  -3.90263  2.311381  -3.565  0.645283  -3.807726  2.811602  -3.531  0.712766  -3.854111  2.742741  -3.615  0.617741  0.583626  -3.709116  2.867018  -3.405
Fe  Fe1  1  0.28353706  0.28957251  0.58332880  1  0.766786  3.834689  2.313417  3.562  0.647024  3.818192  2.811095  3.548  0.719378  3.860864  2.728526  3.627  0.63208  0.575234  3.732444  2.876947  3.441
Fe  Fe2  1  0.00696347  0.29065288  0.70651387  1  0.777907  3.849913  2.30064  3.571  0.649025  3.810436  2.791433  3.543  0.712767  3.84571  2.7237  3.614  0.647379  0.597342  3.774692  2.8612  3.477
Fe  Fe3  1  0.28927414  0.58006399  0.28970089  1  0.777082  3.856429  2.300042  3.577  0.653477  3.835658  2.791574  3.56  0.717934  3.861803  2.717732  3.624  0.643409  0.603782  3.811578  2.851238  3.508
Fe  Fe4  1  0.71041471  0.70935714  0.41750185  1  0.77277  3.845421  2.306436  3.573  0.648005  3.821368  2.797431  3.553  0.714726  3.852899  2.723651  3.621  0.644812  0.599725  3.803083  2.861975  3.505
Fe  Fe5  1  0.99961836  0.70964868  0.29095708  1  0.774497  3.855065  2.318584  3.58  0.65561  3.845639  2.809086  3.57  0.716762  3.865321  2.735329  3.628  0.641932  0.593182  3.795508  2.874912  3.499
H  H6  1  0.80585187  0.58154395  0.00085528  1  0.135074  0.000838  0.947625  0.001  0.144185  0.000931  1.007944  0.001  0.149316  0.000701  1.002984  0.0  0.105205  0.141478  0.001109  1.0103  0.001
H  H7  1  0.19317945  0.00153568  0.42073577  1  0.13605  0.00043  0.948667  0.0  0.145873  0.001056  1.007926  0.001  0.151005  0.000736  1.003122  0.0  0.105534  0.143356  0.001446  1.009636  0.001
H  H8  1  0.81028780  0.00152242  0.58310430  1  0.13595  0.000501  0.946814  0.0  0.145705  0.001085  1.005536  0.001  0.15048  0.000743  1.001346  0.0  0.105696  0.1428  0.001448  1.007996  0.001
H  H9  1  0.22440737  0.41644179  0.41471209  1  0.137676  -1.6e-05  0.941971  0.0  0.147355  0.000234  1.000728  0.0  0.152556  0.000114  0.99588  0.0  0.108334  0.144703  0.000399  1.003081  0.0
H  H10  1  0.77568831  0.58349293  0.58072311  1  0.137283  0.000669  0.944392  0.001  0.146595  0.000878  1.003868  0.0  0.15153  0.000653  0.999411  0.0  0.107944  0.143821  0.001038  1.006475  0.001
H  H11  1  0.19017292  0.41421871  0.00035311  1  0.136243  5.9e-05  0.941894  0.0  0.146248  0.000334  1.00015  0.0  0.151325  0.000181  0.99547  0.0  0.107564  0.14306  0.000465  1.003107  0.0
C  C12  1  0.53743424  0.47392819  0.90729912  1  0.148021  0.005552  3.794136  0.009  0.143037  0.00226  4.047867  0.004  0.144073  0.000801  4.069209  0.001  0.09886  0.142652  0.00489  4.033048  0.008
C  C13  1  0.46251689  0.09574406  0.52639065  1  0.14909  -0.000925  3.793349  -0.001  0.144727  0.001527  4.046061  0.003  0.146915  0.001264  4.067428  0.003  0.09791  0.141594  0.00161  4.031704  0.002
C  C14  1  0.63553953  0.09579479  0.57186761  1  0.149839  0.000734  3.79418  0.001  0.144409  0.001897  4.045975  0.003  0.146871  0.001751  4.06722  0.004  0.098098  0.142734  0.002231  4.032415  0.003
C  C15  1  0.06150588  0.42848472  0.52016798  1  0.155773  0.00276  3.786738  0.005  0.15036  0.004085  4.039562  0.007  0.153163  0.003497  4.061178  0.007  0.102709  0.148902  0.007107  4.024343  0.011
C  C16  1  0.93611927  0.47585479  0.56696610  1  0.147441  0.00465  3.793415  0.007  0.14351  0.002066  4.045248  0.002  0.14511  0.001094  4.068071  0.001  0.100528  0.142461  0.004361  4.029569  0.005
C  C17  1  0.36484298  0.42645604  0.90702220  1  0.155818  0.002792  3.789945  0.006  0.15005  0.004039  4.041823  0.009  0.153228  0.003897  4.062202  0.008  0.099976  0.148801  0.005186  4.026735  0.009
C  C18  1  0.45896032  0.52160786  0.09389349  1  0.152112  0.004363  3.789362  0.007  0.147982  0.004977  4.04015  0.008  0.150296  0.004651  4.061926  0.008  0.100971  0.146346  0.006301  4.023263  0.01
C  C19  1  0.54111268  0.90734886  0.47747644  1  0.148266  0.006236  3.793881  0.01  0.144322  0.006048  4.045225  0.01  0.146629  0.004504  4.067328  0.008  0.098917  0.142439  0.007472  4.029285  0.012
C  C20  1  0.36801681  0.90734639  0.43183623  1  0.151994  0.004336  3.790707  0.007  0.147285  0.005406  4.044105  0.008  0.149075  0.003868  4.066098  0.006  0.10033  0.144414  0.006736  4.02722  0.01
C  C21  1  0.93713114  0.57040231  0.47481371  1  0.153416  0.007791  3.788899  0.013  0.148166  0.00608  4.040993  0.01  0.149332  0.004119  4.063878  0.007  0.102093  0.147948  0.008614  4.024016  0.014
C  C22  1  0.06306898  0.52334772  0.42819733  1  0.152151  0.005703  3.789135  0.009  0.148773  0.006639  4.040089  0.011  0.150005  0.005199  4.062878  0.009  0.101062  0.14872  0.009838  4.022215  0.015
C  C23  1  0.63189446  0.56824943  0.09407878  1  0.147323  0.007206  3.794664  0.012  0.143995  0.004879  4.044597  0.008  0.145248  0.003188  4.066322  0.005  0.098455  0.14333  0.008135  4.027937  0.014
C  C24  1  0.67535278  0.54635026  0.00073790  1  -0.186054  -0.006596  3.677861  -0.009  -0.216345  -0.001162  3.931685  -0.002  -0.213752  0.00267  3.942507  0.003  -0.087614  -0.218496  -0.006712  3.923718  -0.009
C  C25  1  0.32432185  0.00163399  0.45456710  1  -0.189395  0.008387  3.67938  0.012  -0.220164  0.005099  3.93402  0.006  -0.2196  0.003509  3.946664  0.004  -0.089597  -0.217754  0.009887  3.922629  0.012
C  C26  1  0.67927634  0.00164530  0.54938559  1  -0.189595  0.005467  3.680896  0.007  -0.219655  0.004512  3.934848  0.005  -0.219145  0.002361  3.947293  0.003  -0.09018  -0.218132  0.00807  3.923848  0.01
C  C27  1  0.12815861  0.45087598  0.44923853  1  -0.190599  0.001648  3.675744  0.003  -0.221101  -0.000807  3.930044  -0.001  -0.2213  -0.000498  3.943421  -0.001  -0.089456  -0.221412  -0.001612  3.920247  -0.002
C  C28  1  0.87124610  0.54853733  0.54594278  1  -0.187614  -0.00213  3.6793  -0.004  -0.217761  0.002034  3.933609  0.002  -0.217277  0.00328  3.946678  0.004  -0.087838  -0.218514  -0.000607  3.924196  -0.001
C  C29  1  0.32090281  0.44879011  0.00019741  1  -0.192179  0.001205  3.681168  0.002  -0.222883  -0.001723  3.936275  -0.002  -0.221695  -0.001816  3.947431  -0.002  -0.089012  -0.22121  0.000524  3.92505  0.001
N  N30  1  0.53204969  0.43443632  0.80246944  1  -0.260036  -0.029456  3.170443  -0.05  -0.219677  -0.017683  3.465038  -0.025  -0.231075  -0.011571  3.471875  -0.014  -0.238221  -0.209249  -0.022304  3.458897  -0.032
N  N31  1  0.46811721  0.20182417  0.56739316  1  -0.264313  0.035865  3.149336  0.056  -0.222809  0.02953  3.445107  0.04  -0.237426  0.024585  3.446729  0.029  -0.236318  -0.207436  0.034927  3.437762  0.05
N  N32  1  0.73639346  0.20194598  0.63670940  1  -0.270041  0.034983  3.143961  0.052  -0.224097  0.029341  3.43253  0.036  -0.238135  0.02419  3.439674  0.026  -0.241958  -0.214627  0.03345  3.434396  0.045
N  N33  1  0.09514854  0.36316505  0.56006173  1  -0.266731  0.024437  3.172242  0.035  -0.22375  0.01909  3.469978  0.022  -0.239569  0.017219  3.471182  0.015  -0.241767  -0.208557  0.018913  3.462219  0.022
N  N34  1  0.90128908  0.43632317  0.63202517  1  -0.254959  -0.017811  3.175362  -0.029  -0.21519  -0.00948  3.468643  -0.01  -0.228922  -0.007827  3.478171  -0.007  -0.231005  -0.201833  -0.009792  3.45873  -0.01
N  N35  1  0.26492999  0.36107452  0.80162343  1  -0.278034  0.020689  3.164962  0.022  -0.228864  0.016818  3.45382  0.01  -0.243653  0.014743  3.458715  0.005  -0.255337  -0.216822  0.020543  3.461783  0.022
N  N36  1  0.46410695  0.56269118  0.19876194  1  -0.26547  0.026064  3.164611  0.04  -0.223574  0.022289  3.461256  0.029  -0.237266  0.020206  3.464866  0.023  -0.24283  -0.20949  0.027064  3.448231  0.037
N  N37  1  0.53584740  0.80140892  0.43622785  1  -0.263497  0.023661  3.161581  0.033  -0.221206  0.022038  3.456836  0.026  -0.235904  0.019997  3.463213  0.022  -0.242013  -0.207361  0.026891  3.447296  0.035
N  N38  1  0.26712020  0.80142531  0.36660103  1  -0.265124  0.026348  3.172656  0.042  -0.225871  0.022395  3.471522  0.03  -0.238617  0.021234  3.475192  0.027  -0.240742  -0.207482  0.028212  3.453766  0.039
N  N39  1  0.90190416  0.63564887  0.43484061  1  -0.2654  0.020656  3.163035  0.028  -0.222748  0.020233  3.458395  0.023  -0.235678  0.020178  3.463563  0.021  -0.244385  -0.210669  0.022351  3.450899  0.028
N  N40  1  0.09850535  0.56390163  0.36375235  1  -0.269856  0.022914  3.167309  0.034  -0.22921  0.019768  3.464858  0.023  -0.241118  0.019747  3.467911  0.022  -0.24768  -0.215327  0.024376  3.452193  0.032
N  N41  1  0.73268190  0.63374571  0.19902008  1  -0.263809  0.024154  3.175088  0.039  -0.223793  0.022214  3.472317  0.031  -0.236097  0.021836  3.475111  0.028  -0.241819  -0.207808  0.022927  3.45484  0.031
N  N42  1  0.36969354  0.36838655  0.74330780  1  -0.03928  0.035445  3.320353  0.068  -0.00431  0.029309  3.624521  0.053  -0.006083  0.027463  3.627448  0.047  -0.142669  -0.003687  0.023142  3.62153  0.043
N  N43  1  0.63167379  0.26112711  0.63151406  1  -0.031034  -0.036692  3.289797  -0.068  0.001045  -0.023162  3.593522  -0.041  -0.001175  -0.017049  3.603047  -0.029  -0.129943  0.003023  -0.030003  3.585037  -0.054
N  N44  1  0.99752699  0.37061681  0.62522215  1  -0.045643  0.029159  3.324362  0.05  -0.010023  0.023361  3.628706  0.036  -0.014842  0.020695  3.642433  0.031  -0.142119  -0.00646  0.025523  3.620442  0.041
N  N45  1  0.62815788  0.62803414  0.25760619  1  -0.045019  0.009194  3.32232  0.02  -0.012216  0.011065  3.632712  0.022  -0.01298  0.011227  3.637749  0.02  -0.144821  -0.00906  0.015343  3.617368  0.029
N  N46  1  0.37178092  0.74236159  0.37175429  1  -0.042165  0.022283  3.318161  0.044  -0.009036  0.020279  3.627425  0.038  -0.011215  0.015929  3.634637  0.029  -0.141011  -0.007284  0.025017  3.611479  0.045
N  N47  1  0.00012697  0.62923556  0.37004238  1  -0.036909  0.019014  3.316619  0.039  -0.00237  0.020131  3.623809  0.039  -0.005349  0.017997  3.630469  0.033  -0.142054  -0.002215  0.015462  3.613132  0.031
Cl  Cl48  1  0.50059259  0.42858891  0.58340456  1  -0.440248  -0.013556  1.155135  -0.015  -0.401289  -0.01171  1.458194  -0.011  -0.453077  -0.012486  1.438257  -0.011  -0.221249  -0.359275  -0.014532  1.477152  -0.018
Cl  Cl49  1  0.92971501  0.43132246  0.84559536  1  -0.448591  -0.020529  1.160096  -0.024  -0.417737  -0.022815  1.468002  -0.026  -0.461592  -0.017154  1.443163  -0.017  -0.221608  -0.364925  -0.020147  1.480402  -0.024
Cl  Cl50  1  0.07393476  0.14624314  0.57343220  1  -0.452978  0.085638  1.1968  0.135  -0.42406  0.089181  1.508392  0.125  -0.470648  0.067289  1.483698  0.091  -0.228463  -0.382391  0.109053  1.530175  0.159
Cl  Cl51  1  0.49985685  0.57327673  0.42342062  1  -0.463206  0.083813  1.123838  0.126  -0.427025  0.091459  1.418181  0.122  -0.470667  0.071022  1.394332  0.09  -0.241576  -0.402225  0.107557  1.44969  0.152
Cl  Cl52  1  0.07501062  0.57492704  0.14949916  1  -0.453119  0.085986  1.126323  0.128  -0.413693  0.094969  1.419793  0.126  -0.460172  0.073535  1.397338  0.093  -0.238762  -0.395376  0.109057  1.45686  0.154
Cl  Cl53  1  0.92464829  0.85154389  0.42352876  1  -0.449658  0.087199  1.14445  0.13  -0.411589  0.095436  1.442185  0.127  -0.45646  0.074041  1.41811  0.094  -0.235491  -0.390393  0.110841  1.479047  0.158
