# generated using pymatgen
data_CuH5C6BrNO
_symmetry_space_group_name_H-M   'P 1'
_cell_length_a   3.90870838
_cell_length_b   7.78498240
_cell_length_c   12.00324030
_cell_angle_alpha   101.91580782
_cell_angle_beta   93.16124664
_cell_angle_gamma   104.86275884
_symmetry_Int_Tables_number   1
_chemical_formula_structural   CuH5C6BrNO
_chemical_formula_sum   'Cu2 H10 C12 Br2 N2 O2'
_cell_volume   343.15779338
_cell_formula_units_Z   2
loop_
 _symmetry_equiv_pos_site_id
 _symmetry_equiv_pos_as_xyz
  1  'x, y, z'
loop_
 _atom_site_type_symbol
 _atom_site_label
 _atom_site_symmetry_multiplicity
 _atom_site_fract_x
 _atom_site_fract_y
 _atom_site_fract_z
 _atom_site_occupancy
 _atom_site_hle17_bader_spin_density
 _atom_site_hle17_ddec_charge
 _atom_site_hle17_ddec_spin_density
 _atom_site_hle17_ddec_sum_bond_order
 _atom_site_hle17_magmom
 _atom_site_hse06_10hf_bader_spin_density
 _atom_site_hse06_10hf_ddec_charge
 _atom_site_hse06_10hf_ddec_spin_density
 _atom_site_hse06_10hf_ddec_sum_bond_order
 _atom_site_hse06_10hf_magmom
 _atom_site_hse06_bader_spin_density
 _atom_site_hse06_ddec_charge
 _atom_site_hse06_ddec_spin_density
 _atom_site_hse06_ddec_sum_bond_order
 _atom_site_hse06_magmom
 _atom_site_pbe_bader_spin_density
 _atom_site_pbe_cm5_charge
 _atom_site_pbe_ddec_charge
 _atom_site_pbe_ddec_spin_density
 _atom_site_pbe_ddec_sum_bond_order
 _atom_site_pbe_magmom
Cu  Cu0  1  0.70565278  0.59522647  0.94204254  1  0  0.325519  0  2.052256  0  0  0.236669  0  2.533911  0  0  0.243811  0  2.482018  0  0  0.30283  0.235669  0  2.566697  0
Cu  Cu1  1  0.29436318  0.40476869  0.05795515  1  0  0.325543  0  2.051795  0  0  0.236644  0  2.533445  0  0  0.243815  0  2.481537  0  0  0.302786  0.235649  0  2.566158  0
H  H2  1  0.25966477  0.38592587  0.78577573  1  0  0.026294  0  0.988837  0  0  0.024919  0  1.080468  0  0  0.031183  0  1.069633  0  0  0.079433  0.019585  0  1.089201  0
H  H3  1  0.74035840  0.61409720  0.21425304  1  0  0.026328  0  0.988918  0  0  0.02493  0  1.080567  0  0  0.031153  0  1.069753  0  0  0.079416  0.019593  0  1.089295  0
H  H4  1  0.28188851  0.61982504  0.53586854  1  0  0.118049  0  0.970556  0  0  0.120787  0  1.04253  0  0  0.124927  0  1.039843  0  0  0.10927  0.117952  0  1.044381  0
H  H5  1  0.71810013  0.38015789  0.46413447  1  0  0.118006  0  0.970493  0  0  0.120752  0  1.042484  0  0  0.124876  0  1.03984  0  0  0.109195  0.117909  0  1.044346  0
H  H6  1  0.70536177  0.92770754  0.54566167  1  0  0.100715  0  0.92876  0  0  0.112475  0  0.985385  0  0  0.115403  0  0.982837  0  0  0.111974  0.110414  0  0.987127  0
H  H7  1  0.29462606  0.07227633  0.45432394  1  0  0.100793  0  0.928726  0  0  0.112499  0  0.985416  0  0  0.115436  0  0.982863  0  0  0.111964  0.110433  0  0.98716  0
H  H8  1  0.13118221  0.07782319  0.72538982  1  0  0.106646  0  0.964009  0  0  0.115105  0  1.026799  0  0  0.117407  0  1.026834  0  0  0.103412  0.113366  0  1.027119  0
H  H9  1  0.86878211  0.92217011  0.27459882  1  0  0.106556  0  0.963968  0  0  0.115058  0  1.026713  0  0  0.117369  0  1.026725  0  0  0.103362  0.113316  0  1.027034  0
H  H10  1  0.12288552  0.91752539  0.88397160  1  0  0.083092  0  0.951618  0  0  0.087239  0  1.025239  0  0  0.090873  0  1.021971  0  0  0.098855  0.084106  0  1.028254  0
H  H11  1  0.87713061  0.08249575  0.11603425  1  0  0.083229  0  0.951928  0  0  0.08733  0  1.025564  0  0  0.090959  0  1.022303  0  0  0.098972  0.084201  0  1.028562  0
C  C12  1  0.48222476  0.60956548  0.70435571  1  0  0.125194  0  3.749005  0  0  0.129799  0  3.984403  0  0  0.130188  0  4.006442  0  0  0.093559  0.129733  0  3.970221  0
C  C13  1  0.51778999  0.39044738  0.29564493  1  0  0.125108  0  3.748286  0  0  0.129729  0  3.983669  0  0  0.130121  0  4.005686  0  0  0.093573  0.12966  0  3.96947  0
C  C14  1  0.23327817  0.43113263  0.70414259  1  0  0.308248  0  3.660188  0  0  0.263019  0  3.935243  0  0  0.284487  0  3.930208  0  0  0.09391  0.246985  0  3.9408  0
C  C15  1  0.76672675  0.56887772  0.29586916  1  0  0.307903  0  3.661035  0  0  0.262722  0  3.935951  0  0  0.28423  0  3.930933  0  0  0.093768  0.246689  0  3.941494  0
C  C16  1  0.47427250  0.68998383  0.61089944  1  0  -0.098053  0  3.675363  0  0  -0.121182  0  3.924539  0  0  -0.126224  0  3.946062  0  0  -0.06733  -0.117953  0  3.909867  0
C  C17  1  0.52570309  0.30998022  0.38911179  1  0  -0.098053  0  3.675475  0  0  -0.121162  0  3.924544  0  0  -0.126212  0  3.946071  0  0  -0.067248  -0.117942  0  3.909867  0
C  C18  1  0.70700051  0.86103053  0.61693464  1  0  -0.001411  0  3.690232  0  0  -0.0209  0  3.944156  0  0  -0.017636  0  3.960362  0  0  -0.061782  -0.022576  0  3.93298  0
C  C19  1  0.29303742  0.13897855  0.38307280  1  0  -0.001236  0  3.690354  0  0  -0.02069  0  3.944236  0  0  -0.017437  0  3.960449  0  0  -0.061728  -0.02236  0  3.933042  0
C  C20  1  0.94181702  0.94501110  0.71632299  1  0  -0.082393  0  3.700311  0  0  -0.097458  0  3.951207  0  0  -0.102057  0  3.971734  0  0  -0.074833  -0.095344  0  3.938378  0
C  C21  1  0.05819191  0.05500815  0.28366244  1  0  -0.082403  0  3.699811  0  0  -0.097504  0  3.950749  0  0  -0.102098  0  3.971279  0  0  -0.074743  -0.095391  0  3.937895  0
C  C22  1  0.93803038  0.85588501  0.80593948  1  0  0.129692  0  3.657487  0  0  0.097132  0  3.913139  0  0  0.103494  0  3.928582  0  0  0.037557  0.09264  0  3.904206  0
C  C23  1  0.06194032  0.14411502  0.19404514  1  0  0.129582  0  3.657995  0  0  0.097034  0  3.913723  0  0  0.103383  0  3.929169  0  0  0.037325  0.092546  0  3.904769  0
Br  Br24  1  0.30680162  0.73197297  0.06435905  1  0  -0.436038  0  1.542483  0  0  -0.365879  0  1.961243  0  0  -0.384962  0  1.922084  0  0  -0.218484  -0.351175  0  1.986762  0
Br  Br25  1  0.69325301  0.26805132  0.93559900  1  0  -0.435977  0  1.542398  0  0  -0.365826  0  1.961172  0  0  -0.384922  0  1.922044  0  0  -0.218478  -0.351114  0  1.986668  0
N  N26  1  0.71315710  0.69084517  0.80140278  1  0  -0.294178  0  3.354173  0  0  -0.22273  0  3.638255  0  0  -0.234409  0  3.648597  0  0  -0.354992  -0.21616  0  3.631714  0
N  N27  1  0.28683961  0.30915263  0.19859641  1  0  -0.294227  0  3.35414  0  0  -0.222793  0  3.638198  0  0  -0.234459  0  3.648534  0  0  -0.354944  -0.216207  0  3.631594  0
O  O28  1  0.01128102  0.33883492  0.62320692  1  0  -0.411419  0  1.963359  0  0  -0.359002  0  2.174098  0  0  -0.376492  0  2.171811  0  0  -0.253356  -0.347255  0  2.17631  0
O  O29  1  0.98867805  0.66114442  0.37682407  1  0  -0.411109  0  1.963838  0  0  -0.358715  0  2.174531  0  0  -0.376206  0  2.172234  0  0  -0.253244  -0.346969  0  2.176721  0
