# generated using pymatgen
data_CuH28C28(N5O3)2
_symmetry_space_group_name_H-M   'P 1'
_cell_length_a   7.99984231
_cell_length_b   9.37048664
_cell_length_c   9.96502172
_cell_angle_alpha   90.42478085
_cell_angle_beta   103.94686150
_cell_angle_gamma   101.92845285
_symmetry_Int_Tables_number   1
_chemical_formula_structural   CuH28C28(N5O3)2
_chemical_formula_sum   'Cu1 H28 C28 N10 O6'
_cell_volume   708.03585431
_cell_formula_units_Z   1
loop_
 _symmetry_equiv_pos_site_id
 _symmetry_equiv_pos_as_xyz
  1  'x, y, z'
loop_
 _atom_site_type_symbol
 _atom_site_label
 _atom_site_symmetry_multiplicity
 _atom_site_fract_x
 _atom_site_fract_y
 _atom_site_fract_z
 _atom_site_occupancy
 _atom_site_hle17_ddec_charge
 _atom_site_hle17_ddec_spin_density
 _atom_site_hle17_ddec_sum_bond_order
 _atom_site_hle17_magmom
 _atom_site_hse06_10hf_ddec_charge
 _atom_site_hse06_10hf_ddec_spin_density
 _atom_site_hse06_10hf_ddec_sum_bond_order
 _atom_site_hse06_10hf_magmom
 _atom_site_hse06_ddec_charge
 _atom_site_hse06_ddec_spin_density
 _atom_site_hse06_ddec_sum_bond_order
 _atom_site_hse06_magmom
 _atom_site_pbe_cm5_charge
 _atom_site_pbe_ddec_charge
 _atom_site_pbe_ddec_spin_density
 _atom_site_pbe_ddec_sum_bond_order
 _atom_site_pbe_magmom
Cu  Cu0  1  0.00000131  0.00000003  0.99999725  1  0.80054  -0.707454  1.932494  -0.536  0.762155  -0.778676  2.313507  -0.63  0.833616  -0.8344  2.26284  -0.702  0.793337  0.719605  -0.740893  2.347761  -0.584
H  H1  1  0.81168097  0.25391741  0.88398820  1  0.112971  -4.8e-05  0.92252  0.0  0.11897  -0.000127  0.988195  0.0  0.122378  -8.2e-05  0.982987  0.0  0.140996  0.116112  -0.000169  0.992399  0.0
H  H2  1  0.18832307  0.74607960  0.11600706  1  0.112978  -4.7e-05  0.92251  0.0  0.118993  -0.000126  0.988158  0.0  0.122401  -8.2e-05  0.98295  0.0  0.14103  0.116135  -0.000169  0.992362  0.0
H  H3  1  0.31116206  0.52056223  0.89061303  1  0.131124  -0.000615  0.961218  -0.001  0.143604  -0.000485  1.015628  -0.001  0.146007  -0.000363  1.014382  0.0  0.126577  0.141525  -0.000611  1.017046  -0.001
H  H4  1  0.68884417  0.47944346  0.10939079  1  0.13114  -0.00061  0.961173  -0.001  0.143644  -0.000485  1.015557  -0.001  0.146049  -0.000364  1.014306  0.0  0.126577  0.141565  -0.000611  1.016975  -0.001
H  H5  1  0.35552419  0.25195118  0.99825105  1  0.11655  -0.000133  0.977505  -0.001  0.121184  -0.000312  1.042749  -0.001  0.123673  -0.000211  1.040684  -0.001  0.117101  0.11912  -0.000409  1.044876  -0.001
H  H6  1  0.64448430  0.74804803  0.00174410  1  0.116609  -0.000131  0.977465  -0.001  0.121181  -0.000313  1.04278  -0.001  0.12367  -0.000211  1.040715  -0.001  0.117091  0.119117  -0.000409  1.044908  -0.001
H  H7  1  0.01612364  0.63472906  0.82801583  1  0.098459  5.1e-05  0.922777  0.0  0.109092  5e-06  0.989423  0.0  0.109718  3.8e-05  0.989398  0.0  0.114826  0.108441  -3.1e-05  0.989518  0.0
H  H8  1  0.98387552  0.36526902  0.17198048  1  0.098456  4.8e-05  0.922748  0.0  0.109053  5e-06  0.989388  0.0  0.10968  3.8e-05  0.989361  0.0  0.114831  0.108404  -3.1e-05  0.98948  0.0
H  H9  1  0.81583969  0.50098485  0.78187075  1  0.086117  9.5e-05  0.922237  0.0  0.100789  2.5e-05  0.985873  0.0  0.101029  1.9e-05  0.986893  0.0  0.113483  0.100802  -1.2e-05  0.984496  0.0
H  H10  1  0.18416334  0.49901324  0.21812532  1  0.086086  9.3e-05  0.922228  0.0  0.100717  2.5e-05  0.985875  0.0  0.10096  1.9e-05  0.986885  0.0  0.113473  0.100732  -1.2e-05  0.984501  0.0
H  H11  1  0.60536874  0.84557413  0.80634293  1  0.104791  -2.1e-05  0.991597  0.0  0.107443  -7.8e-05  1.064027  0.0  0.109892  -3.1e-05  1.06037  0.0  0.134423  0.105529  -0.00011  1.066634  -0.001
H  H12  1  0.39463066  0.15442501  0.19365745  1  0.104782  -2.5e-05  0.991578  0.0  0.107426  -7.8e-05  1.064035  0.0  0.109874  -3.1e-05  1.060378  0.0  0.134419  0.105517  -0.00011  1.066638  -0.001
H  H13  1  0.81054475  0.96972033  0.46163706  1  0.126133  -0.000555  0.977324  -0.001  0.136709  -0.000457  1.03723  -0.001  0.138972  -0.000343  1.036093  0.0  0.123792  0.134749  -0.000506  1.038833  -0.001
H  H14  1  0.18944749  0.03028100  0.53836094  1  0.126144  -0.000558  0.977283  -0.001  0.136729  -0.000457  1.037179  -0.001  0.138993  -0.000343  1.03604  0.0  0.123803  0.134767  -0.000506  1.038781  -0.001
H  H15  1  0.07763730  0.05594359  0.70800770  1  0.110137  -8.4e-05  0.979638  0.0  0.114906  -0.000287  1.046251  -0.001  0.117634  -0.000193  1.043984  0.0  0.116673  0.11291  -0.000374  1.048047  -0.001
H  H16  1  0.92235912  0.94405885  0.29198812  1  0.11013  -8.1e-05  0.979631  0.0  0.114906  -0.000287  1.046235  -0.001  0.117635  -0.000192  1.043968  0.0  0.116684  0.112909  -0.000374  1.048029  -0.001
H  H17  1  0.48486869  0.85754940  0.41615966  1  0.098651  -0.000272  0.912713  0.0  0.113097  -0.000176  0.971398  0.0  0.114243  -0.000114  0.970513  0.0  0.117369  0.112397  -0.000234  0.971228  0.0
H  H18  1  0.51512526  0.14244862  0.58384264  1  0.09867  -0.000268  0.912752  0.0  0.113112  -0.000176  0.971404  0.0  0.114257  -0.000114  0.970519  0.0  0.117393  0.112414  -0.000234  0.971234  0.0
H  H19  1  0.39041254  0.82911749  0.56194622  1  0.094216  0.000116  0.942976  0.0  0.102014  5.1e-05  1.017638  0.0  0.103785  4.6e-05  1.015647  0.0  0.112789  0.10042  5e-05  1.018915  0.0
H  H20  1  0.60958566  0.17088709  0.43805701  1  0.094199  0.000116  0.942945  0.0  0.101922  5.1e-05  1.017664  0.0  0.103691  4.6e-05  1.015673  0.0  0.112728  0.10033  5e-05  1.018939  0.0
H  H21  1  0.40182246  0.60523627  0.68992810  1  0.095113  4e-06  0.976735  0.0  0.10215  1e-06  1.047207  0.0  0.104832  2e-06  1.045903  0.0  0.098101  0.100021  -4e-06  1.048478  0.0
H  H22  1  0.59816403  0.39476282  0.31007375  1  0.095142  4e-06  0.976711  0.0  0.102152  1e-06  1.047207  0.0  0.104832  2e-06  1.045905  0.0  0.098108  0.100024  -4e-06  1.048482  0.0
H  H23  1  0.58912882  0.65923544  0.31916445  1  0.091416  2e-06  0.951558  0.0  0.102487  -7e-06  1.012076  0.0  0.105021  -1e-05  1.011365  0.0  0.098567  0.100189  -6e-06  1.013347  0.0
H  H24  1  0.41087035  0.34076800  0.68084497  1  0.091396  0.0  0.951567  0.0  0.102483  -6e-06  1.01208  0.0  0.105018  -9e-06  1.011363  0.0  0.098534  0.100185  -6e-06  1.013352  0.0
H  H25  1  0.03676706  0.74442754  0.61533702  1  0.089491  5e-06  0.97252  0.0  0.098223  1.5e-05  1.038304  0.0  0.099953  8e-06  1.039101  0.0  0.096031  0.096225  1.7e-05  1.039022  0.0
H  H26  1  0.96324199  0.25556399  0.38466316  1  0.089455  1e-05  0.972415  0.0  0.098219  1.5e-05  1.038182  0.0  0.099928  8e-06  1.038999  0.0  0.096022  0.096225  1.7e-05  1.038901  0.0
H  H27  1  0.92947700  0.27496280  0.62302194  1  0.079158  3.6e-05  0.987944  0.0  0.089692  1.5e-05  1.053201  0.0  0.091247  1.4e-05  1.054301  0.0  0.093763  0.087332  2.2e-05  1.054338  0.0
H  H28  1  0.07053100  0.72502977  0.37698407  1  0.079206  3.6e-05  0.987989  0.0  0.089749  1.5e-05  1.053213  0.0  0.091302  1.4e-05  1.054313  0.0  0.0938  0.087389  2.2e-05  1.054351  0.0
C  C29  1  0.95358377  0.28847345  0.90005772  1  0.154624  0.009215  3.639052  0.005  0.094862  0.002879  3.918943  0.001  0.110763  0.00437  3.929612  0.002  0.141656  0.085165  0.001883  3.911235  0.0
C  C30  1  0.04642083  0.71152574  0.09993867  1  0.154588  0.009215  3.638885  0.005  0.094824  0.002877  3.918781  0.001  0.110723  0.004371  3.929453  0.002  0.141631  0.08512  0.001882  3.911083  0.0
C  C31  1  0.21742250  0.42441388  0.90571639  1  -0.06572  -0.004928  3.653094  -0.005  -0.105568  -0.002536  3.905504  -0.003  -0.104838  -0.00216  3.925258  -0.002  0.001824  -0.105502  -0.002857  3.89151  -0.003
C  C32  1  0.78258008  0.57558749  0.09428063  1  -0.065837  -0.004946  3.653134  -0.005  -0.10572  -0.002536  3.905553  -0.003  -0.104991  -0.002161  3.925307  -0.002  0.001823  -0.105649  -0.002857  3.891554  -0.003
C  C33  1  0.23634511  0.29281865  0.96048697  1  -0.003648  0.001357  3.722774  0.0  -0.030785  -0.00046  3.990887  -0.001  -0.027942  0.000619  4.0114  0.0  -0.001731  -0.033108  -0.001227  3.977798  -0.002
C  C34  1  0.76366206  0.70718054  0.03950993  1  -0.003636  0.001361  3.722972  0.0  -0.030724  -0.00046  3.991087  -0.001  -0.02788  0.000619  4.011599  0.0  -0.001705  -0.033048  -0.001227  3.977994  -0.002
C  C35  1  0.95614787  0.52396607  0.78134697  1  -0.037431  -0.000832  3.633572  -0.001  -0.104413  -0.000621  3.884324  -0.001  -0.099649  -0.000449  3.894452  -0.001  -0.043902  -0.107272  -0.000809  3.876582  -0.001
C  C36  1  0.04385510  0.47603197  0.21865611  1  -0.037437  -0.000823  3.63358  -0.001  -0.104289  -0.000621  3.884174  -0.001  -0.09952  -0.000449  3.89429  -0.001  -0.043884  -0.10715  -0.000809  3.876434  -0.001
C  C37  1  0.97928699  0.51127667  0.63575832  1  0.068753  -0.000309  3.743452  0.0  0.089156  1e-06  3.98018  0.0  0.088171  3.4e-05  4.004522  0.0  -0.012113  0.08916  -3.1e-05  3.963777  0.0
C  C38  1  0.02071789  0.48872361  0.36423914  1  0.068672  -0.000308  3.743784  0.0  0.089059  1e-06  3.980455  0.0  0.088073  3.4e-05  4.004788  0.0  -0.012141  0.089063  -3.1e-05  3.964054  0.0
C  C39  1  0.01952910  0.63682160  0.56487239  1  -0.106417  -1.2e-05  3.746352  0.0  -0.124867  -5.9e-05  3.992368  0.0  -0.127482  -3.3e-05  4.01479  0.0  -0.090566  -0.12256  -7.2e-05  3.977599  0.0
C  C40  1  0.98048404  0.36318085  0.43512975  1  -0.106415  -3.1e-05  3.746374  0.0  -0.124882  -5.9e-05  3.992358  0.0  -0.127478  -3.3e-05  4.014792  0.0  -0.090597  -0.122577  -7.2e-05  3.977593  0.0
C  C41  1  0.96059628  0.37459573  0.56967109  1  -0.11244  -0.000163  3.755663  0.0  -0.131076  -2.2e-05  3.999774  0.0  -0.133978  -5e-06  4.023213  0.0  -0.095352  -0.129023  -4.6e-05  3.984764  0.0
C  C42  1  0.03941289  0.62540126  0.43032818  1  -0.112441  -0.000166  3.755748  0.0  -0.131079  -2.2e-05  3.999834  0.0  -0.13398  -4e-06  4.023278  0.0  -0.095347  -0.129029  -4.6e-05  3.984827  0.0
C  C43  1  0.70221009  0.89016870  0.74944386  1  0.173056  0.009659  3.607263  0.005  0.116638  0.002746  3.873575  0.001  0.132574  0.004202  3.886  0.002  0.143788  0.107493  0.001676  3.863833  0.0
C  C44  1  0.29778902  0.10982934  0.25055746  1  0.173071  0.009667  3.607213  0.005  0.116653  0.002747  3.873537  0.001  0.13259  0.004202  3.88596  0.002  0.143813  0.107502  0.001676  3.863804  0.0
C  C45  1  0.81269741  0.95647292  0.56984938  1  -0.076528  -0.003694  3.664282  -0.004  -0.114441  -0.001949  3.917644  -0.002  -0.11306  -0.001669  3.936517  -0.002  -0.001357  -0.115163  -0.002206  3.906026  -0.002
C  C46  1  0.18729401  0.04352514  0.43014640  1  -0.076642  -0.003643  3.664512  -0.004  -0.114583  -0.00195  3.91791  -0.002  -0.113205  -0.001667  3.936783  -0.002  -0.001439  -0.115297  -0.002206  3.906288  -0.002
C  C47  1  0.94072323  0.00010500  0.69060513  1  -0.01844  0.00184  3.756759  0.0  -0.049258  0.000214  4.030426  0.0  -0.045946  0.001254  4.050063  0.001  -0.012195  -0.051398  -0.000626  4.018713  -0.001
C  C48  1  0.05927287  0.99989632  0.30939463  1  -0.018343  0.001764  3.756773  0.0  -0.049153  0.000214  4.030441  0.0  -0.045839  0.001251  4.050073  0.001  -0.012178  -0.051293  -0.000626  4.018729  -0.001
C  C49  1  0.49681302  0.80948531  0.51719484  1  -0.049762  -0.00102  3.636826  -0.001  -0.115257  -0.000793  3.886449  -0.001  -0.110462  -0.000593  3.895912  -0.001  -0.046654  -0.117135  -0.000974  3.877122  -0.001
C  C50  1  0.50317705  0.19051269  0.48280770  1  -0.0498  -0.001023  3.636987  -0.001  -0.115144  -0.000793  3.886404  -0.001  -0.110354  -0.000592  3.895883  -0.001  -0.046601  -0.117026  -0.000974  3.877082  -0.001
C  C51  1  0.49442728  0.64845162  0.50545140  1  0.064242  -0.00021  3.760364  0.0  0.082687  5e-06  3.999191  0.0  0.081367  4.5e-05  4.02428  0.0  -0.016673  0.083359  -1.4e-05  3.981705  0.0
C  C52  1  0.50556150  0.35154638  0.49455089  1  0.064204  -0.000246  3.760507  0.0  0.082641  3e-06  3.9993  0.0  0.081321  4.8e-05  4.024389  0.0  -0.016681  0.083315  -1.5e-05  3.981817  0.0
C  C53  1  0.44594923  0.55850296  0.60742881  1  -0.111068  -4.6e-05  3.752583  0.0  -0.131305  -2.4e-05  4.001899  0.0  -0.134151  -7e-06  4.024985  0.0  -0.09315  -0.129477  -6.7e-05  3.986471  0.0
C  C54  1  0.55403367  0.44149721  0.39257334  1  -0.111109  -1.6e-05  3.752732  0.0  -0.131313  -2.2e-05  4.002022  0.0  -0.134156  -1e-05  4.025102  0.0  -0.093158  -0.129491  -6.7e-05  3.986605  0.0
C  C55  1  0.54858661  0.58912359  0.39791255  1  -0.116484  -0.00014  3.763135  0.0  -0.134239  -6.5e-05  4.009264  0.0  -0.136622  -3.8e-05  4.03112  0.0  -0.092307  -0.132509  -7.9e-05  3.99478  0.0
C  C56  1  0.45140813  0.41087766  0.60209497  1  -0.116442  -0.00011  3.763047  0.0  -0.134222  -6.5e-05  4.009184  0.0  -0.136607  -4e-05  4.031043  0.0  -0.092313  -0.132492  -7.9e-05  3.994696  0.0
N  N57  1  0.07077318  0.20981974  0.95678658  1  -0.343024  -0.077142  3.344188  -0.103  -0.304714  -0.054222  3.659142  -0.076  -0.334269  -0.044247  3.68126  -0.066  -0.372515  -0.286096  -0.060762  3.644768  -0.081
N  N58  1  0.92922959  0.79017729  0.04320641  1  -0.343074  -0.077141  3.344306  -0.103  -0.304773  -0.054222  3.65926  -0.076  -0.33433  -0.044246  3.681381  -0.066  -0.372536  -0.286153  -0.060761  3.64489  -0.081
N  N59  1  0.03814575  0.41980625  0.86816418  1  -0.064003  -0.000537  3.591489  -0.002  0.027954  -0.000703  3.81353  -0.001  0.013396  -0.000271  3.839616  -0.001  -0.245608  0.037731  -0.001016  3.794332  -0.002
N  N60  1  0.96185780  0.58019399  0.13183703  1  -0.063835  -0.000535  3.591267  -0.002  0.028084  -0.000703  3.81327  -0.001  0.013524  -0.000271  3.839356  -0.001  -0.245614  0.037864  -0.001016  3.794072  -0.002
N  N61  1  0.86999494  0.95716485  0.80120047  1  -0.342723  -0.078268  3.338566  -0.104  -0.301858  -0.054345  3.649844  -0.076  -0.331935  -0.044311  3.671505  -0.066  -0.375925  -0.283084  -0.06083  3.635799  -0.081
N  N62  1  0.13000290  0.04283321  0.19879859  1  -0.342721  -0.078256  3.338379  -0.104  -0.301866  -0.054344  3.64967  -0.076  -0.331942  -0.04431  3.67133  -0.066  -0.375904  -0.283093  -0.060826  3.635635  -0.081
N  N63  1  0.66329492  0.88824520  0.60928805  1  -0.050664  -0.001851  3.562887  -0.003  0.043215  -0.001375  3.777989  -0.002  0.027985  -0.000882  3.804047  -0.002  -0.240636  0.053338  -0.001743  3.757821  -0.003
N  N64  1  0.33669859  0.11175611  0.39071220  1  -0.050658  -0.001864  3.563013  -0.003  0.04322  -0.001374  3.778076  -0.002  0.027987  -0.000882  3.804133  -0.002  -0.240649  0.053345  -0.001742  3.757912  -0.003
N  N65  1  0.67036534  0.10042985  0.13634859  1  0.706547  0.000666  4.145203  0.001  0.743893  0.000676  4.4389  0.001  0.77216  0.000522  4.443656  0.0  0.09476  0.739625  0.000811  4.413043  0.001
N  N66  1  0.32963348  0.89957696  0.86364877  1  0.70664  0.000675  4.145004  0.001  0.743892  0.00068  4.438839  0.001  0.772161  0.000516  4.443592  0.0  0.094811  0.739655  0.000811  4.412912  0.001
O  O67  1  0.71540234  0.04893920  0.03584153  1  -0.492008  0.001337  1.792315  0.0  -0.494492  0.001409  2.035822  0.0  -0.510059  0.001498  2.0263  0.0  -0.208178  -0.488923  0.001235  2.036662  0.0
O  O68  1  0.28460447  0.95106870  0.96415942  1  -0.491973  0.001362  1.792268  0.0  -0.494499  0.001404  2.035887  0.0  -0.510069  0.001516  2.026367  0.0  -0.208185  -0.488938  0.001235  2.036707  0.0
O  O69  1  0.63329072  0.22672658  0.13072504  1  -0.511044  7.8e-05  1.73737  0.0  -0.50046  0.000158  1.955146  0.0  -0.5126  0.000211  1.946041  0.0  -0.218706  -0.496686  0.000199  1.955661  0.0
O  O70  1  0.36671196  0.77328023  0.86927308  1  -0.511067  6e-05  1.737226  0.0  -0.500401  0.000159  1.955002  0.0  -0.512545  0.000201  1.9459  0.0  -0.218718  -0.496635  0.000199  1.955495  0.0
O  O71  1  0.66150611  0.02786607  0.24230604  1  -0.500355  0.000155  1.730522  0.0  -0.497071  0.00024  1.950811  0.0  -0.508568  0.000333  1.942299  0.0  -0.215594  -0.493472  0.000375  1.950752  0.0
O  O72  1  0.33848543  0.97213746  0.75768883  1  -0.500469  0.000131  1.73055  0.0  -0.497131  0.000241  1.95087  0.0  -0.508624  0.000323  1.942348  0.0  -0.215618  -0.493544  0.000375  1.9508  0.0
