# generated using pymatgen
data_ZnH14C18N4(O2F3)2
_symmetry_space_group_name_H-M   'P 1'
_cell_length_a   9.76161925
_cell_length_b   11.26458077
_cell_length_c   11.58618480
_cell_angle_alpha   98.84195841
_cell_angle_beta   108.02864558
_cell_angle_gamma   112.86751363
_symmetry_Int_Tables_number   1
_chemical_formula_structural   ZnH14C18N4(O2F3)2
_chemical_formula_sum   'Zn2 H28 C36 N8 O8 F12'
_cell_volume   1060.27791473
_cell_formula_units_Z   2
loop_
 _symmetry_equiv_pos_site_id
 _symmetry_equiv_pos_as_xyz
  1  'x, y, z'
loop_
 _atom_site_type_symbol
 _atom_site_label
 _atom_site_symmetry_multiplicity
 _atom_site_fract_x
 _atom_site_fract_y
 _atom_site_fract_z
 _atom_site_occupancy
 _atom_site_hle17_bader_spin_density
 _atom_site_hle17_ddec_charge
 _atom_site_hle17_ddec_spin_density
 _atom_site_hle17_ddec_sum_bond_order
 _atom_site_hle17_magmom
 _atom_site_hse06_10hf_bader_spin_density
 _atom_site_hse06_10hf_ddec_charge
 _atom_site_hse06_10hf_ddec_spin_density
 _atom_site_hse06_10hf_ddec_sum_bond_order
 _atom_site_hse06_10hf_magmom
 _atom_site_hse06_bader_spin_density
 _atom_site_hse06_ddec_charge
 _atom_site_hse06_ddec_spin_density
 _atom_site_hse06_ddec_sum_bond_order
 _atom_site_hse06_magmom
 _atom_site_pbe_bader_spin_density
 _atom_site_pbe_cm5_charge
 _atom_site_pbe_ddec_charge
 _atom_site_pbe_ddec_spin_density
 _atom_site_pbe_ddec_sum_bond_order
 _atom_site_pbe_magmom
Zn  Zn0  1  0.15802064  0.16630149  0.37622419  1  0  1.012501  0  1.863797  0  0  0.823861  0  2.344056  0  0  0.868252  0  2.291693  0  0  0.710147  0.793081  0  2.379977  0
Zn  Zn1  1  0.84197891  0.83369747  0.62377581  1  0  1.012421  0  1.863936  0  0  0.823831  0  2.344143  0  0  0.868222  0  2.291776  0  0  0.710145  0.793055  0  2.380076  0
H  H2  1  0.38196583  0.21945714  0.21244438  1  0  0.105482  0  0.952721  0  0  0.113428  0  1.018417  0  0  0.116202  0  1.015046  0  0  0.134797  0.111406  0  1.020711  0
H  H3  1  0.61803315  0.78054081  0.78755274  1  0  0.105545  0  0.952737  0  0  0.113456  0  1.018485  0  0  0.116231  0  1.015111  0  0  0.134818  0.111434  0  1.020778  0
H  H4  1  0.43244346  0.61811233  0.29142497  1  0  0.113941  0  0.975083  0  0  0.122952  0  1.036695  0  0  0.124919  0  1.03722  0  0  0.120262  0.121505  0  1.036478  0
H  H5  1  0.56755557  0.38188765  0.70857591  1  0  0.113943  0  0.975061  0  0  0.122946  0  1.036688  0  0  0.124913  0  1.037212  0  0  0.120257  0.121503  0  1.036456  0
H  H6  1  0.24262842  0.47063490  0.40591140  1  0  0.111596  0  0.977981  0  0  0.118207  0  1.042034  0  0  0.121018  0  1.040048  0  0  0.112392  0.116182  0  1.04353  0
H  H7  1  0.75737169  0.52936507  0.59408890  1  0  0.111566  0  0.978026  0  0  0.118196  0  1.04204  0  0  0.121006  0  1.040055  0  0  0.112393  0.116174  0  1.043533  0
H  H8  1  0.65079386  0.56047501  0.22418620  1  0  0.100529  0  0.931574  0  0  0.114296  0  0.995585  0  0  0.115228  0  0.994748  0  0  0.113063  0.113385  0  0.996426  0
H  H9  1  0.34920575  0.43952598  0.77581411  1  0  0.100522  0  0.931602  0  0  0.114299  0  0.995589  0  0  0.11523  0  0.994752  0  0  0.113065  0.113386  0  0.996431  0
H  H10  1  0.47076755  0.49759489  0.08229215  1  0  0.078123  0  0.935863  0  0  0.092441  0  0.999957  0  0  0.09293  0  0.999741  0  0  0.108722  0.091778  0  1.000445  0
H  H11  1  0.52923364  0.50240508  0.91770757  1  0  0.078141  0  0.93582  0  0  0.092443  0  0.999924  0  0  0.092933  0  0.999706  0  0  0.108719  0.091782  0  1.000408  0
H  H12  1  0.34301624  0.24905340  0.94423704  1  0  0.097424  0  0.973786  0  0  0.103316  0  1.04631  0  0  0.106546  0  1.044317  0  0  0.093574  0.100944  0  1.047864  0
H  H13  1  0.65698444  0.75094759  0.05576270  1  0  0.097406  0  0.973783  0  0  0.103295  0  1.04632  0  0  0.106526  0  1.044325  0  0  0.09356  0.100926  0  1.047872  0
H  H14  1  0.68412663  0.09331671  0.95821686  1  0  0.097728  0  0.958135  0  0  0.108044  0  1.020329  0  0  0.111089  0  1.01891  0  0  0.098714  0.105538  0  1.022089  0
H  H15  1  0.31587349  0.90668327  0.04178344  1  0  0.097719  0  0.958146  0  0  0.108027  0  1.020348  0  0  0.111071  0  1.01893  0  0  0.098708  0.105524  0  1.022101  0
H  H16  1  0.81699067  0.45183212  0.25416062  1  0  0.103249  0  0.983479  0  0  0.1073  0  1.056878  0  0  0.111281  0  1.053297  0  0  0.09381  0.104479  0  1.059291  0
H  H17  1  0.18300836  0.54816786  0.74584026  1  0  0.103293  0  0.98335  0  0  0.107296  0  1.056856  0  0  0.111276  0  1.053276  0  0  0.093817  0.104473  0  1.05927  0
H  H18  1  0.59857222  0.09349333  0.69978715  1  0  0.130484  0  0.984001  0  0  0.136398  0  1.05104  0  0  0.139801  0  1.048848  0  0  0.118345  0.133598  0  1.053218  0
H  H19  1  0.40142789  0.90650664  0.30021315  1  0  0.130492  0  0.983987  0  0  0.136396  0  1.05105  0  0  0.139798  0  1.048859  0  0  0.118343  0.133594  0  1.053229  0
H  H20  1  0.49474589  0.15982332  0.47694429  1  0  0.10698  0  0.963569  0  0  0.112092  0  1.031212  0  0  0.115402  0  1.028811  0  0  0.113986  0.109887  0  1.032825  0
H  H21  1  0.50525422  0.84017666  0.52305601  1  0  0.107099  0  0.96344  0  0  0.112089  0  1.031247  0  0  0.1154  0  1.028843  0  0  0.113981  0.10988  0  1.032866  0
H  H22  1  0.15341631  0.10203799  0.64313517  1  0  0.10673  0  0.947917  0  0  0.115568  0  1.012951  0  0  0.118281  0  1.009614  0  0  0.134905  0.112941  0  1.016314  0
H  H23  1  0.84658380  0.89796198  0.35686513  1  0  0.106736  0  0.947901  0  0  0.11557  0  1.012943  0  0  0.118283  0  1.009607  0  0  0.134907  0.112941  0  1.016314  0
H  H24  1  0.25301528  0.01264618  0.81247392  1  0  0.102282  0  0.924083  0  0  0.118617  0  0.982935  0  0  0.119891  0  0.981836  0  0  0.118479  0.117565  0  0.983862  0
H  H25  1  0.74698483  0.98735380  0.18752638  1  0  0.102288  0  0.924042  0  0  0.118615  0  0.982931  0  0  0.11989  0  0.981834  0  0  0.118476  0.117561  0  0.983861  0
H  H26  1  0.39937621  0.95822374  0.80841244  1  0  0.094829  0  0.920469  0  0  0.107843  0  0.982989  0  0  0.108929  0  0.982521  0  0  0.113279  0.106954  0  0.983617  0
H  H27  1  0.60062498  0.04177623  0.19158728  1  0  0.094726  0  0.920597  0  0  0.107825  0  0.983013  0  0  0.108915  0  0.982543  0  0  0.113269  0.106932  0  0.983637  0
H  H28  1  0.88761173  0.28026020  0.16047426  1  0  0.091521  0  0.943297  0  0  0.103713  0  0.999313  0  0  0.10642  0  0.998496  0  0  0.099441  0.102065  0  0.999451  0
H  H29  1  0.11238730  0.71973977  0.83952576  1  0  0.091509  0  0.943302  0  0  0.103735  0  0.999265  0  0  0.106446  0  0.998446  0  0  0.099446  0.102089  0  0.999407  0
C  C30  1  0.37017521  0.30741150  0.25005851  1  0  0.17197  0  3.641296  0  0  0.10576  0  3.905685  0  0  0.120115  0  3.918045  0  0  0.142198  0.09659  0  3.896856  0
C  C31  1  0.62982495  0.69259051  0.74994297  1  0  0.171943  0  3.641139  0  0  0.105676  0  3.905598  0  0  0.120033  0  3.917951  0  0  0.142162  0.096511  0  3.89677  0
C  C32  1  0.44057360  0.13980762  0.54497300  1  0  -0.002449  0  3.7579  0  0  -0.038536  0  4.032056  0  0  -0.036909  0  4.051454  0  0  -0.008019  -0.039555  0  4.018721  0
C  C33  1  0.55942651  0.86019235  0.45502816  1  0  -0.002469  0  3.757828  0  0  -0.038546  0  4.032058  0  0  -0.036918  0  4.051452  0  0  -0.008017  -0.039564  0  4.018728  0
C  C34  1  0.50020196  0.15855617  0.93971197  1  0  0.06447  0  3.776895  0  0  0.086077  0  4.016823  0  0  0.084192  0  4.043433  0  0  -0.018582  0.087326  0  3.998808  0
C  C35  1  0.49979759  0.84144279  0.06028803  1  0  0.064424  0  3.776895  0  0  0.086026  0  4.016864  0  0  0.084144  0  4.043474  0  0  -0.018603  0.087279  0  3.998846  0
C  C36  1  0.01331120  0.28761158  0.49570103  1  0  0.491637  0  4.020108  0  0  0.441627  0  4.32282  0  0  0.471085  0  4.316064  0  0  0.197284  0.421857  0  4.326736  0
C  C37  1  0.98668342  0.71238434  0.50429550  1  0  0.491683  0  4.020025  0  0  0.441548  0  4.322952  0  0  0.471005  0  4.316193  0  0  0.197199  0.421773  0  4.326868  0
C  C38  1  0.76792381  0.27323767  0.11334886  1  0  -0.053685  0  3.771881  0  0  -0.06658  0  4.024009  0  0  -0.068398  0  4.045169  0  0  -0.091615  -0.065289  0  4.009108  0
C  C39  1  0.23207574  0.72676129  0.88665114  1  0  -0.053713  0  3.771824  0  0  -0.066634  0  4.023994  0  0  -0.068456  0  4.045155  0  0  -0.09164  -0.065349  0  4.009104  0
C  C40  1  0.46251525  0.25596790  0.99227241  1  0  -0.17447  0  3.729017  0  0  -0.201936  0  3.975707  0  0  -0.205429  0  3.998288  0  0  -0.098552  -0.199006  0  3.960219  0
C  C41  1  0.53748492  0.74403411  0.00772820  1  0  -0.174467  0  3.729065  0  0  -0.20191  0  3.975721  0  0  -0.205402  0  3.9983  0  0  -0.098544  -0.198993  0  3.960243  0
C  C42  1  0.25946690  0.11063370  0.62595495  1  0  0.173795  0  3.637318  0  0  0.110553  0  3.904355  0  0  0.12496  0  3.916333  0  0  0.144665  0.10157  0  3.896173  0
C  C43  1  0.74053321  0.88936627  0.37404535  1  0  0.173825  0  3.637279  0  0  0.11056  0  3.904353  0  0  0.124965  0  3.916332  0  0  0.144678  0.101577  0  3.896175  0
C  C44  1  0.86291840  0.28148263  0.52049862  1  0  0.679883  0  3.628104  0  0  0.604281  0  3.978014  0  0  0.633373  0  3.948215  0  0  0.296761  0.583911  0  3.998461  0
C  C45  1  0.13708171  0.71851734  0.47950168  1  0  0.680326  0  3.62721  0  0  0.604326  0  3.97789  0  0  0.633427  0  3.948066  0  0  0.296762  0.583963  0  3.998326  0
C  C46  1  0.09890909  0.93105098  0.20521826  1  0  0.500114  0  4.010583  0  0  0.446094  0  4.316684  0  0  0.476014  0  4.310338  0  0  0.196322  0.425696  0  4.320442  0
C  C47  1  0.90109267  0.06895001  0.79478089  1  0  0.500089  0  4.010629  0  0  0.446071  0  4.316721  0  0  0.475992  0  4.310376  0  0  0.196342  0.425675  0  4.320475  0
C  C48  1  0.65391182  0.16798433  0.00065519  1  0  -0.110688  0  3.741685  0  0  -0.13331  0  3.989962  0  0  -0.135598  0  4.011822  0  0  -0.090087  -0.131768  0  3.975508  0
C  C49  1  0.34608722  0.83201564  0.99934483  1  0  -0.110685  0  3.741668  0  0  -0.133271  0  3.989901  0  0  -0.135559  0  4.011761  0  0  -0.090077  -0.131726  0  3.975444  0
C  C50  1  0.37654193  0.04640163  0.81699467  1  0  -0.045991  0  3.640159  0  0  -0.114133  0  3.890162  0  0  -0.109543  0  3.90011  0  0  -0.046951  -0.116988  0  3.883362  0
C  C51  1  0.62345875  0.95359936  0.18300593  1  0  -0.04595  0  3.640169  0  0  -0.114131  0  3.890199  0  0  -0.109549  0  3.900153  0  0  -0.046948  -0.116982  0  3.883391  0
C  C52  1  0.49317471  0.10738532  0.65412364  1  0  -0.057704  0  3.641316  0  0  -0.102376  0  3.905121  0  0  -0.100555  0  3.922463  0  0  0.00071  -0.103075  0  3.893472  0
C  C53  1  0.50682325  0.89261465  0.34587696  1  0  -0.057745  0  3.641357  0  0  -0.102376  0  3.905057  0  0  -0.100554  0  3.922399  0  0  0.000712  -0.103072  0  3.893401  0
C  C54  1  0.57642139  0.36200461  0.10512473  1  0  0.060274  0  3.779193  0  0  0.081917  0  4.021541  0  0  0.080162  0  4.047408  0  0  -0.018762  0.082988  0  4.003814  0
C  C55  1  0.42357928  0.63799638  0.89487500  1  0  0.060223  0  3.779194  0  0  0.081894  0  4.021491  0  0  0.080136  0  4.047356  0  0  -0.018778  0.08297  0  4.003756  0
C  C56  1  0.72944813  0.36972550  0.16580933  1  0  -0.104371  0  3.721112  0  0  -0.130473  0  3.971975  0  0  -0.132124  0  3.991945  0  0  -0.091077  -0.129266  0  3.958213  0
C  C57  1  0.27055147  0.63027549  0.83419185  1  0  -0.104147  0  3.720839  0  0  -0.13041  0  3.971949  0  0  -0.132056  0  3.991917  0  0  -0.091035  -0.129198  0  3.958186  0
C  C58  1  0.53787488  0.46955929  0.15919621  1  0  -0.039015  0  3.629195  0  0  -0.108171  0  3.880437  0  0  -0.103059  0  3.890285  0  0  -0.046982  -0.11131  0  3.873772  0
C  C59  1  0.46212471  0.53044170  0.84080324  1  0  -0.039066  0  3.629269  0  0  -0.108158  0  3.88039  0  0  -0.103054  0  3.890262  0  0  -0.046959  -0.111298  0  3.873718  0
C  C60  1  0.99991597  0.77808867  0.12342510  1  0  0.669089  0  3.6523  0  0  0.599226  0  3.997722  0  0  0.626104  0  3.971161  0  0  0.294581  0.579852  0  4.016982  0
C  C61  1  0.00008414  0.22191130  0.87657433  1  0  0.669204  0  3.652172  0  0  0.599367  0  3.997558  0  0  0.62624  0  3.97101  0  0  0.294635  0.579994  0  4.01682  0
C  C62  1  0.29853514  0.44081026  0.34748280  1  0  0.003345  0  3.745679  0  0  -0.031838  0  4.010028  0  0  -0.030108  0  4.030361  0  0  -0.005541  -0.032928  0  3.996159  0
C  C63  1  0.70146441  0.55918870  0.65251634  1  0  0.003331  0  3.745757  0  0  -0.031861  0  4.010108  0  0  -0.03013  0  4.030441  0  0  -0.005554  -0.032951  0  3.996238  0
C  C64  1  0.39320865  0.51442242  0.29260275  1  0  -0.049752  0  3.658347  0  0  -0.09086  0  3.912892  0  0  -0.089632  0  3.932348  0  0  0.003628  -0.091611  0  3.899813  0
C  C65  1  0.60679146  0.48557756  0.70739755  1  0  -0.049771  0  3.658339  0  0  -0.090879  0  3.912903  0  0  -0.08965  0  3.932358  0  0  0.003627  -0.091633  0  3.89982  0
N  N66  1  0.37682154  0.08877049  0.70333143  1  0  -0.04747  0  3.55394  0  0  0.045447  0  3.774804  0  0  0.031192  0  3.800101  0  0  -0.238193  0.054692  0  3.757382  0
N  N67  1  0.62317750  0.91122949  0.29666859  1  0  -0.047527  0  3.554009  0  0  0.045466  0  3.774794  0  0  0.031212  0  3.800095  0  0  -0.238186  0.054718  0  3.757361  0
N  N68  1  0.28444580  0.31162710  0.31974439  1  0  -0.402515  0  3.348213  0  0  -0.316107  0  3.65453  0  0  -0.337398  0  3.666703  0  0  -0.366661  -0.301723  0  3.645846  0
N  N69  1  0.71555482  0.68837185  0.68025330  1  0  -0.402503  0  3.348173  0  0  -0.316059  0  3.654445  0  0  -0.337349  0  3.666616  0  0  -0.366658  -0.301685  0  3.645778  0
N  N70  1  0.43751217  0.42899327  0.23212230  1  0  -0.04  0  3.541972  0  0  0.05502  0  3.758789  0  0  0.040722  0  3.784068  0  0  -0.232165  0.064376  0  3.741574  0
N  N71  1  0.56248737  0.57100569  0.76787770  1  0  -0.039928  0  3.541982  0  0  0.055095  0  3.758773  0  0  0.040798  0  3.784053  0  0  -0.232152  0.064455  0  3.741551  0
N  N72  1  0.29485973  0.14162664  0.52854916  1  0  -0.411937  0  3.359092  0  0  -0.329264  0  3.66616  0  0  -0.350236  0  3.679257  0  0  -0.372078  -0.315148  0  3.65684  0
N  N73  1  0.70514038  0.85837333  0.47145027  1  0  -0.411927  0  3.35913  0  0  -0.329254  0  3.666168  0  0  -0.350225  0  3.679266  0  0  -0.372087  -0.315136  0  3.65685  0
O  O74  1  0.24235846  0.99235915  0.21888282  1  0  -0.536983  0  1.970709  0  0  -0.504597  0  2.192127  0  0  -0.524869  0  2.184508  0  0  -0.301195  -0.490109  0  2.197271  0
O  O75  1  0.75764006  0.00764184  0.78111376  1  0  -0.536989  0  1.970704  0  0  -0.504587  0  2.192118  0  0  -0.524867  0  2.184513  0  0  -0.301201  -0.4901  0  2.197261  0
O  O76  1  0.01721737  0.97753428  0.24793590  1  0  -0.589829  0  2.077158  0  0  -0.533901  0  2.349226  0  0  -0.560115  0  2.335023  0  0  -0.321615  -0.515335  0  2.358865  0
O  O77  1  0.98278217  0.02246469  0.75206410  1  0  -0.589836  0  2.077247  0  0  -0.533902  0  2.349299  0  0  -0.560115  0  2.335094  0  0  -0.32161  -0.515334  0  2.358938  0
O  O78  1  0.97436500  0.18624187  0.40215350  1  0  -0.591689  0  2.093984  0  0  -0.53282  0  2.371264  0  0  -0.559413  0  2.358004  0  0  -0.323531  -0.514183  0  2.37968  0
O  O79  1  0.02563567  0.81375912  0.59784796  1  0  -0.591704  0  2.093628  0  0  -0.532852  0  2.371068  0  0  -0.559445  0  2.357804  0  0  -0.323535  -0.514212  0  2.379487  0
O  O80  1  0.14939531  0.38204693  0.56676135  1  0  -0.522486  0  1.976046  0  0  -0.500172  0  2.203214  0  0  -0.518801  0  2.195389  0  0  -0.300393  -0.487222  0  2.208045  0
O  O81  1  0.85061029  0.61795710  0.43324098  1  0  -0.522451  0  1.976363  0  0  -0.500001  0  2.203503  0  0  -0.51863  0  2.195679  0  0  -0.300276  -0.487051  0  2.208334  0
F  F82  1  0.81031437  0.18070429  0.57325568  1  0  -0.257277  0  1.181364  0  0  -0.212508  0  1.348807  0  0  -0.22422  0  1.335789  0  0  -0.098532  -0.203848  0  1.357904  0
F  F83  1  0.18968790  0.81929568  0.42674518  1  0  -0.257339  0  1.18122  0  0  -0.21251  0  1.348805  0  0  -0.22422  0  1.335781  0  0  -0.098535  -0.203849  0  1.3579  0
F  F84  1  0.73440287  0.25398657  0.41141560  1  0  -0.247706  0  1.162005  0  0  -0.201996  0  1.318764  0  0  -0.215914  0  1.308963  0  0  -0.096622  -0.194949  0  1.329138  0
F  F85  1  0.26559781  0.74601442  0.58858586  1  0  -0.247942  0  1.16192  0  0  -0.20199  0  1.318735  0  0  -0.215933  0  1.308953  0  0  -0.096597  -0.194945  0  1.329108  0
F  F86  1  0.09487627  0.71594087  0.13068962  1  0  -0.231039  0  1.172396  0  0  -0.202321  0  1.338723  0  0  -0.211331  0  1.3235  0  0  -0.097899  -0.195628  0  1.3493  0
F  F87  1  0.90512497  0.28406114  0.86931042  1  0  -0.231061  0  1.172361  0  0  -0.202349  0  1.338679  0  0  -0.211354  0  1.323461  0  0  -0.097901  -0.195648  0  1.349253  0
F  F88  1  0.87905491  0.70569037  0.15831452  1  0  -0.254321  0  1.181101  0  0  -0.212027  0  1.34609  0  0  -0.221313  0  1.330211  0  0  -0.099657  -0.205387  0  1.357393  0
F  F89  1  0.12094520  0.29430961  0.84168578  1  0  -0.25434  0  1.181031  0  0  -0.212079  0  1.346047  0  0  -0.221363  0  1.330172  0  0  -0.099693  -0.205445  0  1.357357  0
F  F90  1  0.89739094  0.39883988  0.60306263  1  0  -0.242009  0  1.195431  0  0  -0.198542  0  1.358295  0  0  -0.208055  0  1.34198  0  0  -0.088868  -0.191291  0  1.369468  0
F  F91  1  0.10261133  0.60116010  0.39693737  1  0  -0.242064  0  1.195191  0  0  -0.198597  0  1.358233  0  0  -0.208108  0  1.341913  0  0  -0.088894  -0.191345  0  1.369402  0
F  F92  1  0.92680932  0.76667779  0.99742433  1  0  -0.254688  0  1.139881  0  0  -0.211625  0  1.292313  0  0  -0.221093  0  1.277215  0  0  -0.106499  -0.204573  0  1.302586  0
F  F93  1  0.07319187  0.23332219  0.00257539  1  0  -0.254729  0  1.139846  0  0  -0.21168  0  1.292274  0  0  -0.221146  0  1.277178  0  0  -0.106531  -0.204629  0  1.302546  0
