# generated using pymatgen
data_ZnH22C26S2N14(ClO)2
_symmetry_space_group_name_H-M   'P 1'
_cell_length_a   10.37202735
_cell_length_b   11.50944073
_cell_length_c   13.20167041
_cell_angle_alpha   90.00004445
_cell_angle_beta   90.00001203
_cell_angle_gamma   100.59729536
_symmetry_Int_Tables_number   1
_chemical_formula_structural   ZnH22C26S2N14(ClO)2
_chemical_formula_sum   'Zn2 H44 C52 S4 N28 Cl4 O4'
_cell_volume   1549.08607507
_cell_formula_units_Z   2
loop_
 _symmetry_equiv_pos_site_id
 _symmetry_equiv_pos_as_xyz
  1  'x, y, z'
loop_
 _atom_site_type_symbol
 _atom_site_label
 _atom_site_symmetry_multiplicity
 _atom_site_fract_x
 _atom_site_fract_y
 _atom_site_fract_z
 _atom_site_occupancy
 _atom_site_hle17_bader_spin_density
 _atom_site_hle17_ddec_charge
 _atom_site_hle17_ddec_spin_density
 _atom_site_hle17_ddec_sum_bond_order
 _atom_site_hle17_magmom
 _atom_site_hse06_10hf_bader_spin_density
 _atom_site_hse06_10hf_ddec_charge
 _atom_site_hse06_10hf_ddec_spin_density
 _atom_site_hse06_10hf_ddec_sum_bond_order
 _atom_site_hse06_10hf_magmom
 _atom_site_hse06_bader_spin_density
 _atom_site_hse06_ddec_charge
 _atom_site_hse06_ddec_spin_density
 _atom_site_hse06_ddec_sum_bond_order
 _atom_site_hse06_magmom
 _atom_site_pbe_bader_spin_density
 _atom_site_pbe_cm5_charge
 _atom_site_pbe_ddec_charge
 _atom_site_pbe_ddec_spin_density
 _atom_site_pbe_ddec_sum_bond_order
 _atom_site_pbe_magmom
Zn  Zn0  1  0.49999822  0.00000019  0.99999849  1  0  0.950018  0  2.056262  0  0  0.770695  0  2.509631  0  0  0.810906  0  2.467418  0  0  0.709319  0.742795  0  2.537877  0
Zn  Zn1  1  0.99999819  0.00000055  0.50000120  1  0  0.949997  0  2.056266  0  0  0.770662  0  2.509626  0  0  0.810872  0  2.467414  0  0  0.709311  0.742761  0  2.53788  0
H  H2  1  0.61909322  0.16485031  0.20627097  1  0  0.109054  0  0.968924  0  0  0.10884  0  1.048561  0  0  0.11239  0  1.044113  0  0  0.134645  0.106011  0  1.052015  0
H  H3  1  0.88090529  0.83514838  0.70627007  1  0  0.109065  0  0.968884  0  0  0.108864  0  1.04852  0  0  0.11241  0  1.044066  0  0  0.134666  0.106035  0  1.05198  0
H  H4  1  0.38090752  0.83514959  0.79372866  1  0  0.10907  0  0.968945  0  0  0.108851  0  1.04859  0  0  0.112399  0  1.04414  0  0  0.134648  0.10602  0  1.052045  0
H  H5  1  0.11909370  0.16485241  0.29373032  1  0  0.109071  0  0.968929  0  0  0.108846  0  1.048588  0  0  0.112396  0  1.044137  0  0  0.134653  0.106017  0  1.05204  0
H  H6  1  0.24421830  0.13307910  0.07451942  1  0  0.086131  0  0.949959  0  0  0.094273  0  1.01622  0  0  0.096034  0  1.014405  0  0  0.128119  0.09293  0  1.017601  0
H  H7  1  0.25578070  0.86692181  0.57452231  1  0  0.086164  0  0.94996  0  0  0.094303  0  1.016217  0  0  0.096059  0  1.014414  0  0  0.128141  0.092961  0  1.0176  0
H  H8  1  0.75577991  0.86692258  0.92547945  1  0  0.086148  0  0.949972  0  0  0.094281  0  1.016243  0  0  0.096034  0  1.014449  0  0  0.128128  0.092939  0  1.017626  0
H  H9  1  0.74421962  0.13308074  0.42547808  1  0  0.086216  0  0.949957  0  0  0.094357  0  1.016208  0  0  0.096112  0  1.014407  0  0  0.12817  0.093014  0  1.017585  0
H  H10  1  0.57670539  0.26612249  0.36626818  1  0  0.104108  0  0.916606  0  0  0.117466  0  0.980025  0  0  0.118856  0  0.978684  0  0  0.122752  0.116445  0  0.980971  0
H  H11  1  0.92329357  0.73387812  0.86626873  1  0  0.104145  0  0.91657  0  0  0.117458  0  0.980016  0  0  0.118847  0  0.978676  0  0  0.122742  0.116437  0  0.980961  0
H  H12  1  0.42329650  0.73387829  0.63373145  1  0  0.104133  0  0.916635  0  0  0.117484  0  0.980072  0  0  0.118871  0  0.978736  0  0  0.122744  0.116463  0  0.981019  0
H  H13  1  0.07670795  0.26612090  0.13373090  1  0  0.104183  0  0.916454  0  0  0.117488  0  0.979934  0  0  0.118879  0  0.978592  0  0  0.122752  0.116468  0  0.980877  0
H  H14  1  0.41521162  0.20471424  0.40938314  1  0  0.085821  0  0.925987  0  0  0.096916  0  0.995611  0  0  0.097233  0  0.995484  0  0  0.109815  0.096629  0  0.995651  0
H  H15  1  0.08478736  0.79528611  0.90938444  1  0  0.085834  0  0.925981  0  0  0.096918  0  0.995601  0  0  0.097239  0  0.995468  0  0  0.109814  0.096635  0  0.99564  0
H  H16  1  0.58478930  0.79528655  0.59061648  1  0  0.085836  0  0.92596  0  0  0.096944  0  0.995583  0  0  0.097266  0  0.995453  0  0  0.109822  0.096661  0  0.995621  0
H  H17  1  0.91521145  0.20471379  0.09061595  1  0  0.085849  0  0.925994  0  0  0.096937  0  0.995621  0  0  0.097266  0  0.99548  0  0  0.109817  0.096653  0  0.995657  0
H  H18  1  0.98767596  0.71744456  0.43059053  1  0  0.094112  0  0.939975  0  0  0.098668  0  1.010718  0  0  0.100953  0  1.008081  0  0  0.130763  0.097127  0  1.012209  0
H  H19  1  0.51232262  0.28255877  0.93059525  1  0  0.094064  0  0.939963  0  0  0.098651  0  1.01068  0  0  0.100937  0  1.008041  0  0  0.130752  0.097104  0  1.012171  0
H  H20  1  0.01232341  0.28255800  0.56941137  1  0  0.094032  0  0.940017  0  0  0.098615  0  1.010754  0  0  0.1009  0  1.008116  0  0  0.130724  0.097073  0  1.012245  0
H  H21  1  0.48767638  0.71744202  0.06940438  1  0  0.094084  0  0.939969  0  0  0.09866  0  1.010691  0  0  0.100946  0  1.008051  0  0  0.130763  0.097114  0  1.012184  0
H  H22  1  0.69558741  0.92177268  0.38524025  1  0  0.111048  0  0.927742  0  0  0.122084  0  0.991167  0  0  0.124241  0  0.988304  0  0  0.141659  0.120304  0  0.99345  0
H  H23  1  0.80440945  0.07822707  0.88524337  1  0  0.111024  0  0.927801  0  0  0.122047  0  0.991251  0  0  0.124201  0  0.988392  0  0  0.141655  0.120289  0  0.993507  0
H  H24  1  0.30440966  0.07822811  0.61475862  1  0  0.111068  0  0.927729  0  0  0.122002  0  0.991289  0  0  0.124154  0  0.988431  0  0  0.141608  0.120248  0  0.993526  0
H  H25  1  0.19559015  0.92177195  0.11475778  1  0  0.111119  0  0.927698  0  0  0.122054  0  0.991242  0  0  0.124208  0  0.988383  0  0  0.141632  0.120299  0  0.993492  0
H  H26  1  0.54264684  0.77629688  0.27312256  1  0  0.102198  0  0.939726  0  0  0.116329  0  1.003838  0  0  0.117143  0  1.003776  0  0  0.114334  0.115706  0  1.003919  0
H  H27  1  0.95735285  0.22370276  0.77312656  1  0  0.102231  0  0.939775  0  0  0.116377  0  1.003851  0  0  0.117189  0  1.003791  0  0  0.11436  0.115759  0  1.003935  0
H  H28  1  0.45735486  0.22370302  0.72687631  1  0  0.102194  0  0.939781  0  0  0.116335  0  1.003872  0  0  0.117148  0  1.003813  0  0  0.114344  0.115714  0  1.003953  0
H  H29  1  0.04264675  0.77629626  0.22687383  1  0  0.102185  0  0.939758  0  0  0.116315  0  1.003854  0  0  0.117129  0  1.003794  0  0  0.114334  0.115697  0  1.003936  0
H  H30  1  0.62431561  0.67475473  0.20827695  1  0  0.090889  0  0.931115  0  0  0.100631  0  1.003171  0  0  0.102002  0  1.001717  0  0  0.112532  0.099619  0  1.004341  0
H  H31  1  0.87568254  0.32524220  0.70828024  1  0  0.090893  0  0.931154  0  0  0.100646  0  1.003166  0  0  0.102014  0  1.001714  0  0  0.11252  0.099641  0  1.004329  0
H  H32  1  0.37568513  0.32524517  0.79172268  1  0  0.09091  0  0.931087  0  0  0.10065  0  1.00314  0  0  0.10203  0  1.001677  0  0  0.112546  0.099639  0  1.004307  0
H  H33  1  0.12431669  0.67475506  0.29172014  1  0  0.090911  0  0.931133  0  0  0.100646  0  1.003164  0  0  0.102028  0  1.0017  0  0  0.112537  0.099642  0  1.004328  0
H  H34  1  0.25537704  0.33323895  0.43669639  1  0  0.108005  0  0.954351  0  0  0.117591  0  1.019299  0  0  0.11996  0  1.018401  0  0  0.102124  0.115888  0  1.019912  0
H  H35  1  0.24462196  0.66676143  0.93669610  1  0  0.107998  0  0.954348  0  0  0.117594  0  1.019292  0  0  0.119962  0  1.018396  0  0  0.102133  0.115897  0  1.019907  0
H  H36  1  0.74462256  0.66676007  0.56330476  1  0  0.108017  0  0.954339  0  0  0.11761  0  1.019276  0  0  0.119979  0  1.018377  0  0  0.102144  0.115909  0  1.019894  0
H  H37  1  0.75537920  0.33323582  0.06330428  1  0  0.108009  0  0.954322  0  0  0.117607  0  1.019258  0  0  0.119977  0  1.018359  0  0  0.102131  0.115907  0  1.019871  0
H  H38  1  0.36996853  0.70806119  0.38499094  1  0  0.097333  0  1.000591  0  0  0.10222  0  1.07505  0  0  0.105383  0  1.07329  0  0  0.086647  0.100041  0  1.076178  0
H  H39  1  0.13003063  0.29194002  0.88499342  1  0  0.09732  0  1.000586  0  0  0.102206  0  1.075047  0  0  0.105368  0  1.073289  0  0  0.086623  0.100026  0  1.076176  0
H  H40  1  0.63003047  0.29193960  0.61500868  1  0  0.097336  0  1.000593  0  0  0.102223  0  1.07505  0  0  0.105386  0  1.07329  0  0  0.086639  0.100044  0  1.076173  0
H  H41  1  0.86996897  0.70805900  0.11500772  1  0  0.097339  0  1.000612  0  0  0.102224  0  1.075069  0  0  0.105387  0  1.073307  0  0  0.086622  0.100048  0  1.076199  0
H  H42  1  0.72249109  0.53244635  0.30400571  1  0  0.359496  0  0.913536  0  0  0.325478  0  1.007916  0  0  0.336368  0  0.995455  0  0  0.299803  0.317946  0  1.016316  0
H  H43  1  0.77750729  0.46755155  0.80400832  1  0  0.359482  0  0.913518  0  0  0.325463  0  1.007917  0  0  0.336353  0  0.995457  0  0  0.29977  0.317928  0  1.016324  0
H  H44  1  0.27750905  0.46755532  0.69599468  1  0  0.35951  0  0.913547  0  0  0.325497  0  1.007922  0  0  0.336389  0  0.995454  0  0  0.299812  0.317963  0  1.016328  0
H  H45  1  0.22249423  0.53244747  0.19599131  1  0  0.359467  0  0.913538  0  0  0.325451  0  1.007936  0  0  0.336342  0  0.99547  0  0  0.299766  0.317918  0  1.016335  0
C  C46  1  0.51682516  0.16826053  0.19082140  1  0  0.183888  0  3.621226  0  0  0.107794  0  3.88767  0  0  0.122517  0  3.897258  0  0  0.162203  0.098858  0  3.880641  0
C  C47  1  0.98317256  0.83173903  0.69082203  1  0  0.18397  0  3.621286  0  0  0.107882  0  3.887768  0  0  0.122621  0  3.897345  0  0  0.162224  0.098949  0  3.88074  0
C  C48  1  0.48317383  0.83174026  0.80917898  1  0  0.183804  0  3.621237  0  0  0.107747  0  3.887703  0  0  0.122472  0  3.89729  0  0  0.162182  0.098816  0  3.880671  0
C  C49  1  0.01682740  0.16826176  0.30917987  1  0  0.183975  0  3.621267  0  0  0.107903  0  3.887741  0  0  0.122636  0  3.897321  0  0  0.162262  0.098972  0  3.880707  0
C  C50  1  0.32573881  0.15333358  0.12713096  1  0  0.180161  0  3.741185  0  0  0.127026  0  4.034098  0  0  0.137563  0  4.047958  0  0  0.13542  0.120146  0  4.024764  0
C  C51  1  0.17426022  0.84666738  0.62713230  1  0  0.180089  0  3.741283  0  0  0.126962  0  4.034211  0  0  0.137501  0  4.048067  0  0  0.135387  0.120085  0  4.024875  0
C  C52  1  0.67426133  0.84666809  0.87286867  1  0  0.180109  0  3.741245  0  0  0.126981  0  4.034183  0  0  0.137516  0  4.048041  0  0  0.135413  0.120107  0  4.024848  0
C  C53  1  0.82573914  0.15333518  0.37286960  1  0  0.180084  0  3.74124  0  0  0.126962  0  4.034168  0  0  0.137502  0  4.048023  0  0  0.135397  0.120089  0  4.024826  0
C  C54  1  0.47192906  0.26617846  0.35512791  1  0  -0.03354  0  3.643464  0  0  -0.113057  0  3.893133  0  0  -0.107491  0  3.902068  0  0  -0.041651  -0.116337  0  3.886777  0
C  C55  1  0.02806875  0.73382096  0.85512765  1  0  -0.03365  0  3.643519  0  0  -0.113077  0  3.893155  0  0  -0.107511  0  3.90209  0  0  -0.041657  -0.116356  0  3.8868  0
C  C56  1  0.52807150  0.73382056  0.64487171  1  0  -0.033678  0  3.643591  0  0  -0.113236  0  3.893378  0  0  -0.10768  0  3.902319  0  0  -0.0417  -0.116515  0  3.887021  0
C  C57  1  0.97193144  0.26617629  0.14487198  1  0  -0.033688  0  3.643371  0  0  -0.113154  0  3.893064  0  0  -0.107595  0  3.901994  0  0  -0.041656  -0.116432  0  3.886704  0
C  C58  1  0.89871529  0.74574154  0.40580579  1  0  0.211242  0  3.697873  0  0  0.153393  0  3.995304  0  0  0.165373  0  4.00643  0  0  0.15185  0.145822  0  3.98711  0
C  C59  1  0.60129139  0.25425909  0.90580596  1  0  0.2113  0  3.698041  0  0  0.153454  0  3.995467  0  0  0.165437  0  4.006593  0  0  0.151886  0.145898  0  3.987254  0
C  C60  1  0.10128292  0.25426014  0.59419536  1  0  0.211293  0  3.69785  0  0  0.153435  0  3.995289  0  0  0.165416  0  4.006416  0  0  0.151848  0.14587  0  3.98709  0
C  C61  1  0.39870857  0.74574169  0.09419291  1  0  0.21121  0  3.698169  0  0  0.153393  0  3.995609  0  0  0.165378  0  4.006733  0  0  0.15185  0.145835  0  3.9874  0
C  C62  1  0.75277227  0.85182905  0.38456153  1  0  0.183416  0  3.627417  0  0  0.103633  0  3.896114  0  0  0.117616  0  3.908083  0  0  0.169875  0.09509  0  3.887662  0
C  C63  1  0.74722826  0.14816980  0.88456241  1  0  0.183405  0  3.627232  0  0  0.103631  0  3.895936  0  0  0.117619  0  3.907906  0  0  0.169828  0.095069  0  3.887482  0
C  C64  1  0.24722691  0.14817262  0.61543961  1  0  0.183285  0  3.627356  0  0  0.103596  0  3.89611  0  0  0.11758  0  3.908083  0  0  0.169829  0.095043  0  3.887647  0
C  C65  1  0.25277097  0.85182745  0.11543722  1  0  0.183256  0  3.627191  0  0  0.103569  0  3.895937  0  0  0.117553  0  3.907909  0  0  0.169814  0.095007  0  3.887488  0
C  C66  1  0.59409270  0.70204712  0.28315688  1  0  -0.048445  0  3.661985  0  0  -0.125565  0  3.907807  0  0  -0.120791  0  3.917691  0  0  -0.045339  -0.128551  0  3.901002  0
C  C67  1  0.90590778  0.29795164  0.78315864  1  0  -0.048564  0  3.662189  0  0  -0.125707  0  3.908019  0  0  -0.12093  0  3.917905  0  0  -0.04539  -0.128701  0  3.901229  0
C  C68  1  0.40590804  0.29795278  0.71684351  1  0  -0.048487  0  3.661974  0  0  -0.12558  0  3.907773  0  0  -0.12081  0  3.917656  0  0  -0.045333  -0.128565  0  3.900968  0
C  C69  1  0.09409278  0.70204738  0.21684175  1  0  -0.048484  0  3.662146  0  0  -0.125555  0  3.907905  0  0  -0.120788  0  3.917788  0  0  -0.045355  -0.128547  0  3.901113  0
C  C70  1  0.50689437  0.60036968  0.33505027  1  0  -0.041547  0  3.759627  0  0  -0.026051  0  4.010215  0  0  -0.031448  0  4.034813  0  0  -0.030892  -0.022401  0  3.993509  0
C  C71  1  0.99310403  0.39962825  0.83505287  1  0  -0.041542  0  3.759715  0  0  -0.026019  0  4.010238  0  0  -0.031417  0  4.034835  0  0  -0.030867  -0.022373  0  3.993546  0
C  C72  1  0.49310637  0.39963022  0.66494860  1  0  -0.041505  0  3.759631  0  0  -0.026008  0  4.010187  0  0  -0.031408  0  4.034789  0  0  -0.030892  -0.022358  0  3.993482  0
C  C73  1  0.00689575  0.60037166  0.16494827  1  0  -0.041569  0  3.759741  0  0  -0.026071  0  4.010294  0  0  -0.031469  0  4.034894  0  0  -0.030887  -0.022427  0  3.993602  0
C  C74  1  0.53651532  0.48585069  0.33129995  1  0  0.250442  0  3.772022  0  0  0.229936  0  4.036453  0  0  0.241261  0  4.052119  0  0  0.083138  0.222134  0  4.025659  0
C  C75  1  0.96348403  0.51414724  0.83129960  1  0  0.250473  0  3.771935  0  0  0.229973  0  4.036331  0  0  0.241304  0  4.051989  0  0  0.083163  0.222173  0  4.025537  0
C  C76  1  0.46348657  0.51415010  0.66870044  1  0  0.250368  0  3.772061  0  0  0.229888  0  4.036431  0  0  0.241216  0  4.052095  0  0  0.083147  0.22209  0  4.025636  0
C  C77  1  0.03651731  0.48585089  0.16870003  1  0  0.250513  0  3.771919  0  0  0.230007  0  4.036349  0  0  0.241334  0  4.052009  0  0  0.083193  0.222205  0  4.025558  0
C  C78  1  0.44383628  0.38906246  0.36646213  1  0  -0.01404  0  3.72233  0  0  0.002593  0  3.97056  0  0  -0.002307  0  3.993945  0  0  -0.020732  0.005749  0  3.954726  0
C  C79  1  0.05616347  0.61093696  0.86646253  1  0  -0.014015  0  3.722291  0  0  0.002609  0  3.970495  0  0  -0.00229  0  3.993879  0  0  -0.020757  0.005767  0  3.954665  0
C  C80  1  0.55616561  0.61093832  0.63353826  1  0  -0.013948  0  3.72247  0  0  0.002719  0  3.970644  0  0  -0.002184  0  3.994034  0  0  -0.020739  0.00587  0  3.954821  0
C  C81  1  0.94383612  0.38906206  0.13353709  1  0  -0.014051  0  3.722308  0  0  0.002584  0  3.970524  0  0  -0.002315  0  3.993908  0  0  -0.020765  0.005742  0  3.954691  0
C  C82  1  0.32732396  0.40829160  0.41042626  1  0  -0.133487  0  3.723375  0  0  -0.172235  0  3.986095  0  0  -0.171363  0  4.004657  0  0  -0.092191  -0.172533  0  3.973473  0
C  C83  1  0.17267424  0.59170964  0.91042591  1  0  -0.133489  0  3.723356  0  0  -0.172251  0  3.986104  0  0  -0.171383  0  4.004669  0  0  -0.092202  -0.17256  0  3.973491  0
C  C84  1  0.67267618  0.59171007  0.58957413  1  0  -0.133522  0  3.723492  0  0  -0.172279  0  3.986204  0  0  -0.171409  0  4.004769  0  0  -0.092224  -0.172582  0  3.973593  0
C  C85  1  0.82732535  0.40828938  0.08957372  1  0  -0.13348  0  3.72341  0  0  -0.172231  0  3.986132  0  0  -0.171359  0  4.004699  0  0  -0.092203  -0.172537  0  3.973511  0
C  C86  1  0.30302103  0.52301531  0.41987434  1  0  0.130362  0  3.812209  0  0  0.140202  0  4.084925  0  0  0.141589  0  4.105874  0  0  -0.002296  0.138846  0  4.071304  0
C  C87  1  0.19697832  0.47698681  0.91987468  1  0  0.130385  0  3.812091  0  0  0.140213  0  4.084836  0  0  0.141603  0  4.105782  0  0  -0.002303  0.13887  0  4.0712  0
C  C88  1  0.69697911  0.47698636  0.58012680  1  0  0.130345  0  3.812251  0  0  0.140181  0  4.084971  0  0  0.141568  0  4.105922  0  0  -0.002308  0.138834  0  4.071341  0
C  C89  1  0.80302278  0.52301486  0.08012571  1  0  0.130408  0  3.812156  0  0  0.140237  0  4.084889  0  0  0.141616  0  4.10585  0  0  -0.002296  0.138894  0  4.071253  0
C  C90  1  0.39119323  0.61858284  0.38143303  1  0  -0.159358  0  3.767187  0  0  -0.191789  0  4.021762  0  0  -0.192336  0  4.041541  0  0  -0.104125  -0.1913  0  4.008459  0
C  C91  1  0.10880689  0.38141837  0.88143329  1  0  -0.159372  0  3.767129  0  0  -0.191805  0  4.021688  0  0  -0.192355  0  4.04147  0  0  -0.104117  -0.191309  0  4.008377  0
C  C92  1  0.60880788  0.38141883  0.61856660  1  0  -0.159388  0  3.767228  0  0  -0.191824  0  4.021791  0  0  -0.192371  0  4.041571  0  0  -0.104111  -0.191332  0  4.008478  0
C  C93  1  0.89119445  0.61857976  0.11856709  1  0  -0.159387  0  3.767363  0  0  -0.191813  0  4.021925  0  0  -0.192356  0  4.041706  0  0  -0.104086  -0.191325  0  4.00862  0
C  C94  1  0.76564171  0.95665781  0.11361252  1  0  0.283312  0  4.0645  0  0  0.268111  0  4.367288  0  0  0.290128  0  4.379842  0  0  0.1249  0.253371  0  4.35813  0
C  C95  1  0.73435393  0.04333638  0.61361863  1  0  0.283214  0  4.064588  0  0  0.268006  0  4.367387  0  0  0.290022  0  4.37994  0  0  0.124843  0.25327  0  4.358229  0
C  C96  1  0.23435963  0.04334033  0.88638180  1  0  0.283228  0  4.064663  0  0  0.26803  0  4.367443  0  0  0.290046  0  4.379994  0  0  0.124848  0.253299  0  4.358274  0
C  C97  1  0.26564549  0.95666176  0.38638554  1  0  0.283226  0  4.064634  0  0  0.268022  0  4.367425  0  0  0.290038  0  4.379981  0  0  0.124808  0.253279  0  4.358276  0
S  S98  1  0.91329381  0.93948807  0.14130372  1  0  -0.39256  0  2.031087  0  0  -0.380853  0  2.329258  0  0  -0.395134  0  2.325461  0  0  -0.196093  -0.371037  0  2.331605  0
S  S99  1  0.58669702  0.06050615  0.64130830  1  0  -0.392597  0  2.030928  0  0  -0.380875  0  2.329083  0  0  -0.395154  0  2.325283  0  0  -0.196136  -0.371065  0  2.331427  0
S  S100  1  0.08670235  0.06050830  0.85869288  1  0  -0.392599  0  2.030935  0  0  -0.380892  0  2.329098  0  0  -0.395168  0  2.325288  0  0  -0.196117  -0.371082  0  2.331444  0
S  S101  1  0.41329758  0.93949200  0.35869360  1  0  -0.392566  0  2.031087  0  0  -0.38086  0  2.329251  0  0  -0.395135  0  2.325441  0  0  -0.196081  -0.371042  0  2.3316  0
N  N102  1  0.44651972  0.12611473  0.10945138  1  0  -0.403614  0  3.222102  0  0  -0.33403  0  3.512503  0  0  -0.35478  0  3.526843  0  0  -0.340338  -0.320107  0  3.502039  0
N  N103  1  0.05347797  0.87388445  0.60945121  1  0  -0.403651  0  3.222235  0  0  -0.334076  0  3.512656  0  0  -0.354824  0  3.526986  0  0  -0.340327  -0.320152  0  3.502193  0
N  N104  1  0.55348006  0.87388517  0.89054977  1  0  -0.403576  0  3.222115  0  0  -0.333995  0  3.512503  0  0  -0.354751  0  3.52685  0  0  -0.340325  -0.320075  0  3.502041  0
N  N105  1  0.94652102  0.12611634  0.39054994  1  0  -0.403611  0  3.222062  0  0  -0.334043  0  3.512485  0  0  -0.354795  0  3.526821  0  0  -0.34033  -0.32012  0  3.502017  0
N  N106  1  0.44049603  0.21810658  0.25341652  1  0  0.04866  0  3.546648  0  0  0.168205  0  3.731373  0  0  0.157328  0  3.754977  0  0  -0.12912  0.17405  0  3.717286  0
N  N107  1  0.05950288  0.78189362  0.75341705  1  0  0.048689  0  3.546746  0  0  0.168155  0  3.731528  0  0  0.157261  0  3.75516  0  0  -0.129105  0.174003  0  3.717437  0
N  N108  1  0.55950490  0.78189420  0.74658311  1  0  0.048805  0  3.546517  0  0  0.168285  0  3.731347  0  0  0.157426  0  3.754918  0  0  -0.129062  0.174135  0  3.717252  0
N  N109  1  0.94049671  0.21810540  0.24658258  1  0  0.048665  0  3.546816  0  0  0.168172  0  3.731577  0  0  0.157285  0  3.755199  0  0  -0.129146  0.174015  0  3.71749  0
N  N110  1  0.31746334  0.20846959  0.21455931  1  0  -0.268718  0  2.880091  0  0  -0.265312  0  3.148687  0  0  -0.27338  0  3.162458  0  0  -0.21957  -0.259584  0  3.139593  0
N  N111  1  0.18253592  0.79153234  0.71456062  1  0  -0.268713  0  2.880083  0  0  -0.265292  0  3.148713  0  0  -0.273358  0  3.162482  0  0  -0.219589  -0.259565  0  3.139619  0
N  N112  1  0.68253699  0.79153297  0.78544108  1  0  -0.268746  0  2.88009  0  0  -0.26532  0  3.148715  0  0  -0.27339  0  3.162485  0  0  -0.219604  -0.259594  0  3.139623  0
N  N113  1  0.81746386  0.20846756  0.28543901  1  0  -0.268769  0  2.880127  0  0  -0.265375  0  3.148773  0  0  -0.273441  0  3.162542  0  0  -0.219624  -0.259649  0  3.139682  0
N  N114  1  0.86986069  0.85369210  0.42729553  1  0  -0.386245  0  3.232583  0  0  -0.318896  0  3.529231  0  0  -0.339364  0  3.543252  0  0  -0.332206  -0.305064  0  3.519149  0
N  N115  1  0.63013866  0.14631034  0.92729942  1  0  -0.386226  0  3.232387  0  0  -0.318896  0  3.529045  0  0  -0.339363  0  3.543061  0  0  -0.332169  -0.305069  0  3.518969  0
N  N116  1  0.13013849  0.14630957  0.57270486  1  0  -0.386152  0  3.232476  0  0  -0.318809  0  3.529095  0  0  -0.339279  0  3.54312  0  0  -0.332114  -0.304981  0  3.519016  0
N  N117  1  0.36985997  0.85368868  0.07270097  1  0  -0.386102  0  3.232444  0  0  -0.318817  0  3.529108  0  0  -0.339285  0  3.543126  0  0  -0.332129  -0.304994  0  3.519039  0
N  N118  1  0.80578554  0.67774501  0.35187092  1  0  -0.285933  0  2.946113  0  0  -0.267393  0  3.208849  0  0  -0.277229  0  3.222928  0  0  -0.211359  -0.260543  0  3.199285  0
N  N119  1  0.69421209  0.32225382  0.85187418  1  0  -0.285908  0  2.946248  0  0  -0.267417  0  3.209042  0  0  -0.277254  0  3.223119  0  0  -0.211372  -0.260573  0  3.199477  0
N  N120  1  0.19421461  0.32225666  0.64813023  1  0  -0.285988  0  2.946067  0  0  -0.267442  0  3.208858  0  0  -0.277279  0  3.222938  0  0  -0.211362  -0.260594  0  3.199298  0
N  N121  1  0.30578769  0.67774608  0.14812469  1  0  -0.285896  0  2.946216  0  0  -0.267399  0  3.209017  0  0  -0.277235  0  3.223094  0  0  -0.211361  -0.260549  0  3.199445  0
N  N122  1  0.71405822  0.74695837  0.33927707  1  0  0.049844  0  3.568361  0  0  0.167434  0  3.755518  0  0  0.156003  0  3.781157  0  0  -0.131914  0.173625  0  3.740248  0
N  N123  1  0.78594302  0.25304398  0.83927955  1  0  0.049854  0  3.568319  0  0  0.167469  0  3.755451  0  0  0.156035  0  3.781091  0  0  -0.13191  0.173656  0  3.7402  0
N  N124  1  0.28594307  0.25304418  0.66072256  1  0  0.050008  0  3.568293  0  0  0.167509  0  3.755549  0  0  0.156076  0  3.781193  0  0  -0.131879  0.173686  0  3.740308  0
N  N125  1  0.21405869  0.74695592  0.16072160  1  0  0.049859  0  3.568345  0  0  0.167437  0  3.755497  0  0  0.156003  0  3.781142  0  0  -0.131908  0.173624  0  3.740245  0
N  N126  1  0.65741304  0.96952834  0.09333327  1  0  -0.562308  0  2.913934  0  0  -0.505227  0  3.192982  0  0  -0.524717  0  3.198252  0  0  -0.402589  -0.491927  0  3.189077  0
N  N127  1  0.84257312  0.03046673  0.59333787  1  0  -0.562162  0  2.914128  0  0  -0.505071  0  3.193161  0  0  -0.524561  0  3.198431  0  0  -0.402495  -0.491782  0  3.189269  0
N  N128  1  0.34257903  0.03047158  0.90666182  1  0  -0.562169  0  2.914229  0  0  -0.505084  0  3.193265  0  0  -0.524574  0  3.198535  0  0  -0.402507  -0.491792  0  3.189361  0
N  N129  1  0.15742340  0.96953141  0.40666630  1  0  -0.562206  0  2.91402  0  0  -0.505115  0  3.193055  0  0  -0.524606  0  3.198326  0  0  -0.402508  -0.491821  0  3.189158  0
Cl  Cl130  1  0.15856506  0.54759777  0.47585816  1  0  -0.108568  0  1.356382  0  0  -0.090471  0  1.590255  0  0  -0.093531  0  1.584221  0  0  -0.01024  -0.088352  0  1.594538  0
Cl  Cl131  1  0.34143607  0.45240353  0.97585851  1  0  -0.108579  0  1.356368  0  0  -0.090476  0  1.590247  0  0  -0.093536  0  1.584209  0  0  -0.010241  -0.088361  0  1.594523  0
Cl  Cl132  1  0.84143569  0.45240214  0.52414147  1  0  -0.108551  0  1.356334  0  0  -0.090454  0  1.590208  0  0  -0.093515  0  1.584171  0  0  -0.010229  -0.088334  0  1.594486  0
Cl  Cl133  1  0.65856352  0.54759549  0.02414112  1  0  -0.10859  0  1.356337  0  0  -0.090491  0  1.590217  0  0  -0.09355  0  1.584186  0  0  -0.010246  -0.088374  0  1.594491  0
O  O134  1  0.65055728  0.46342285  0.29207764  1  0  -0.506201  0  2.164638  0  0  -0.463296  0  2.395988  0  0  -0.481528  0  2.387494  0  0  -0.354596  -0.450015  0  2.401117  0
O  O135  1  0.84944206  0.53657504  0.79207956  1  0  -0.506166  0  2.164583  0  0  -0.463265  0  2.395924  0  0  -0.481492  0  2.387417  0  0  -0.354534  -0.449986  0  2.401067  0
O  O136  1  0.34944442  0.53657705  0.70792199  1  0  -0.506169  0  2.164682  0  0  -0.463276  0  2.396018  0  0  -0.481505  0  2.387516  0  0  -0.354573  -0.449993  0  2.401148  0
O  O137  1  0.15055928  0.46342309  0.20792007  1  0  -0.506189  0  2.164665  0  0  -0.463271  0  2.395977  0  0  -0.481514  0  2.387506  0  0  -0.354566  -0.44999  0  2.401105  0
