# generated using pymatgen
data_CdH18C25S(NO)6
_symmetry_space_group_name_H-M   'P 1'
_cell_length_a   8.22318592
_cell_length_b   8.22313617
_cell_length_c   20.67883264
_cell_angle_alpha   93.27629946
_cell_angle_beta   93.27562617
_cell_angle_gamma   107.55391423
_symmetry_Int_Tables_number   1
_chemical_formula_structural   CdH18C25S(NO)6
_chemical_formula_sum   'Cd2 H36 C50 S2 N12 O12'
_cell_volume   1326.94772752
_cell_formula_units_Z   2
loop_
 _symmetry_equiv_pos_site_id
 _symmetry_equiv_pos_as_xyz
  1  'x, y, z'
loop_
 _atom_site_type_symbol
 _atom_site_label
 _atom_site_symmetry_multiplicity
 _atom_site_fract_x
 _atom_site_fract_y
 _atom_site_fract_z
 _atom_site_occupancy
 _atom_site_hle17_bader_spin_density
 _atom_site_hle17_ddec_charge
 _atom_site_hle17_ddec_spin_density
 _atom_site_hle17_ddec_sum_bond_order
 _atom_site_hle17_magmom
 _atom_site_hse06_10hf_bader_spin_density
 _atom_site_hse06_10hf_ddec_charge
 _atom_site_hse06_10hf_ddec_spin_density
 _atom_site_hse06_10hf_ddec_sum_bond_order
 _atom_site_hse06_10hf_magmom
 _atom_site_hse06_bader_spin_density
 _atom_site_hse06_ddec_charge
 _atom_site_hse06_ddec_spin_density
 _atom_site_hse06_ddec_sum_bond_order
 _atom_site_hse06_magmom
 _atom_site_pbe_bader_spin_density
 _atom_site_pbe_cm5_charge
 _atom_site_pbe_ddec_charge
 _atom_site_pbe_ddec_spin_density
 _atom_site_pbe_ddec_sum_bond_order
 _atom_site_pbe_magmom
Cd  Cd0  1  0.51520840  0.24311396  0.21896474  1  0  1.067831  0  1.661153  0  0  0.870786  0  2.099423  0  0  0.930896  0  2.050961  0  0  0.763121  0.828382  0  2.13228  0
Cd  Cd1  1  0.24311753  0.51521031  0.71896591  1  0  1.067798  0  1.661257  0  0  0.870738  0  2.099533  0  0  0.930849  0  2.051066  0  0  0.763106  0.828334  0  2.13239  0
H  H2  1  0.17946689  0.11669997  0.29364134  1  0  0.11556  0  0.977315  0  0  0.117907  0  1.044011  0  0  0.122089  0  1.040196  0  0  0.12139  0.114884  0  1.046766  0
H  H3  1  0.11670342  0.17947355  0.79364405  1  0  0.115636  0  0.977266  0  0  0.117944  0  1.044026  0  0  0.122123  0  1.040212  0  0  0.121394  0.114922  0  1.046782  0
H  H4  1  0.94415061  0.25860486  0.42484178  1  0  0.292609  0  0.890184  0  0  0.273877  0  0.954947  0  0  0.282107  0  0.947823  0  0  0.318336  0.267926  0  0.960189  0
H  H5  1  0.25861176  0.94415047  0.92483861  1  0  0.292649  0  0.890242  0  0  0.273901  0  0.955003  0  0  0.282132  0  0.947879  0  0  0.318347  0.267946  0  0.960249  0
H  H6  1  0.20578839  0.47012487  0.46017242  1  0  0.113623  0  0.914123  0  0  0.130729  0  0.960651  0  0  0.133751  0  0.958746  0  0  0.119671  0.128453  0  0.962224  0
H  H7  1  0.47013619  0.20579257  0.96017061  1  0  0.113631  0  0.914142  0  0  0.13078  0  0.960626  0  0  0.133802  0  0.958721  0  0  0.119668  0.128501  0  0.962204  0
H  H8  1  0.72790485  0.31212991  0.50939611  1  0  0.288275  0  0.896643  0  0  0.269879  0  0.963141  0  0  0.27799  0  0.95615  0  0  0.315094  0.264016  0  0.968324  0
H  H9  1  0.31212883  0.72790259  0.00939511  1  0  0.288205  0  0.896683  0  0  0.269807  0  0.963188  0  0  0.277918  0  0.956199  0  0  0.315064  0.263943  0  0.968373  0
H  H10  1  0.51039514  0.61317428  0.43987578  1  0  0.096449  0  0.964418  0  0  0.1074  0  1.025083  0  0  0.1095  0  1.02542  0  0  0.106261  0.105877  0  1.025004  0
H  H11  1  0.61319139  0.51039800  0.93987250  1  0  0.0964  0  0.964293  0  0  0.107343  0  1.024994  0  0  0.109446  0  1.025328  0  0  0.106224  0.105818  0  1.024912  0
H  H12  1  0.63471215  0.50226048  0.34422544  1  0  0.097305  0  0.926675  0  0  0.107674  0  0.985236  0  0  0.110899  0  0.982207  0  0  0.120802  0.105291  0  0.987512  0
H  H13  1  0.50226832  0.63472071  0.84422554  1  0  0.097277  0  0.926615  0  0  0.107583  0  0.985254  0  0  0.110813  0  0.982222  0  0  0.120763  0.105199  0  0.98753  0
H  H14  1  0.59152119  0.85396750  0.29040914  1  0  0.112172  0  0.974535  0  0  0.116684  0  1.045148  0  0  0.12019  0  1.043778  0  0  0.111233  0.11417  0  1.046212  0
H  H15  1  0.85396641  0.59152383  0.79041143  1  0  0.11218  0  0.97454  0  0  0.116693  0  1.045144  0  0  0.1202  0  1.043774  0  0  0.11123  0.114179  0  1.046206  0
H  H16  1  0.29243502  0.78457728  0.32555083  1  0  0.100495  0  0.959024  0  0  0.105971  0  1.025205  0  0  0.109747  0  1.02239  0  0  0.105069  0.103251  0  1.027266  0
H  H17  1  0.78457960  0.29243067  0.82555059  1  0  0.100507  0  0.958976  0  0  0.105978  0  1.025172  0  0  0.109757  0  1.022352  0  0  0.105063  0.103258  0  1.027233  0
H  H18  1  0.24571817  0.94360993  0.42850212  1  0  0.121079  0  0.927928  0  0  0.131033  0  0.981736  0  0  0.135495  0  0.978988  0  0  0.115088  0.127799  0  0.983844  0
H  H19  1  0.94361607  0.24572075  0.92850209  1  0  0.121111  0  0.927955  0  0  0.131084  0  0.981742  0  0  0.135546  0  0.978994  0  0  0.115098  0.12785  0  0.98385  0
H  H20  1  0.36050240  0.34155210  0.60173555  1  0  0.115566  0  1.001074  0  0  0.118663  0  1.068749  0  0  0.122894  0  1.064455  0  0  0.116867  0.115601  0  1.071833  0
H  H21  1  0.34154622  0.36049935  0.10173401  1  0  0.115583  0  1.001144  0  0  0.118697  0  1.068789  0  0  0.12293  0  1.064494  0  0  0.116889  0.115635  0  1.071872  0
H  H22  1  0.65581849  0.72572551  0.73626111  1  0  0.08737  0  0.940133  0  0  0.094199  0  1.007748  0  0  0.097212  0  1.004913  0  0  0.11476  0.091979  0  1.00987  0
H  H23  1  0.72571666  0.65581373  0.23625928  1  0  0.087493  0  0.940097  0  0  0.094258  0  1.00776  0  0  0.097285  0  1.00491  0  0  0.114801  0.092038  0  1.009882  0
H  H24  1  0.92580600  0.73006514  0.68332591  1  0  0.126633  0  0.96778  0  0  0.132817  0  1.029687  0  0  0.136516  0  1.028023  0  0  0.109396  0.130155  0  1.031003  0
H  H25  1  0.73007084  0.92580020  0.18332205  1  0  0.126566  0  0.967809  0  0  0.132813  0  1.029648  0  0  0.136512  0  1.027985  0  0  0.109409  0.130152  0  1.030963  0
H  H26  1  0.90698999  0.53300370  0.58583272  1  0  0.112739  0  0.921746  0  0  0.127329  0  0.973082  0  0  0.130566  0  0.970887  0  0  0.113253  0.124896  0  0.974855  0
H  H27  1  0.53300939  0.90698881  0.08582888  1  0  0.112731  0  0.921726  0  0  0.127309  0  0.973076  0  0  0.130546  0  0.970882  0  0  0.113237  0.124892  0  0.974829  0
H  H28  1  0.05549987  0.33136613  0.15236245  1  0  0.136381  0  0.931486  0  0  0.145193  0  0.994684  0  0  0.147974  0  0.992869  0  0  0.10734  0.143272  0  0.995952  0
H  H29  1  0.33137031  0.05550694  0.65236489  1  0  0.136384  0  0.931454  0  0  0.145195  0  0.994658  0  0  0.147973  0  0.992844  0  0  0.107361  0.143273  0  0.995927  0
H  H30  1  0.12023665  0.33130291  0.23619830  1  0  0.110535  0  0.960311  0  0  0.126165  0  1.021347  0  0  0.127467  0  1.021734  0  0  0.098771  0.125265  0  1.021171  0
H  H31  1  0.33130263  0.12023924  0.73620121  1  0  0.11051  0  0.960342  0  0  0.126167  0  1.02135  0  0  0.127467  0  1.021731  0  0  0.098766  0.125266  0  1.021176  0
H  H32  1  0.73649073  0.48218696  0.03378203  1  0  0.059442  0  0.936055  0  0  0.071442  0  0.996383  0  0  0.073882  0  0.99412  0  0  0.105873  0.069669  0  0.998045  0
H  H33  1  0.48219068  0.73649639  0.53378614  1  0  0.059413  0  0.936016  0  0  0.071418  0  0.996358  0  0  0.073861  0  0.994087  0  0  0.105858  0.069642  0  0.99803  0
H  H34  1  0.81831796  0.77638620  0.99179987  1  0  0.091839  0  0.947799  0  0  0.105792  0  1.001122  0  0  0.109201  0  1.000228  0  0  0.098022  0.103337  0  1.00195  0
H  H35  1  0.77638485  0.81832011  0.49180099  1  0  0.091811  0  0.947869  0  0  0.105795  0  1.001139  0  0  0.109205  0  1.000247  0  0  0.098042  0.103343  0  1.001966  0
H  H36  1  0.06297747  0.00780998  0.05356401  1  0  0.117075  0  0.934857  0  0  0.127725  0  0.99345  0  0  0.131646  0  0.989292  0  0  0.111021  0.12488  0  0.996426  0
H  H37  1  0.00780775  0.06298487  0.55356517  1  0  0.117117  0  0.934873  0  0  0.127765  0  0.993466  0  0  0.131686  0  0.989308  0  0  0.111038  0.12492  0  0.996441  0
C  C38  1  0.24624352  0.22851853  0.32620786  1  0  0.01781  0  3.657451  0  0  -0.018107  0  3.910673  0  0  -0.014261  0  3.927587  0  0  0.040248  -0.020601  0  3.899389  0
C  C39  1  0.22852357  0.24624855  0.82620902  1  0  0.01754  0  3.657514  0  0  -0.018438  0  3.910858  0  0  -0.014585  0  3.927764  0  0  0.040091  -0.020944  0  3.899585  0
C  C40  1  0.16517643  0.28451618  0.37734131  1  0  0.230031  0  3.766419  0  0  0.226445  0  4.015569  0  0  0.231239  0  4.037352  0  0  0.114548  0.222837  0  4.000967  0
C  C41  1  0.28452348  0.16518116  0.87734074  1  0  0.230121  0  3.766545  0  0  0.226598  0  4.01563  0  0  0.231394  0  4.037408  0  0  0.114512  0.222985  0  4.00103  0
C  C42  1  0.26266313  0.42525770  0.41906127  1  0  -0.098993  0  3.678337  0  0  -0.124924  0  3.927957  0  0  -0.124578  0  3.94525  0  0  -0.066445  -0.124875  0  3.91623  0
C  C43  1  0.42526724  0.26266538  0.91905963  1  0  -0.098971  0  3.67825  0  0  -0.124976  0  3.92789  0  0  -0.124629  0  3.945179  0  0  -0.066389  -0.124929  0  3.916161  0
C  C44  1  0.43239259  0.50437147  0.40806872  1  0  -0.102913  0  3.783505  0  0  -0.117755  0  4.043854  0  0  -0.123132  0  4.066658  0  0  -0.085728  -0.114299  0  4.028426  0
C  C45  1  0.50438413  0.43239917  0.90806647  1  0  -0.10289  0  3.78332  0  0  -0.117726  0  4.043709  0  0  -0.1231  0  4.066511  0  0  -0.085724  -0.114265  0  4.02827  0
C  C46  1  0.50247471  0.44466995  0.35535945  1  0  0.103838  0  3.710012  0  0  0.068419  0  3.967728  0  0  0.074511  0  3.986263  0  0  0.037771  0.064437  0  3.955135  0
C  C47  1  0.44467708  0.50248161  0.85536029  1  0  0.10396  0  3.710071  0  0  0.068609  0  3.967738  0  0  0.074679  0  3.986312  0  0  0.037856  0.06463  0  3.955133  0
C  C48  1  0.87429892  0.08087941  0.34908468  1  0  0.509994  0  3.830243  0  0  0.465685  0  4.111847  0  0  0.493166  0  4.112875  0  0  0.247234  0.447212  0  4.110638  0
C  C49  1  0.08088001  0.87430695  0.84908518  1  0  0.510275  0  3.830026  0  0  0.465953  0  4.111603  0  0  0.493404  0  4.112673  0  0  0.24734  0.447523  0  4.110364  0
C  C50  1  0.69551117  0.04372815  0.37038426  1  0  0.101194  0  3.774713  0  0  0.106438  0  4.024075  0  0  0.106543  0  4.043803  0  0  0.114538  0.106114  0  4.010909  0
C  C51  1  0.04373041  0.69551800  0.87038541  1  0  0.101048  0  3.774648  0  0  0.106249  0  4.024124  0  0  0.10636  0  4.043862  0  0  0.114435  0.105826  0  4.011081  0
C  C52  1  0.56344799  0.91780500  0.33391853  1  0  -0.098034  0  3.669157  0  0  -0.122354  0  3.917507  0  0  -0.125087  0  3.935884  0  0  -0.067584  -0.120545  0  3.905329  0
C  C53  1  0.91780737  0.56345219  0.83391974  1  0  -0.097978  0  3.66888  0  0  -0.122287  0  3.917249  0  0  -0.125017  0  3.935624  0  0  -0.067561  -0.120451  0  3.905094  0
C  C54  1  0.39815562  0.87907022  0.35397633  1  0  0.013309  0  3.698706  0  0  -0.002893  0  3.951696  0  0  -0.001045  0  3.968668  0  0  -0.059621  -0.004027  0  3.940159  0
C  C55  1  0.87907433  0.39815561  0.85397816  1  0  0.01336  0  3.698466  0  0  -0.002841  0  3.951471  0  0  -0.000993  0  3.968445  0  0  -0.05958  -0.003973  0  3.939927  0
C  C56  1  0.37104073  0.96706008  0.40970209  1  0  -0.107187  0  3.685471  0  0  -0.131143  0  3.932343  0  0  -0.134874  0  3.951566  0  0  -0.070315  -0.128608  0  3.919388  0
C  C57  1  0.96706298  0.37104319  0.90970271  1  0  -0.107341  0  3.685495  0  0  -0.131369  0  3.932344  0  0  -0.135103  0  3.951568  0  0  -0.070411  -0.128833  0  3.919387  0
C  C58  1  0.50984307  0.09373220  0.44238134  1  0  0.105258  0  3.790053  0  0  0.109226  0  4.04212  0  0  0.109641  0  4.063028  0  0  0.113978  0.108752  0  4.027992  0
C  C59  1  0.09373449  0.50984654  0.94238189  1  0  0.105072  0  3.790025  0  0  0.109233  0  4.041911  0  0  0.109654  0  4.062807  0  0  0.113988  0.108763  0  4.027772  0
C  C60  1  0.47534395  0.19142893  0.50096528  1  0  0.500434  0  3.849518  0  0  0.454696  0  4.137852  0  0  0.481967  0  4.139588  0  0  0.240564  0.436434  0  4.136062  0
C  C61  1  0.19142778  0.47534312  0.00096255  1  0  0.500539  0  3.849271  0  0  0.454671  0  4.137702  0  0  0.481943  0  4.139436  0  0  0.24052  0.436399  0  4.135923  0
C  C62  1  0.63100958  0.42240724  0.58527147  1  0  0.199044  0  3.811429  0  0  0.195366  0  4.065618  0  0  0.198878  0  4.08903  0  0  0.098538  0.192724  0  4.049769  0
C  C63  1  0.42240705  0.63100470  0.08526996  1  0  0.198905  0  3.811525  0  0  0.195279  0  4.065655  0  0  0.198789  0  4.089073  0  0  0.098485  0.192637  0  4.049806  0
C  C64  1  0.48724792  0.42566499  0.61822718  1  0  0.013993  0  3.679951  0  0  -0.025535  0  3.937561  0  0  -0.021543  0  3.954427  0  0  0.033344  -0.028047  0  3.9261  0
C  C65  1  0.42566321  0.48724619  0.11822633  1  0  0.013989  0  3.680296  0  0  -0.025564  0  3.937878  0  0  -0.021572  0  3.954748  0  0  0.033331  -0.028074  0  3.926414  0
C  C66  1  0.65371647  0.63910242  0.69405422  1  0  0.108363  0  3.708067  0  0  0.071039  0  3.971523  0  0  0.076296  0  3.991485  0  0  0.038046  0.067677  0  3.957831  0
C  C67  1  0.63909923  0.65371236  0.19405174  1  0  0.108292  0  3.708068  0  0  0.071011  0  3.971557  0  0  0.076257  0  3.991517  0  0  0.038027  0.067648  0  3.957873  0
C  C68  1  0.80220319  0.64298016  0.66410598  1  0  -0.092181  0  3.721415  0  0  -0.104623  0  3.976783  0  0  -0.110071  0  3.998541  0  0  -0.079926  -0.101091  0  3.962125  0
C  C69  1  0.64297755  0.80219825  0.16410382  1  0  -0.092114  0  3.721479  0  0  -0.10459  0  3.976808  0  0  -0.110039  0  3.998568  0  0  -0.079918  -0.10106  0  3.96216  0
C  C70  1  0.79131620  0.53325675  0.60922647  1  0  -0.106685  0  3.689136  0  0  -0.132358  0  3.942293  0  0  -0.132967  0  3.961104  0  0  -0.071586  -0.131565  0  3.92937  0
C  C71  1  0.53326126  0.79131538  0.10922331  1  0  -0.106638  0  3.689051  0  0  -0.132333  0  3.94222  0  0  -0.132938  0  3.961028  0  0  -0.071573  -0.131554  0  3.929296  0
C  C72  1  0.85914512  0.32389072  0.21819790  1  0  0.69366  0  3.893188  0  0  0.645923  0  4.194218  0  0  0.680081  0  4.188352  0  0  0.184054  0.622746  0  4.197297  0
C  C73  1  0.32389863  0.85914801  0.71819929  1  0  0.693652  0  3.893154  0  0  0.645846  0  4.194286  0  0  0.679998  0  4.188422  0  0  0.184003  0.622669  0  4.197363  0
C  C74  1  0.04464441  0.38150811  0.20159013  1  0  -0.29697  0  3.64649  0  0  -0.331509  0  3.904435  0  0  -0.335694  0  3.909372  0  0  -0.156009  -0.328763  0  3.901008  0
C  C75  1  0.38151054  0.04464983  0.70159334  1  0  -0.296935  0  3.646474  0  0  -0.331484  0  3.904435  0  0  -0.335672  0  3.909398  0  0  -0.156031  -0.328731  0  3.900995  0
C  C76  1  0.04672371  0.67186085  0.14426058  1  0  0.181876  0  3.752018  0  0  0.177631  0  4.020746  0  0  0.189893  0  4.037314  0  0  0.125556  0.169405  0  4.00946  0
C  C77  1  0.67186091  0.04672719  0.64426449  1  0  0.18191  0  3.752284  0  0  0.177528  0  4.021085  0  0  0.189791  0  4.037655  0  0  0.125514  0.169301  0  4.009798  0
C  C78  1  0.84099879  0.58798334  0.05807038  1  0  0.131362  0  3.775731  0  0  0.101192  0  4.046368  0  0  0.109323  0  4.062679  0  0  0.040269  0.09601  0  4.035098  0
C  C79  1  0.58798624  0.84100147  0.55807393  1  0  0.131432  0  3.775519  0  0  0.10124  0  4.046177  0  0  0.109375  0  4.062488  0  0  0.040286  0.096055  0  4.034909  0
C  C80  1  0.88559261  0.75045459  0.03506764  1  0  -0.156677  0  3.806384  0  0  -0.173135  0  4.072302  0  0  -0.181005  0  4.093834  0  0  -0.10853  -0.168126  0  4.05769  0
C  C81  1  0.75046148  0.88559697  0.53506812  1  0  -0.156559  0  3.80613  0  0  -0.17303  0  4.072057  0  0  -0.180899  0  4.093588  0  0  -0.108482  -0.168023  0  4.05745  0
C  C82  1  0.01979214  0.87801555  0.06905056  1  0  -0.011313  0  3.703289  0  0  -0.039047  0  3.952535  0  0  -0.032513  0  3.967596  0  0  -0.069506  -0.04297  0  3.942147  0
C  C83  1  0.87801571  0.01979695  0.56905396  1  0  -0.011506  0  3.703492  0  0  -0.039304  0  3.952723  0  0  -0.032773  0  3.967788  0  0  -0.069643  -0.043229  0  3.942339  0
C  C84  1  0.10282800  0.84125927  0.12470903  1  0  -0.145537  0  3.729158  0  0  -0.125783  0  3.965843  0  0  -0.138494  0  3.986824  0  0  -0.021761  -0.117782  0  3.951953  0
C  C85  1  0.84125726  0.10283346  0.62471316  1  0  -0.145428  0  3.729183  0  0  -0.125462  0  3.965644  0  0  -0.138171  0  3.986627  0  0  -0.021581  -0.11746  0  3.951751  0
C  C86  1  0.24799872  0.97816327  0.15958259  1  0  0.628586  0  3.955261  0  0  0.579345  0  4.242267  0  0  0.614489  0  4.237117  0  0  0.185239  0.555576  0  4.244821  0
C  C87  1  0.97816511  0.24800681  0.65958445  1  0  0.628617  0  3.955115  0  0  0.579306  0  4.242142  0  0  0.614448  0  4.236991  0  0  0.18516  0.555537  0  4.244697  0
S  S88  1  0.14655718  0.61042663  0.21203581  1  0  0.052855  0  2.440474  0  0  0.045078  0  2.784069  0  0  0.040648  0  2.783882  0  0  0.032682  0.048239  0  2.784408  0
S  S89  1  0.61042862  0.14656189  0.71203822  1  0  0.052842  0  2.440539  0  0  0.045091  0  2.784196  0  0  0.040658  0  2.784007  0  0  0.032702  0.048252  0  2.784533  0
N  N90  1  0.40949840  0.30979176  0.31562437  1  0  -0.314999  0  3.316983  0  0  -0.235314  0  3.586563  0  0  -0.255439  0  3.608441  0  0  -0.330022  -0.221569  0  3.571451  0
N  N91  1  0.30979810  0.40950971  0.81562635  1  0  -0.314952  0  3.316984  0  0  -0.235223  0  3.586515  0  0  -0.255345  0  3.608388  0  0  -0.329948  -0.221475  0  3.571403  0
N  N92  1  0.99421012  0.20757681  0.38764764  1  0  -0.417021  0  3.361601  0  0  -0.36473  0  3.598877  0  0  -0.386518  0  3.608045  0  0  -0.388209  -0.349645  0  3.592271  0
N  N93  1  0.20758487  0.99421518  0.88764676  1  0  -0.417249  0  3.361779  0  0  -0.36492  0  3.59899  0  0  -0.3867  0  3.608164  0  0  -0.388246  -0.349819  0  3.592351  0
N  N94  1  0.66961129  0.13249995  0.42338216  1  0  -0.363056  0  3.142727  0  0  -0.336888  0  3.405138  0  0  -0.346269  0  3.421351  0  0  -0.309669  -0.33017  0  3.394172  0
N  N95  1  0.13249906  0.66961379  0.92338193  1  0  -0.362876  0  3.142624  0  0  -0.336746  0  3.404997  0  0  -0.346127  0  3.421207  0  0  -0.309616  -0.33  0  3.394058  0
N  N96  1  0.61818116  0.31130378  0.53019436  1  0  -0.426652  0  3.400315  0  0  -0.374536  0  3.640136  0  0  -0.397242  0  3.652739  0  0  -0.392342  -0.358889  0  3.631229  0
N  N97  1  0.31130222  0.61818104  0.03019363  1  0  -0.426534  0  3.40021  0  0  -0.37441  0  3.640051  0  0  -0.397115  0  3.652654  0  0  -0.392303  -0.358761  0  3.631144  0
N  N98  1  0.50004433  0.53134287  0.67139448  1  0  -0.323948  0  3.310619  0  0  -0.244893  0  3.579919  0  0  -0.265171  0  3.602749  0  0  -0.332211  -0.230977  0  3.564031  0
N  N99  1  0.53133683  0.50003754  0.17139323  1  0  -0.324014  0  3.31082  0  0  -0.244952  0  3.580088  0  0  -0.265232  0  3.602925  0  0  -0.332225  -0.231037  0  3.564205  0
N  N100  1  0.91897216  0.54916946  0.11073166  1  0  -0.326531  0  3.105424  0  0  -0.288191  0  3.373159  0  0  -0.302122  0  3.388356  0  0  -0.31676  -0.278681  0  3.362537  0
N  N101  1  0.54917572  0.91897278  0.61073454  1  0  -0.326591  0  3.105708  0  0  -0.28823  0  3.373498  0  0  -0.302156  0  3.388685  0  0  -0.316785  -0.278718  0  3.362876  0
O  O102  1  0.75588178  0.20069699  0.18160203  1  0  -0.63446  0  1.951195  0  0  -0.567463  0  2.191141  0  0  -0.597491  0  2.180972  0  0  -0.336528  -0.546443  0  2.197307  0
O  O103  1  0.20070709  0.75588327  0.68160156  1  0  -0.634471  0  1.951302  0  0  -0.567438  0  2.19128  0  0  -0.597463  0  2.181113  0  0  -0.336513  -0.546418  0  2.197446  0
O  O104  1  0.81334748  0.39654030  0.26663523  1  0  -0.66996  0  1.90832  0  0  -0.618309  0  2.145348  0  0  -0.645517  0  2.136197  0  0  -0.354065  -0.599146  0  2.150836  0
O  O105  1  0.39653652  0.81335344  0.76663861  1  0  -0.669949  0  1.908209  0  0  -0.618265  0  2.145266  0  0  -0.645468  0  2.136113  0  0  -0.354048  -0.599105  0  2.150755  0
O  O106  1  0.32113141  0.10808706  0.12911266  1  0  -0.633304  0  1.962606  0  0  -0.571121  0  2.200063  0  0  -0.60007  0  2.190112  0  0  -0.334669  -0.550755  0  2.206  0
O  O107  1  0.10809284  0.32113447  0.62911521  1  0  -0.633263  0  1.962585  0  0  -0.571089  0  2.200096  0  0  -0.600039  0  2.190152  0  0  -0.334593  -0.550724  0  2.206036  0
O  O108  1  0.29562791  0.96169612  0.21800251  1  0  -0.62978  0  1.986457  0  0  -0.561059  0  2.224116  0  0  -0.590825  0  2.217827  0  0  -0.316836  -0.540094  0  2.227602  0
O  O109  1  0.96169481  0.29564414  0.71800461  1  0  -0.629909  0  1.986445  0  0  -0.561153  0  2.224098  0  0  -0.590918  0  2.217805  0  0  -0.31688  -0.540186  0  2.227585  0
O  O110  1  0.90570989  0.00123726  0.30143359  1  0  -0.489809  0  1.910108  0  0  -0.445136  0  2.111111  0  0  -0.464513  0  2.106662  0  0  -0.269286  -0.4319  0  2.113877  0
O  O111  1  0.00123535  0.90571572  0.80143474  1  0  -0.489907  0  1.909997  0  0  -0.44521  0  2.110982  0  0  -0.464576  0  2.106545  0  0  -0.269278  -0.431982  0  2.113726  0
O  O112  1  0.32854251  0.16316243  0.51836784  1  0  -0.508536  0  1.924387  0  0  -0.470909  0  2.140268  0  0  -0.49023  0  2.134695  0  0  -0.280341  -0.457659  0  2.143772  0
O  O113  1  0.16316652  0.32853947  0.01836538  1  0  -0.508518  0  1.924194  0  0  -0.470875  0  2.140137  0  0  -0.4902  0  2.134564  0  0  -0.280303  -0.457624  0  2.143648  0
