# generated using pymatgen
data_CdH22C22(NO2)4
_symmetry_space_group_name_H-M   'P 1'
_cell_length_a   8.80081814
_cell_length_b   11.72389873
_cell_length_c   13.06311693
_cell_angle_alpha   64.81864426
_cell_angle_beta   76.44888625
_cell_angle_gamma   81.77275758
_symmetry_Int_Tables_number   1
_chemical_formula_structural   CdH22C22(NO2)4
_chemical_formula_sum   'Cd2 H44 C44 N8 O16'
_cell_volume   1184.35836636
_cell_formula_units_Z   2
loop_
 _symmetry_equiv_pos_site_id
 _symmetry_equiv_pos_as_xyz
  1  'x, y, z'
loop_
 _atom_site_type_symbol
 _atom_site_label
 _atom_site_symmetry_multiplicity
 _atom_site_fract_x
 _atom_site_fract_y
 _atom_site_fract_z
 _atom_site_occupancy
 _atom_site_hle17_bader_spin_density
 _atom_site_hle17_ddec_charge
 _atom_site_hle17_ddec_spin_density
 _atom_site_hle17_ddec_sum_bond_order
 _atom_site_hle17_magmom
 _atom_site_hse06_10hf_bader_spin_density
 _atom_site_hse06_10hf_ddec_charge
 _atom_site_hse06_10hf_ddec_spin_density
 _atom_site_hse06_10hf_ddec_sum_bond_order
 _atom_site_hse06_10hf_magmom
 _atom_site_hse06_bader_spin_density
 _atom_site_hse06_ddec_charge
 _atom_site_hse06_ddec_spin_density
 _atom_site_hse06_ddec_sum_bond_order
 _atom_site_hse06_magmom
 _atom_site_pbe_bader_spin_density
 _atom_site_pbe_cm5_charge
 _atom_site_pbe_ddec_charge
 _atom_site_pbe_ddec_spin_density
 _atom_site_pbe_ddec_sum_bond_order
 _atom_site_pbe_magmom
Cd  Cd0  1  0.83046783  0.57168564  0.89938106  1  0  1.179959  0  1.668796  0  0  0.990724  0  2.117775  0  0  1.045404  0  2.065477  0  0  0.784278  0.951865  0  2.153502  0
Cd  Cd1  1  0.16952773  0.42831690  0.10062018  1  0  1.179946  0  1.668781  0  0  0.990707  0  2.117755  0  0  1.045382  0  2.06546  0  0  0.784283  0.951849  0  2.153481  0
H  H2  1  0.80239545  0.41074540  0.31884538  1  0  0.103125  0  0.933338  0  0  0.115801  0  0.996112  0  0  0.117108  0  0.995678  0  0  0.113627  0.114841  0  0.996526  0
H  H3  1  0.19760165  0.58925052  0.68115886  1  0  0.103108  0  0.933334  0  0  0.115792  0  0.996087  0  0  0.117102  0  0.995655  0  0  0.113646  0.114834  0  0.996502  0
H  H4  1  0.69365046  0.29951694  0.30949216  1  0  0.110805  0  0.91165  0  0  0.125874  0  0.968144  0  0  0.128113  0  0.966695  0  0  0.120866  0.124208  0  0.969361  0
H  H5  1  0.30635028  0.70047615  0.69051101  1  0  0.110768  0  0.911675  0  0  0.125848  0  0.96814  0  0  0.128089  0  0.966693  0  0  0.12085  0.124182  0  0.969356  0
H  H6  1  0.26485184  0.50158900  0.31627328  1  0  0.097036  0  0.971714  0  0  0.106833  0  1.037595  0  0  0.109928  0  1.035255  0  0  0.107166  0.104544  0  1.039377  0
H  H7  1  0.73514376  0.49841260  0.68372754  1  0  0.097032  0  0.971693  0  0  0.106828  0  1.037573  0  0  0.109917  0  1.035252  0  0  0.107162  0.10454  0  1.039355  0
H  H8  1  0.00167522  0.58010849  0.38289795  1  0  0.102001  0  0.938476  0  0  0.114184  0  0.992456  0  0  0.117113  0  0.991747  0  0  0.107145  0.112083  0  0.993077  0
H  H9  1  0.99832134  0.41989689  0.61710053  1  0  0.101958  0  0.93852  0  0  0.114148  0  0.992497  0  0  0.11708  0  0.99179  0  0  0.107134  0.112045  0  0.993117  0
H  H10  1  0.97322336  0.74304399  0.46133840  1  0  0.09858  0  0.962852  0  0  0.106843  0  1.028432  0  0  0.110943  0  1.024817  0  0  0.104799  0.103799  0  1.031183  0
H  H11  1  0.02677681  0.25695949  0.53866021  1  0  0.098611  0  0.962854  0  0  0.106869  0  1.028433  0  0  0.110969  0  1.024817  0  0  0.104803  0.103825  0  1.031183  0
H  H12  1  0.47802447  0.75099193  0.39946099  1  0  0.107972  0  0.943613  0  0  0.114643  0  1.010476  0  0  0.11925  0  1.006306  0  0  0.106181  0.111309  0  1.013498  0
H  H13  1  0.52197763  0.24899828  0.60054688  1  0  0.107967  0  0.943699  0  0  0.114646  0  1.01055  0  0  0.119253  0  1.00638  0  0  0.106222  0.111315  0  1.013568  0
H  H14  1  0.15858935  0.06133124  0.51632465  1  0  0.103906  0  0.940646  0  0  0.114906  0  1.006701  0  0  0.116999  0  1.005005  0  0  0.113224  0.113438  0  1.007946  0
H  H15  1  0.84140994  0.93866659  0.48367546  1  0  0.103912  0  0.940645  0  0  0.114909  0  1.0067  0  0  0.117004  0  1.005002  0  0  0.113247  0.11344  0  1.007947  0
H  H16  1  0.32944429  0.00159355  0.57740047  1  0  0.099537  0  0.921421  0  0  0.113208  0  0.98278  0  0  0.115084  0  0.981141  0  0  0.109461  0.111864  0  0.984032  0
H  H17  1  0.67055840  0.99840616  0.42259761  1  0  0.099559  0  0.921387  0  0  0.11321  0  0.982769  0  0  0.115082  0  0.981139  0  0  0.109466  0.111866  0  0.984021  0
H  H18  1  0.66548564  0.72259188  0.04733990  1  0  0.091687  0  0.958356  0  0  0.097759  0  1.024508  0  0  0.100052  0  1.023122  0  0  0.119166  0.095995  0  1.025665  0
H  H19  1  0.33451917  0.27741251  0.95265914  1  0  0.09161  0  0.958409  0  0  0.097689  0  1.024571  0  0  0.099967  0  1.023201  0  0  0.119116  0.095925  0  1.025728  0
H  H20  1  0.65517956  0.93000090  0.05783949  1  0  0.109664  0  0.940161  0  0  0.122065  0  0.995497  0  0  0.125699  0  0.993801  0  0  0.111944  0.119442  0  0.996896  0
H  H21  1  0.34482271  0.07000637  0.94215429  1  0  0.109741  0  0.940043  0  0  0.122098  0  0.995434  0  0  0.125744  0  0.993722  0  0  0.111971  0.119475  0  0.996833  0
H  H22  1  0.02056237  0.04248564  0.75190335  1  0  0.110245  0  0.946748  0  0  0.123012  0  1.002219  0  0  0.12571  0  1.001941  0  0  0.112549  0.121047  0  1.002622  0
H  H23  1  0.97944005  0.95751880  0.24809146  1  0  0.11024  0  0.946885  0  0  0.122979  0  1.002375  0  0  0.125678  0  1.002096  0  0  0.112527  0.121016  0  1.002774  0
H  H24  1  0.01751699  0.82997146  0.75534597  1  0  0.092607  0  0.952251  0  0  0.100437  0  1.015383  0  0  0.1033  0  1.012437  0  0  0.119721  0.098287  0  1.017585  0
H  H25  1  0.98248069  0.17003395  0.24464849  1  0  0.092614  0  0.952295  0  0  0.10045  0  1.015419  0  0  0.10331  0  1.012477  0  0  0.119752  0.098299  0  1.017621  0
H  H26  1  0.59705147  0.34580273  0.98846121  1  0  0.097358  0  0.961588  0  0  0.104445  0  1.026173  0  0  0.107663  0  1.022929  0  0  0.118914  0.101987  0  1.028712  0
H  H27  1  0.40294642  0.65419890  0.01153540  1  0  0.097376  0  0.961519  0  0  0.104471  0  1.026084  0  0  0.107691  0  1.022842  0  0  0.118931  0.102014  0  1.028622  0
H  H28  1  0.59069167  0.13620580  0.98785752  1  0  0.098731  0  0.968649  0  0  0.108838  0  1.03077  0  0  0.11144  0  1.030841  0  0  0.105416  0.106974  0  1.03089  0
H  H29  1  0.40931085  0.86379675  0.01213799  1  0  0.098688  0  0.968696  0  0  0.108824  0  1.030783  0  0  0.111427  0  1.030852  0  0  0.105399  0.106959  0  1.030903  0
H  H30  1  0.08210434  0.16437927  0.82789157  1  0  0.112865  0  0.938129  0  0  0.126082  0  0.991778  0  0  0.129112  0  0.990995  0  0  0.113621  0.123849  0  0.992576  0
H  H31  1  0.91789935  0.83562418  0.17210724  1  0  0.112867  0  0.938146  0  0  0.126084  0  0.991792  0  0  0.129113  0  0.991008  0  0  0.113621  0.12385  0  0.992591  0
H  H32  1  0.06902980  0.37267018  0.83266092  1  0  0.090305  0  0.95694  0  0  0.095847  0  1.026137  0  0  0.098516  0  1.02345  0  0  0.118088  0.09379  0  1.028258  0
H  H33  1  0.93097153  0.62733420  0.16734100  1  0  0.090316  0  0.95702  0  0  0.095862  0  1.026207  0  0  0.098527  0  1.023517  0  0  0.118092  0.093805  0  1.028326  0
H  H34  1  0.46746901  0.39308797  0.36602316  1  0  0.294429  0  0.937431  0  0  0.272557  0  1.009988  0  0  0.281163  0  1.00324  0  0  0.297159  0.266494  0  1.014723  0
H  H35  1  0.53252710  0.60690420  0.63398112  1  0  0.294462  0  0.937391  0  0  0.272602  0  1.009942  0  0  0.281207  0  1.003196  0  0  0.297208  0.266541  0  1.014677  0
H  H36  1  0.38728160  0.95560635  0.38012136  1  0  0.289448  0  0.8931  0  0  0.274735  0  0.951518  0  0  0.282887  0  0.945194  0  0  0.313881  0.268899  0  0.956186  0
H  H37  1  0.61271892  0.04439053  0.61987891  1  0  0.289469  0  0.893137  0  0  0.274754  0  0.951548  0  0  0.282908  0  0.945223  0  0  0.313881  0.268916  0  0.956216  0
H  H38  1  0.55958813  0.71932332  0.78917753  1  0  0.417517  0  0.893757  0  0  0.384007  0  0.961814  0  0  0.395544  0  0.945146  0  0  0.278374  0.375862  0  0.973551  0
H  H39  1  0.44040994  0.28067456  0.21081816  1  0  0.417555  0  0.893725  0  0  0.384014  0  0.961828  0  0  0.395552  0  0.945159  0  0  0.278338  0.375868  0  0.973566  0
H  H40  1  0.50575921  0.57799277  0.86974330  1  0  0.418805  0  0.8907  0  0  0.386721  0  0.95684  0  0  0.397629  0  0.941111  0  0  0.284352  0.379026  0  0.967914  0
H  H41  1  0.49423771  0.42200510  0.13025412  1  0  0.418802  0  0.890712  0  0  0.386733  0  0.956836  0  0  0.39764  0  0.941108  0  0  0.284323  0.379029  0  0.967925  0
H  H42  1  0.81461858  0.67183132  0.65629087  1  0  0.407728  0  0.902566  0  0  0.379058  0  0.966048  0  0  0.388596  0  0.952156  0  0  0.285604  0.372314  0  0.975862  0
H  H43  1  0.18538072  0.32816650  0.34371001  1  0  0.407749  0  0.902618  0  0  0.379073  0  0.966043  0  0  0.388611  0  0.952151  0  0  0.285614  0.372328  0  0.975858  0
H  H44  1  0.97784088  0.71579862  0.64862709  1  0  0.412054  0  0.901891  0  0  0.378747  0  0.971402  0  0  0.389767  0  0.955471  0  0  0.28265  0.370953  0  0.982643  0
H  H45  1  0.02216081  0.28419825  0.35137375  1  0  0.412039  0  0.90191  0  0  0.378718  0  0.971444  0  0  0.389739  0  0.955513  0  0  0.282621  0.370923  0  0.982687  0
C  C46  1  0.75141610  0.46064281  0.15235821  1  0  0.679444  0  3.85345  0  0  0.627633  0  4.155014  0  0  0.661502  0  4.147022  0  0  0.208757  0.604575  0  4.159672  0
C  C47  1  0.24858089  0.53935500  0.84764534  1  0  0.679235  0  3.853724  0  0  0.627414  0  4.155273  0  0  0.661288  0  4.147292  0  0  0.20864  0.604357  0  4.159929  0
C  C48  1  0.70599844  0.40060916  0.28358720  1  0  -0.108142  0  3.686412  0  0  -0.165205  0  3.943069  0  0  -0.164703  0  3.949795  0  0  -0.064418  -0.165577  0  3.938583  0
C  C49  1  0.29399982  0.59938675  0.71641686  1  0  -0.108058  0  3.686417  0  0  -0.165089  0  3.943027  0  0  -0.164605  0  3.949779  0  0  -0.064349  -0.165461  0  3.938544  0
C  C50  1  0.54738804  0.57347591  0.31432953  1  0  0.534066  0  3.861037  0  0  0.489073  0  4.146217  0  0  0.518516  0  4.145503  0  0  0.23213  0.469289  0  4.146021  0
C  C51  1  0.45260676  0.42651909  0.68567467  1  0  0.533718  0  3.86117  0  0  0.488851  0  4.146188  0  0  0.518299  0  4.145466  0  0  0.232064  0.469059  0  4.146007  0
C  C52  1  0.38770568  0.62097865  0.35463226  1  0  -0.048763  0  3.763354  0  0  -0.022463  0  3.995308  0  0  -0.030163  0  4.018278  0  0  -0.012579  -0.017683  0  3.979929  0
C  C53  1  0.61229501  0.37901538  0.64537058  1  0  -0.048651  0  3.763274  0  0  -0.022362  0  3.995183  0  0  -0.030062  0  4.018151  0  0  -0.012548  -0.017582  0  3.97981  0
C  C54  1  0.25364072  0.57281148  0.35055998  1  0  -0.059295  0  3.70048  0  0  -0.087909  0  3.946752  0  0  -0.085794  0  3.965848  0  0  -0.07922  -0.089011  0  3.933799  0
C  C55  1  0.74635508  0.42718635  0.64944222  1  0  -0.059252  0  3.700461  0  0  -0.087867  0  3.946731  0  0  -0.085754  0  3.965824  0  0  -0.07918  -0.08897  0  3.933779  0
C  C56  1  0.10503824  0.61770854  0.38738710  1  0  -0.06141  0  3.759935  0  0  -0.070663  0  4.010508  0  0  -0.07424  0  4.031275  0  0  -0.085165  -0.068409  0  3.996425  0
C  C57  1  0.89495974  0.38229213  0.61261215  1  0  -0.061378  0  3.75995  0  0  -0.070644  0  4.01054  0  0  -0.074223  0  4.031306  0  0  -0.085162  -0.068388  0  3.996458  0
C  C58  1  0.08937791  0.70967667  0.43042515  1  0  -0.069452  0  3.718967  0  0  -0.09701  0  3.968536  0  0  -0.095186  0  3.985933  0  0  -0.081574  -0.097898  0  3.956773  0
C  C59  1  0.91062364  0.29032301  0.56957619  1  0  -0.069471  0  3.718845  0  0  -0.097027  0  3.968403  0  0  -0.095205  0  3.985799  0  0  -0.081589  -0.097915  0  3.956636  0
C  C60  1  0.22292422  0.75951502  0.43440811  1  0  -0.073646  0  3.794753  0  0  -0.049084  0  4.035202  0  0  -0.057197  0  4.059166  0  0  -0.020128  -0.044052  0  4.019167  0
C  C61  1  0.77707745  0.24048277  0.56559468  1  0  -0.073724  0  3.794619  0  0  -0.049076  0  4.035065  0  0  -0.057187  0  4.059023  0  0  -0.020098  -0.04404  0  4.019022  0
C  C62  1  0.37223610  0.71618099  0.39490034  1  0  -0.087167  0  3.69405  0  0  -0.123908  0  3.942796  0  0  -0.121368  0  3.96025  0  0  -0.080143  -0.125258  0  3.931013  0
C  C63  1  0.62776464  0.28381209  0.60510361  1  0  -0.087235  0  3.694221  0  0  -0.124019  0  3.942988  0  0  -0.121479  0  3.96044  0  0  -0.080278  -0.12537  0  3.931204  0
C  C64  1  0.19843704  0.85104144  0.48923008  1  0  0.540404  0  3.843873  0  0  0.486747  0  4.13715  0  0  0.51646  0  4.137001  0  0  0.242888  0.466837  0  4.136549  0
C  C65  1  0.80156708  0.14895444  0.51077380  1  0  0.54062  0  3.843614  0  0  0.486792  0  4.137124  0  0  0.516512  0  4.136973  0  0  0.242901  0.466879  0  4.136522  0
C  C66  1  0.28379140  0.03616404  0.49700497  1  0  -0.109666  0  3.660864  0  0  -0.169709  0  3.921921  0  0  -0.168932  0  3.928747  0  0  -0.068064  -0.17024  0  3.917205  0
C  C67  1  0.71621029  0.96383282  0.50299587  1  0  -0.109643  0  3.660851  0  0  -0.16967  0  3.921867  0  0  -0.168892  0  3.928699  0  0  -0.068096  -0.170203  0  3.917157  0
C  C68  1  0.36870082  0.15412313  0.40834654  1  0  0.669099  0  3.890474  0  0  0.621538  0  4.198223  0  0  0.653006  0  4.192289  0  0  0.204512  0.600224  0  4.201472  0
C  C69  1  0.63129490  0.84587568  0.59165225  1  0  0.669101  0  3.890721  0  0  0.621584  0  4.198399  0  0  0.653054  0  4.192462  0  0  0.204514  0.600269  0  4.201653  0
C  C70  1  0.74056361  0.79705859  0.98267795  1  0  0.136824  0  3.702673  0  0  0.105243  0  3.956262  0  0  0.11265  0  3.974516  0  0  0.05027  0.100478  0  3.943825  0
C  C71  1  0.25943885  0.20294582  0.01731994  1  0  0.136855  0  3.702737  0  0  0.105269  0  3.956327  0  0  0.112684  0  3.974589  0  0  0.050338  0.100503  0  3.94389  0
C  C72  1  0.73502399  0.91384926  0.98720024  1  0  -0.167538  0  3.717506  0  0  -0.186152  0  3.967618  0  0  -0.193967  0  3.987668  0  0  -0.081306  -0.181068  0  3.954086  0
C  C73  1  0.26498074  0.08615610  0.01279539  1  0  -0.167567  0  3.717414  0  0  -0.186172  0  3.96754  0  0  -0.193992  0  3.98758  0  0  -0.081362  -0.181089  0  3.954009  0
C  C74  1  0.83704978  0.00599635  0.90467565  1  0  0.095587  0  3.769228  0  0  0.105964  0  4.002791  0  0  0.110082  0  4.024824  0  0  0.012386  0.103442  0  3.987609  0
C  C75  1  0.16295372  0.99400996  0.09531982  1  0  0.095554  0  3.769178  0  0  0.105968  0  4.002677  0  0  0.110079  0  4.024733  0  0  0.012397  0.103446  0  3.987498  0
C  C76  1  0.94061439  0.97445313  0.82004007  1  0  -0.154992  0  3.694152  0  0  -0.173689  0  3.940493  0  0  -0.181834  0  3.962367  0  0  -0.078951  -0.168437  0  3.925787  0
C  C77  1  0.05938794  0.02555318  0.17995559  1  0  -0.154944  0  3.694304  0  0  -0.173625  0  3.940624  0  0  -0.181767  0  3.962498  0  0  -0.0789  -0.168374  0  3.925918  0
C  C78  1  0.93913623  0.85539376  0.82137616  1  0  0.142121  0  3.689436  0  0  0.111859  0  3.938358  0  0  0.119572  0  3.955949  0  0  0.052931  0.106866  0  3.92639  0
C  C79  1  0.06086375  0.14461259  0.17861835  1  0  0.141923  0  3.689764  0  0  0.111661  0  3.938683  0  0  0.119377  0  3.956271  0  0  0.052734  0.106668  0  3.926713  0
C  C80  1  0.70248232  0.30294422  0.95296154  1  0  0.134324  0  3.685931  0  0  0.103412  0  3.93547  0  0  0.110465  0  3.953356  0  0  0.049131  0.098824  0  3.923356  0
C  C81  1  0.29751790  0.69705831  0.04703741  1  0  0.134349  0  3.685838  0  0  0.103424  0  3.935402  0  0  0.110476  0  3.953291  0  0  0.049162  0.098835  0  3.923287  0
C  C82  1  0.70009072  0.18445472  0.95347603  1  0  -0.151996  0  3.699139  0  0  -0.16817  0  3.941387  0  0  -0.175981  0  3.963239  0  0  -0.080629  -0.163107  0  3.926668  0
C  C83  1  0.29991190  0.81554685  0.04652366  1  0  -0.151954  0  3.699202  0  0  -0.168147  0  3.941433  0  0  -0.175958  0  3.963286  0  0  -0.080614  -0.163084  0  3.926713  0
C  C84  1  0.83636451  0.13047324  0.90760385  1  0  0.089793  0  3.77109  0  0  0.100506  0  4.003472  0  0  0.103996  0  4.025804  0  0  0.011612  0.098377  0  3.988101  0
C  C85  1  0.16363923  0.86952927  0.09239531  1  0  0.089758  0  3.771003  0  0  0.10047  0  4.003374  0  0  0.10396  0  4.025708  0  0  0.011569  0.09834  0  3.988001  0
C  C86  1  0.97121929  0.19995803  0.86417607  1  0  -0.15243  0  3.704756  0  0  -0.172062  0  3.95488  0  0  -0.179992  0  3.977263  0  0  -0.076549  -0.16685  0  3.939775  0
C  C87  1  0.02878210  0.80004450  0.13582270  1  0  -0.152441  0  3.704705  0  0  -0.172073  0  3.95481  0  0  -0.18  0  3.977186  0  0  -0.076546  -0.166863  0  3.939706  0
C  C88  1  0.96491495  0.31763315  0.86718644  1  0  0.141767  0  3.692875  0  0  0.109325  0  3.948815  0  0  0.116537  0  3.967495  0  0  0.052183  0.104681  0  3.936051  0
C  C89  1  0.03508529  0.68236937  0.13281405  1  0  0.141786  0  3.692952  0  0  0.109355  0  3.948861  0  0  0.116574  0  3.967537  0  0  0.052213  0.104715  0  3.936093  0
N  N90  1  0.84100887  0.76791613  0.90137581  1  0  -0.324817  0  3.239174  0  0  -0.246565  0  3.501283  0  0  -0.266674  0  3.519809  0  0  -0.32449  -0.232901  0  3.48842  0
N  N91  1  0.15899473  0.23208829  0.09862036  1  0  -0.324632  0  3.239364  0  0  -0.246371  0  3.501446  0  0  -0.266479  0  3.519968  0  0  -0.324355  -0.232706  0  3.48858  0
N  N92  1  0.83296230  0.36880569  0.91022710  1  0  -0.333062  0  3.249928  0  0  -0.252975  0  3.512957  0  0  -0.273531  0  3.532264  0  0  -0.325482  -0.238955  0  3.499508  0
N  N93  1  0.16703681  0.63119590  0.08977315  1  0  -0.333098  0  3.249907  0  0  -0.253012  0  3.512941  0  0  -0.27357  0  3.532249  0  0  -0.325521  -0.238993  0  3.49949  0
N  N94  1  0.56006714  0.45150076  0.32848978  1  0  -0.417652  0  3.370718  0  0  -0.362636  0  3.622596  0  0  -0.385073  0  3.632779  0  0  -0.425946  -0.347256  0  3.61532  0
N  N95  1  0.43992894  0.54849234  0.67151569  1  0  -0.417537  0  3.370775  0  0  -0.362629  0  3.622664  0  0  -0.38506  0  3.632842  0  0  -0.426028  -0.347247  0  3.615395  0
N  N96  1  0.30364300  0.93918327  0.45297002  1  0  -0.386043  0  3.348106  0  0  -0.328853  0  3.596268  0  0  -0.350194  0  3.606044  0  0  -0.412875  -0.314307  0  3.58925  0
N  N97  1  0.69635986  0.06081359  0.54703063  1  0  -0.386183  0  3.348106  0  0  -0.328921  0  3.596319  0  0  -0.350274  0  3.606101  0  0  -0.412884  -0.314375  0  3.589302  0
O  O98  1  0.89416369  0.45566662  0.10528822  1  0  -0.673085  0  2.072909  0  0  -0.606289  0  2.34656  0  0  -0.636658  0  2.335465  0  0  -0.330577  -0.584773  0  2.353133  0
O  O99  1  0.10583316  0.54433401  0.89471506  1  0  -0.67298  0  2.072968  0  0  -0.606127  0  2.346518  0  0  -0.636499  0  2.335426  0  0  -0.330467  -0.584619  0  2.353104  0
O  O100  1  0.64534442  0.51147283  0.09265342  1  0  -0.649643  0  2.029664  0  0  -0.578461  0  2.261955  0  0  -0.606824  0  2.252601  0  0  -0.316764  -0.558606  0  2.267747  0
O  O101  1  0.35464883  0.48852969  0.90735127  1  0  -0.649536  0  2.029735  0  0  -0.578405  0  2.262125  0  0  -0.606735  0  2.252696  0  0  -0.316773  -0.558553  0  2.267914  0
O  O102  1  0.66100409  0.64321817  0.26916431  1  0  -0.57074  0  1.864095  0  0  -0.530993  0  2.076442  0  0  -0.5506  0  2.06907  0  0  -0.320063  -0.517256  0  2.081003  0
O  O103  1  0.33899441  0.35677305  0.73083994  1  0  -0.570601  0  1.864076  0  0  -0.530877  0  2.076354  0  0  -0.550489  0  2.068983  0  0  -0.320006  -0.517136  0  2.080919  0
O  O104  1  0.08246231  0.84475592  0.56898711  1  0  -0.587122  0  1.986218  0  0  -0.531837  0  2.212349  0  0  -0.554461  0  2.204551  0  0  -0.299579  -0.516186  0  2.217277  0
O  O105  1  0.91754297  0.15523996  0.43101658  1  0  -0.587187  0  1.986125  0  0  -0.531855  0  2.212341  0  0  -0.554479  0  2.204538  0  0  -0.299593  -0.516205  0  2.217272  0
O  O106  1  0.46285154  0.14505284  0.32183264  1  0  -0.643782  0  1.909853  0  0  -0.590547  0  2.120299  0  0  -0.613717  0  2.109085  0  0  -0.337705  -0.574351  0  2.127598  0
O  O107  1  0.53714412  0.85494692  0.67816504  1  0  -0.643774  0  1.910015  0  0  -0.590565  0  2.12043  0  0  -0.613735  0  2.109214  0  0  -0.337681  -0.574368  0  2.12773  0
O  O108  1  0.33443912  0.25314220  0.42805913  1  0  -0.664197  0  1.928189  0  0  -0.609339  0  2.148818  0  0  -0.633658  0  2.138624  0  0  -0.341734  -0.59223  0  2.155264  0
O  O109  1  0.66555783  0.74685565  0.57194135  1  0  -0.664201  0  1.928233  0  0  -0.609374  0  2.148859  0  0  -0.633693  0  2.138664  0  0  -0.34173  -0.592264  0  2.155307  0
O  O110  1  0.58137634  0.64061773  0.85706190  1  0  -0.864227  0  1.887872  0  0  -0.799863  0  2.089691  0  0  -0.823014  0  2.055667  0  0  -0.602922  -0.783375  0  2.113213  0
O  O111  1  0.41862645  0.35937830  0.14292913  1  0  -0.864315  0  1.887894  0  0  -0.799924  0  2.089678  0  0  -0.823077  0  2.055661  0  0  -0.602871  -0.783429  0  2.113205  0
O  O112  1  0.90582449  0.64493560  0.69502585  1  0  -0.850933  0  1.885296  0  0  -0.794275  0  2.08507  0  0  -0.816086  0  2.053305  0  0  -0.598134  -0.778696  0  2.107036  0
O  O113  1  0.09417590  0.35506408  0.30497568  1  0  -0.850918  0  1.885326  0  0  -0.794235  0  2.085063  0  0  -0.816047  0  2.0533  0  0  -0.598101  -0.778662  0  2.107041  0
