# generated using pymatgen
data_AlH12C24(NO2)3
_symmetry_space_group_name_H-M   'P 1'
_cell_length_a   3.97041067
_cell_length_b   15.78183945
_cell_length_c   15.82478023
_cell_angle_alpha   60.04467427
_cell_angle_beta   87.89069604
_cell_angle_gamma   87.28041780
_symmetry_Int_Tables_number   1
_chemical_formula_structural   AlH12C24(NO2)3
_chemical_formula_sum   'Al1 H12 C24 N3 O6'
_cell_volume   858.05952740
_cell_formula_units_Z   1
loop_
 _symmetry_equiv_pos_site_id
 _symmetry_equiv_pos_as_xyz
  1  'x, y, z'
loop_
 _atom_site_type_symbol
 _atom_site_label
 _atom_site_symmetry_multiplicity
 _atom_site_fract_x
 _atom_site_fract_y
 _atom_site_fract_z
 _atom_site_occupancy
 _atom_site_pbe_bader_charge
 _atom_site_pbe_bader_spin_density
 _atom_site_pbe_cm5_charge
 _atom_site_pbe_ddec_charge
 _atom_site_pbe_ddec_spin_density
 _atom_site_pbe_ddec_sum_bond_order
 _atom_site_pbe_magmom
Al  Al0  1  0.03107765  0.49853043  0.50024168  1  2.50421  0  0.425968  1.594606  0  2.576744  0
H  H1  1  0.78208658  0.76480443  0.24847965  1  0.085036  0  0.10993  0.114817  0  0.985076  0
H  H2  1  0.76185756  0.94856061  0.15319760  1  0.107396  0  0.105898  0.10801  0  1.000606  0
H  H3  1  0.77215009  0.48086050  0.76803502  1  0.129016  0  0.110173  0.115513  0  0.985802  0
H  H4  1  0.74896021  0.39246055  0.95118017  1  0.100276  0  0.106182  0.107887  0  1.005457  0
H  H5  1  0.85770454  0.24779734  0.47646479  1  0.082402  0  0.109714  0.114261  0  0.986433  0
H  H6  1  0.83580726  0.15332541  0.38774475  1  0.11309  0  0.105441  0.108025  0  1.002146  0
H  H7  1  0.28577859  0.48485957  0.24893786  1  0.091976  0  0.109817  0.114728  0  0.986671  0
H  H8  1  0.30567577  0.39633215  0.15375093  1  0.106357  0  0.106251  0.10817  0  1.002746  0
H  H9  1  0.25732456  0.24623781  0.77040291  1  0.087345  0  0.109611  0.113946  0  0.985836  0
H  H10  1  0.27406621  0.15225655  0.95348531  1  0.095776  0  0.105845  0.109292  0  1.002452  0
H  H11  1  0.23411225  0.77200052  0.48432512  1  0.100673  0  0.109715  0.114398  0  0.984666  0
H  H12  1  0.25954392  0.95535897  0.39519943  1  0.108942  0  0.105871  0.108117  0  1.000733  0
C  C13  1  0.51418951  0.64928125  0.42604119  1  1.550574  0  0.275479  0.649738  0  4.062179  0
C  C14  1  0.55690085  0.42425632  0.42387686  1  1.602391  0  0.274823  0.649051  0  4.063896  0
C  C15  1  0.52216659  0.42264081  0.65041315  1  1.546551  0  0.276049  0.647058  0  4.066512  0
C  C16  1  0.50854160  0.75815511  0.37156280  1  -0.033558  0  -0.004976  -0.029529  0  3.953342  0
C  C17  1  0.51590315  0.36856567  0.75894072  1  0.000431  0  -0.004818  -0.027012  0  3.947724  0
C  C18  1  0.56898620  0.37110089  0.36820978  1  -0.100153  0  -0.005452  -0.033155  0  3.956009  0
C  C19  1  0.66029915  0.80741934  0.27864980  1  -0.049059  0  -0.077849  -0.088322  0  3.968759  0
C  C20  1  0.65184380  0.90902698  0.22632349  1  0.037536  0  -0.078475  -0.102218  0  3.970963  0
C  C21  1  0.65638574  0.40998563  0.80945500  1  -0.065422  0  -0.07773  -0.089919  0  3.967896  0
C  C22  1  0.64596281  0.36080387  0.91071612  1  0.022638  0  -0.079381  -0.101671  0  3.969367  0
C  C23  1  0.72990243  0.27844666  0.40698321  1  0.044429  0  -0.076367  -0.08465  0  3.963634  0
C  C24  1  0.72027843  0.22649218  0.35748659  1  -0.090677  0  -0.079509  -0.105551  0  3.965827  0
C  C25  1  0.41355768  0.41345207  0.27717658  1  -0.027381  0  -0.077879  -0.087634  0  3.970261  0
C  C26  1  0.42194395  0.36407719  0.22498362  1  -0.031333  0  -0.079459  -0.104122  0  3.969964  0
C  C27  1  0.37166401  0.27642407  0.81078491  1  0.052866  0  -0.07688  -0.087098  0  3.96259  0
C  C28  1  0.37826636  0.22478165  0.91214341  1  -0.095429  0  -0.078903  -0.104156  0  3.967869  0
C  C29  1  0.35664709  0.81134126  0.41287916  1  0.005467  0  -0.076934  -0.087719  0  3.964056  0
C  C30  1  0.36790723  0.91289744  0.36314231  1  -0.053001  0  -0.079383  -0.103432  0  3.966997  0
C  C31  1  0.51170508  0.96233941  0.26904854  1  -0.049886  0  -0.002491  0.009647  0  3.975129  0
C  C32  1  0.51949486  0.07019885  0.21478699  1  1.028818  0  0.256299  0.382819  0  4.013719  0
C  C33  1  0.51239812  0.26711510  0.96280563  1  -0.135058  0  -0.002627  0.009236  0  3.969802  0
C  C34  1  0.51828128  0.21350351  0.07045817  1  1.137701  0  0.256446  0.382667  0  4.012997  0
C  C35  1  0.56742170  0.26921159  0.26596471  1  -0.009891  0  -0.001864  0.013739  0  3.968348  0
C  C36  1  0.55078893  0.21440088  0.21322056  1  1.115866  0  0.256521  0.382309  0  4.014507  0
N  N37  1  0.50470858  0.11534207  0.11687985  1  -1.144876  0  -0.309705  -0.413098  0  3.196786  0
N  N38  1  0.53992751  0.26641273  0.11529864  1  -1.246491  0  -0.309683  -0.412697  0  3.204232  0
N  N39  1  0.54327251  0.11614436  0.26659004  1  -1.17053  0  -0.309801  -0.414858  0  3.192318  0
O  O40  1  0.29767050  0.40376418  0.60699417  1  -1.259705  0  -0.237693  -0.596363  0  2.366795  0
O  O41  1  0.27663159  0.60667994  0.48763436  1  -1.259788  0  -0.237479  -0.594159  0  2.354517  0
O  O42  1  0.31358501  0.48653474  0.40607139  1  -1.253605  0  -0.237959  -0.598962  0  2.374666  0
O  O43  1  0.75235175  0.48470604  0.60745834  1  -1.25731  0  -0.23752  -0.597583  0  2.371776  0
O  O44  1  0.78749592  0.40433342  0.48584058  1  -1.261303  0  -0.237186  -0.594438  0  2.360585  0
O  O45  1  0.75867744  0.60536427  0.40723619  1  -1.263308  0  -0.238028  -0.599686  0  2.377193  0
