# generated using pymatgen
data_UP2H24C18(NO7)2
_symmetry_space_group_name_H-M   'P 1'
_cell_length_a   6.85359953
_cell_length_b   8.21825329
_cell_length_c   11.86380457
_cell_angle_alpha   81.80770397
_cell_angle_beta   83.39738602
_cell_angle_gamma   86.78169505
_symmetry_Int_Tables_number   1
_chemical_formula_structural   UP2H24C18(NO7)2
_chemical_formula_sum   'U1 P2 H24 C18 N2 O14'
_cell_volume   656.48122624
_cell_formula_units_Z   1
loop_
 _symmetry_equiv_pos_site_id
 _symmetry_equiv_pos_as_xyz
  1  'x, y, z'
loop_
 _atom_site_type_symbol
 _atom_site_label
 _atom_site_symmetry_multiplicity
 _atom_site_fract_x
 _atom_site_fract_y
 _atom_site_fract_z
 _atom_site_occupancy
 _atom_site_hle17_bader_spin_density
 _atom_site_hle17_ddec_charge
 _atom_site_hle17_ddec_spin_density
 _atom_site_hle17_ddec_sum_bond_order
 _atom_site_hle17_magmom
 _atom_site_hse06_10hf_bader_spin_density
 _atom_site_hse06_10hf_ddec_charge
 _atom_site_hse06_10hf_ddec_spin_density
 _atom_site_hse06_10hf_ddec_sum_bond_order
 _atom_site_hse06_10hf_magmom
 _atom_site_hse06_bader_spin_density
 _atom_site_hse06_ddec_charge
 _atom_site_hse06_ddec_spin_density
 _atom_site_hse06_ddec_sum_bond_order
 _atom_site_hse06_magmom
 _atom_site_pbe_bader_spin_density
 _atom_site_pbe_cm5_charge
 _atom_site_pbe_ddec_charge
 _atom_site_pbe_ddec_spin_density
 _atom_site_pbe_ddec_sum_bond_order
 _atom_site_pbe_magmom
U  U0  1  0.49998797  0.99999711  0.49999691  1  0  2.447372  0  4.14505  0  0  2.498673  0  4.807634  0  0  2.611073  0  4.767123  0  0  2.184075  2.419629  0  4.836358  0
P  P1  1  0.40449690  0.66980535  0.76260948  1  0  1.432308  0  4.619571  0  0  1.289669  0  5.106292  0  0  1.341975  0  5.066659  0  0  0.429386  1.253009  0  5.133093  0
P  P2  1  0.59550249  0.33019582  0.23739404  1  0  1.432296  0  4.619479  0  0  1.289756  0  5.106275  0  0  1.342112  0  5.066582  0  0  0.429335  1.253075  0  5.133093  0
H  H3  1  0.59265361  0.02497854  0.77884086  1  0  0.099046  0  0.972849  0  0  0.105963  0  1.041231  0  0  0.108693  0  1.039816  0  0  0.105895  0.104034  0  1.042292  0
H  H4  1  0.40733165  0.97503244  0.22117257  1  0  0.099012  0  0.972769  0  0  0.105911  0  1.041211  0  0  0.108652  0  1.039778  0  0  0.105892  0.103974  0  1.042246  0
H  H5  1  0.88432164  0.13983474  0.83067898  1  0  0.090462  0  0.987132  0  0  0.09657  0  1.056097  0  0  0.09993  0  1.053658  0  0  0.097761  0.094191  0  1.057865  0
H  H6  1  0.11566616  0.86018607  0.16932740  1  0  0.090383  0  0.987232  0  0  0.09644  0  1.056284  0  0  0.099801  0  1.053808  0  0  0.097724  0.094065  0  1.05801  0
H  H7  1  0.90029357  0.75506896  0.11972418  1  0  0.096356  0  0.973338  0  0  0.103137  0  1.040174  0  0  0.106757  0  1.037343  0  0  0.098315  0.100567  0  1.042183  0
H  H8  1  0.09975783  0.24490907  0.88025687  1  0  0.096405  0  0.973373  0  0  0.103118  0  1.04024  0  0  0.106731  0  1.03744  0  0  0.098323  0.100542  0  1.042275  0
H  H9  1  0.61085089  0.64046460  0.06445835  1  0  0.089819  0  0.990267  0  0  0.095916  0  1.059192  0  0  0.09924  0  1.057356  0  0  0.095016  0.093561  0  1.060492  0
H  H10  1  0.38918973  0.35951469  0.93553667  1  0  0.089882  0  0.99051  0  0  0.096003  0  1.059374  0  0  0.099324  0  1.057545  0  0  0.095058  0.093652  0  1.060671  0
H  H11  1  0.27612084  0.85774877  0.88283671  1  0  0.152703  0  0.945696  0  0  0.16708  0  1.001406  0  0  0.168708  0  1.002867  0  0  0.119764  0.165729  0  1.000824  0
H  H12  1  0.72388042  0.14224019  0.11717806  1  0  0.152886  0  0.945538  0  0  0.167184  0  1.001401  0  0  0.168813  0  1.002857  0  0  0.119822  0.165831  0  1.000817  0
H  H13  1  0.33205732  0.66568889  0.96284549  1  0  0.154249  0  0.913628  0  0  0.168858  0  0.96523  0  0  0.171818  0  0.964057  0  0  0.119731  0.166757  0  0.966114  0
H  H14  1  0.66796511  0.33429403  0.03716113  1  0  0.15422  0  0.913773  0  0  0.168918  0  0.965288  0  0  0.171879  0  0.964115  0  0  0.119756  0.166818  0  0.966171  0
H  H15  1  0.04126800  0.80407370  0.70984364  1  0  0.091435  0  0.949499  0  0  0.107077  0  1.016335  0  0  0.107997  0  1.015941  0  0  0.107865  0.10636  0  1.016686  0
H  H16  1  0.95873186  0.19594592  0.29015461  1  0  0.09138  0  0.949546  0  0  0.107063  0  1.016341  0  0  0.107979  0  1.015929  0  0  0.10789  0.106343  0  1.016683  0
H  H17  1  0.90502623  0.62376442  0.76309516  1  0  0.102634  0  0.936879  0  0  0.118909  0  0.998502  0  0  0.119922  0  0.998287  0  0  0.105933  0.118054  0  0.998765  0
H  H18  1  0.09496477  0.37626362  0.23688839  1  0  0.102589  0  0.936761  0  0  0.118882  0  0.998361  0  0  0.119896  0  0.998141  0  0  0.105944  0.118028  0  0.998622  0
H  H19  1  0.03809917  0.64228069  0.62256854  1  0  0.105388  0  0.92377  0  0  0.118507  0  0.989107  0  0  0.120409  0  0.98671  0  0  0.10863  0.117059  0  0.990872  0
H  H20  1  0.96191961  0.35774154  0.37742923  1  0  0.105436  0  0.923642  0  0  0.118479  0  0.98907  0  0  0.120377  0  0.986682  0  0  0.108613  0.117029  0  0.990837  0
H  H21  1  0.47536997  0.31399533  0.71517921  1  0  0.090256  0  0.948214  0  0  0.102054  0  1.022033  0  0  0.102486  0  1.022169  0  0  0.105563  0.101672  0  1.022004  0
H  H22  1  0.52461539  0.68599344  0.28482888  1  0  0.090141  0  0.948034  0  0  0.101968  0  1.021891  0  0  0.102405  0  1.022021  0  0  0.105523  0.10159  0  1.02186  0
H  H23  1  0.73405664  0.34759638  0.70090059  1  0  0.113766  0  0.954098  0  0  0.131693  0  1.013372  0  0  0.132446  0  1.012945  0  0  0.112159  0.131043  0  1.013834  0
H  H24  1  0.26592137  0.65240568  0.29908212  1  0  0.113673  0  0.954198  0  0  0.13157  0  1.013593  0  0  0.132319  0  1.013134  0  0  0.112125  0.130918  0  1.014013  0
H  H25  1  0.58203717  0.47205966  0.60754982  1  0  0.10269  0  0.928572  0  0  0.118688  0  0.992002  0  0  0.12047  0  0.989707  0  0  0.113183  0.117302  0  0.99375  0
H  H26  1  0.41790893  0.52792991  0.39244690  1  0  0.102624  0  0.928481  0  0  0.118651  0  0.991944  0  0  0.120435  0  0.989642  0  0  0.113184  0.117264  0  0.993701  0
C  C27  1  0.57818766  0.82499180  0.91894220  1  0  0.14544  0  3.768997  0  0  0.158508  0  4.010546  0  0  0.159383  0  4.036624  0  0  -0.009424  0.157867  0  3.992997  0
C  C28  1  0.42182795  0.17500828  0.08106053  1  0  0.145464  0  3.769052  0  0  0.158524  0  4.010682  0  0  0.159398  0  4.036768  0  0  -0.009422  0.157877  0  3.993141  0
C  C29  1  0.65947373  0.96543438  0.85385097  1  0  -0.113832  0  3.722586  0  0  -0.132926  0  3.971562  0  0  -0.135983  0  3.994607  0  0  -0.08763  -0.130616  0  3.955887  0
C  C30  1  0.34052539  0.03457170  0.14615122  1  0  -0.113886  0  3.722403  0  0  -0.132945  0  3.97137  0  0  -0.136012  0  3.994402  0  0  -0.087607  -0.130616  0  3.955706  0
C  C31  1  0.82534152  0.03124979  0.88432779  1  0  -0.10069  0  3.727084  0  0  -0.121835  0  3.981034  0  0  -0.124686  0  4.002341  0  0  -0.090645  -0.119806  0  3.966555  0
C  C32  1  0.17465481  0.96875381  0.11567481  1  0  -0.100442  0  3.727099  0  0  -0.121531  0  3.981101  0  0  -0.12438  0  4.00239  0  0  -0.090619  -0.119499  0  3.966593  0
C  C33  1  0.91566202  0.96127092  0.98181495  1  0  0.034854  0  3.787626  0  0  0.04697  0  4.024627  0  0  0.046984  0  4.048695  0  0  -0.015086  0.047122  0  4.008333  0
C  C34  1  0.08435407  0.03872298  0.01818501  1  0  0.034746  0  3.787522  0  0  0.046738  0  4.024628  0  0  0.046753  0  4.048694  0  0  -0.015073  0.046889  0  4.008339  0
C  C35  1  0.83679504  0.81638870  0.04405099  1  0  -0.105051  0  3.733425  0  0  -0.127594  0  3.987971  0  0  -0.129772  0  4.008085  0  0  -0.094862  -0.126146  0  3.974351  0
C  C36  1  0.16324070  0.18360037  0.95593993  1  0  -0.104956  0  3.733234  0  0  -0.127393  0  3.987785  0  0  -0.129568  0  4.007911  0  0  -0.094739  -0.125946  0  3.974182  0
C  C37  1  0.67191668  0.74989100  0.01274371  1  0  -0.122542  0  3.744614  0  0  -0.142275  0  3.998426  0  0  -0.145418  0  4.020191  0  0  -0.097291  -0.139985  0  3.983644  0
C  C38  1  0.32810982  0.25010295  0.98725145  1  0  -0.122717  0  3.744879  0  0  -0.142465  0  3.998681  0  0  -0.145609  0  4.020445  0  0  -0.097425  -0.140176  0  3.98391  0
C  C39  1  0.39040770  0.75865719  0.89297844  1  0  -0.491682  0  3.715367  0  0  -0.514446  0  3.95151  0  0  -0.524343  0  3.959167  0  0  -0.149144  -0.50767  0  3.946763  0
C  C40  1  0.60961428  0.24133190  0.10703010  1  0  -0.491745  0  3.715373  0  0  -0.514573  0  3.951632  0  0  -0.524484  0  3.959296  0  0  -0.149194  -0.507788  0  3.946883  0
C  C41  1  0.03627680  0.67091671  0.71001500  1  0  -0.018582  0  3.533784  0  0  -0.11369  0  3.793079  0  0  -0.106285  0  3.795003  0  0  -0.121796  -0.118543  0  3.791779  0
C  C42  1  0.96372361  0.32909428  0.28998325  1  0  -0.018509  0  3.53349  0  0  -0.113569  0  3.792758  0  0  -0.106153  0  3.794668  0  0  -0.121841  -0.118421  0  3.791447  0
C  C43  1  0.58819345  0.40586780  0.69419592  1  0  -0.032118  0  3.533661  0  0  -0.130157  0  3.79695  0  0  -0.122189  0  3.798224  0  0  -0.124252  -0.135428  0  3.796175  0
C  C44  1  0.41177887  0.59412446  0.30580074  1  0  -0.031741  0  3.533333  0  0  -0.129794  0  3.796852  0  0  -0.121796  0  3.798075  0  0  -0.124191  -0.135076  0  3.796044  0
N  N45  1  0.81720596  0.79111502  0.38952690  1  0  0.680856  0  4.155394  0  0  0.718203  0  4.456547  0  0  0.749772  0  4.46089  0  0  0.098851  0.710669  0  4.433117  0
N  N46  1  0.18278162  0.20888850  0.61047451  1  0  0.68054  0  4.156176  0  0  0.732481  0  4.436598  0  0  0.749569  0  4.461509  0  0  0.098724  0.71044  0  4.433785  0
O  O47  1  0.32073123  0.90453254  0.43317112  1  0  -0.701693  0  1.540644  0  0  -0.705289  0  1.818158  0  0  -0.725908  0  1.805784  0  0  -0.762474  -0.693426  0  1.827419  0
O  O48  1  0.67926477  0.09545623  0.56682543  1  0  -0.701722  0  1.540288  0  0  -0.705319  0  1.817763  0  0  -0.725948  0  1.805396  0  0  -0.762407  -0.693462  0  1.827046  0
O  O49  1  0.45605105  0.79105257  0.65781323  1  0  -0.849591  0  2.100042  0  0  -0.800518  0  2.387793  0  0  -0.833527  0  2.371898  0  0  -0.411272  -0.776457  0  2.397515  0
O  O50  1  0.54393526  0.20894725  0.34218947  1  0  -0.849611  0  2.100072  0  0  -0.800528  0  2.387809  0  0  -0.833545  0  2.371903  0  0  -0.411248  -0.776463  0  2.397544  0
O  O51  1  0.20401540  0.58430707  0.76085614  1  0  -0.470644  0  2.258607  0  0  -0.382771  0  2.510832  0  0  -0.404536  0  2.503408  0  0  -0.211796  -0.36758  0  2.515584  0
O  O52  1  0.79597743  0.41570149  0.23915458  1  0  -0.470727  0  2.258591  0  0  -0.382831  0  2.51078  0  0  -0.404611  0  2.503333  0  0  -0.211751  -0.367633  0  2.515517  0
O  O53  1  0.55910809  0.52035767  0.77903096  1  0  -0.465134  0  2.25848  0  0  -0.377144  0  2.511601  0  0  -0.399103  0  2.504036  0  0  -0.207929  -0.361762  0  2.516506  0
O  O54  1  0.44087708  0.47963842  0.22096882  1  0  -0.46518  0  2.258409  0  0  -0.377387  0  2.511733  0  0  -0.39937  0  2.504158  0  0  -0.207931  -0.361971  0  2.516603  0
O  O55  1  0.75671217  0.93158876  0.33938019  1  0  -0.498946  0  1.810368  0  0  -0.512802  0  2.059422  0  0  -0.537751  0  2.057507  0  0  -0.210187  -0.499399  0  2.054627  0
O  O56  1  0.24327403  0.06841593  0.66061612  1  0  -0.498767  0  1.810672  0  0  -0.517389  0  2.054234  0  0  -0.537576  0  2.057748  0  0  -0.210076  -0.499214  0  2.054886  0
O  O57  1  0.94330245  0.70303224  0.34329890  1  0  -0.353117  0  1.79809  0  0  -0.34155  0  1.994146  0  0  -0.354044  0  1.98724  0  0  -0.114092  -0.337186  0  1.992537  0
O  O58  1  0.05669556  0.29697011  0.65669952  1  0  -0.353053  0  1.79836  0  0  -0.346547  0  1.988134  0  0  -0.354053  0  1.987486  0  0  -0.114091  -0.337181  0  1.992799  0
O  O59  1  0.73236204  0.74974471  0.49128426  1  0  -0.482381  0  1.808503  0  0  -0.494084  0  2.046801  0  0  -0.518969  0  2.044281  0  0  -0.202299  -0.480801  0  2.04231  0
O  O60  1  0.26761995  0.25025506  0.50871616  1  0  -0.482252  0  1.80861  0  0  -0.498809  0  2.041342  0  0  -0.518885  0  2.044363  0  0  -0.202244  -0.480712  0  2.042424  0
