# generated using pymatgen
data_CdH26C28Br2(N5O3)2
_symmetry_space_group_name_H-M   'P 1'
_cell_length_a   8.24268799
_cell_length_b   8.89438626
_cell_length_c   11.63753291
_cell_angle_alpha   84.22241833
_cell_angle_beta   75.22152561
_cell_angle_gamma   69.83821248
_symmetry_Int_Tables_number   1
_chemical_formula_structural   CdH26C28Br2(N5O3)2
_chemical_formula_sum   'Cd1 H26 C28 Br2 N10 O6'
_cell_volume   774.33817040
_cell_formula_units_Z   1
loop_
 _symmetry_equiv_pos_site_id
 _symmetry_equiv_pos_as_xyz
  1  'x, y, z'
loop_
 _atom_site_type_symbol
 _atom_site_label
 _atom_site_symmetry_multiplicity
 _atom_site_fract_x
 _atom_site_fract_y
 _atom_site_fract_z
 _atom_site_occupancy
 _atom_site_hle17_bader_spin_density
 _atom_site_hle17_ddec_charge
 _atom_site_hle17_ddec_spin_density
 _atom_site_hle17_ddec_sum_bond_order
 _atom_site_hle17_magmom
 _atom_site_hse06_10hf_bader_spin_density
 _atom_site_hse06_10hf_ddec_charge
 _atom_site_hse06_10hf_ddec_spin_density
 _atom_site_hse06_10hf_ddec_sum_bond_order
 _atom_site_hse06_10hf_magmom
 _atom_site_hse06_bader_spin_density
 _atom_site_hse06_ddec_charge
 _atom_site_hse06_ddec_spin_density
 _atom_site_hse06_ddec_sum_bond_order
 _atom_site_hse06_magmom
 _atom_site_pbe_bader_spin_density
 _atom_site_pbe_cm5_charge
 _atom_site_pbe_ddec_charge
 _atom_site_pbe_ddec_spin_density
 _atom_site_pbe_ddec_sum_bond_order
 _atom_site_pbe_magmom
Cd  Cd0  1  0.50000052  0.99999869  0.00000045  1  0  1.059771  0  1.789885  0  0  0.860936  0  2.237685  0  0  0.909596  0  2.195818  0  0  0.793179  0.826442  0  2.266342  0
H  H1  1  0.21938621  0.69913301  0.70850977  1  0  0.110225  0  0.979244  0  0  0.113999  0  1.053743  0  0  0.118116  0  1.050244  0  0  0.099564  0.1109  0  1.056504  0
H  H2  1  0.78060839  0.30086946  0.29149014  1  0  0.110234  0  0.979188  0  0  0.113997  0  1.053712  0  0  0.118113  0  1.050213  0  0  0.099574  0.110902  0  1.056475  0
H  H3  1  0.30791562  0.53729839  0.35315454  1  0  0.11033  0  0.958486  0  0  0.118161  0  1.024402  0  0  0.121099  0  1.023883  0  0  0.102215  0.116063  0  1.024842  0
H  H4  1  0.69208912  0.46270046  0.64684633  1  0  0.110319  0  0.958447  0  0  0.118133  0  1.024385  0  0  0.12107  0  1.023868  0  0  0.102245  0.116036  0  1.024822  0
H  H5  1  0.15625302  0.25107567  0.65615587  1  0  0.112116  0  0.978134  0  0  0.118564  0  1.04994  0  0  0.122197  0  1.047223  0  0  0.100101  0.115884  0  1.05206  0
H  H6  1  0.84374789  0.74892679  0.34384459  1  0  0.11208  0  0.978146  0  0  0.118534  0  1.049953  0  0  0.122167  0  1.047234  0  0  0.100088  0.115854  0  1.052074  0
H  H7  1  0.14207100  0.32733559  0.85434908  1  0  0.100639  0  0.940678  0  0  0.112024  0  1.006874  0  0  0.113937  0  1.004997  0  0  0.113089  0.110468  0  1.008431  0
H  H8  1  0.85792907  0.67266567  0.14564991  1  0  0.100627  0  0.940677  0  0  0.112017  0  1.006857  0  0  0.113942  0  1.004967  0  0  0.113084  0.110461  0  1.008414  0
H  H9  1  0.19180142  0.50077779  0.87546898  1  0  0.097615  0  0.918275  0  0  0.111834  0  0.978532  0  0  0.112652  0  0.978832  0  0  0.117009  0.111154  0  0.978425  0
H  H10  1  0.80819911  0.49922227  0.12453173  1  0  0.097625  0  0.918249  0  0  0.111845  0  0.978501  0  0  0.112662  0  0.978803  0  0  0.117022  0.111163  0  0.978397  0
H  H11  1  0.81154341  0.36220971  0.86328418  1  0  0.115262  0  0.97261  0  0  0.125108  0  1.0346  0  0  0.12732  0  1.034284  0  0  0.118049  0.123462  0  1.034968  0
H  H12  1  0.18845712  0.63779035  0.13671653  1  0  0.115255  0  0.972619  0  0  0.125082  0  1.034638  0  0  0.127294  0  1.034322  0  0  0.118041  0.123445  0  1.034995  0
H  H13  1  0.49892532  0.62098467  0.93346572  1  0  0.105447  0  0.97234  0  0  0.113886  0  1.035383  0  0  0.115997  0  1.034721  0  0  0.112326  0.112324  0  1.035967  0
H  H14  1  0.50107398  0.37901538  0.06653694  1  0  0.105441  0  0.972328  0  0  0.11388  0  1.035371  0  0  0.115991  0  1.034708  0  0  0.112305  0.112317  0  1.035958  0
H  H15  1  0.94110280  0.77205483  0.90223273  1  0  0.101067  0  0.957333  0  0  0.107165  0  1.029813  0  0  0.109772  0  1.026166  0  0  0.132188  0.105203  0  1.032469  0
H  H16  1  0.05889814  0.22794404  0.09776628  1  0  0.101061  0  0.957364  0  0  0.107152  0  1.029842  0  0  0.109758  0  1.026196  0  0  0.132188  0.10519  0  1.032499  0
H  H17  1  0.23308458  0.88270892  0.54163424  1  0  0.09463  0  0.936654  0  0  0.107202  0  1.004575  0  0  0.108466  0  1.002749  0  0  0.111204  0.106167  0  1.00602  0
H  H18  1  0.76691675  0.11729233  0.45836537  1  0  0.094611  0  0.936685  0  0  0.107185  0  1.004589  0  0  0.108455  0  1.002758  0  0  0.111207  0.106148  0  1.006036  0
H  H19  1  0.45332010  0.76434791  0.48016444  1  0  0.090692  0  0.944613  0  0  0.10698  0  1.005388  0  0  0.107231  0  1.00643  0  0  0.11314  0.106704  0  1.004795  0
H  H20  1  0.54667958  0.23565096  0.51983480  1  0  0.090685  0  0.944628  0  0  0.106981  0  1.005394  0  0  0.107232  0  1.006436  0  0  0.113121  0.106705  0  1.004803  0
H  H21  1  0.55705226  0.82960466  0.27150017  1  0  0.097483  0  0.972296  0  0  0.101845  0  1.047272  0  0  0.104805  0  1.043118  0  0  0.12999  0.099589  0  1.050371  0
H  H22  1  0.44294532  0.17039660  0.72850100  1  0  0.097536  0  0.972212  0  0  0.101927  0  1.047147  0  0  0.104888  0  1.042992  0  0  0.129998  0.099666  0  1.050257  0
H  H23  1  0.09603148  0.94754753  0.14106459  1  0  0.108924  0  0.963513  0  0  0.114293  0  1.030257  0  0  0.116612  0  1.028923  0  0  0.117552  0.112505  0  1.031477  0
H  H24  1  0.90396865  0.05245014  0.85893552  1  0  0.108954  0  0.963497  0  0  0.114328  0  1.030237  0  0  0.116646  0  1.028902  0  0  0.117561  0.112541  0  1.031453  0
H  H25  1  0.01381503  0.86991552  0.38385226  1  0  0.111759  0  0.979096  0  0  0.117734  0  1.049611  0  0  0.121054  0  1.047124  0  0  0.115346  0.115303  0  1.051542  0
H  H26  1  0.98618340  0.13008335  0.61614721  1  0  0.111771  0  0.979105  0  0  0.117744  0  1.049622  0  0  0.121071  0  1.047115  0  0  0.115356  0.115313  0  1.051554  0
C  C27  1  0.17940883  0.47410915  0.69613242  1  0  0.094761  0  3.76362  0  0  0.115419  0  4.006929  0  0  0.115406  0  4.031034  0  0  -0.012544  0.115383  0  3.990522  0
C  C28  1  0.82059167  0.52589091  0.30386658  1  0  0.094711  0  3.763649  0  0  0.115358  0  4.006971  0  0  0.115345  0  4.03108  0  0  -0.012554  0.115325  0  3.990578  0
C  C29  1  0.22259338  0.60998999  0.64913704  1  0  -0.171535  0  3.695293  0  0  -0.202836  0  3.943274  0  0  -0.206032  0  3.962841  0  0  -0.09684  -0.200625  0  3.9302  0
C  C30  1  0.77740204  0.39001368  0.35086263  1  0  -0.171552  0  3.695321  0  0  -0.202838  0  3.943304  0  0  -0.206035  0  3.962875  0  0  -0.096833  -0.200604  0  3.930163  0
C  C31  1  0.26776017  0.63445355  0.52612805  1  0  0.100077  0  3.740407  0  0  0.12447  0  3.979017  0  0  0.124789  0  4.002517  0  0  -0.00742  0.124221  0  3.963035  0
C  C32  1  0.73223866  0.36554771  0.47387289  1  0  0.10013  0  3.740254  0  0  0.124497  0  3.978887  0  0  0.124815  0  4.00239  0  0  -0.007428  0.124252  0  3.962909  0
C  C33  1  0.27243326  0.52097036  0.44921773  1  0  -0.174429  0  3.730368  0  0  -0.207822  0  3.981796  0  0  -0.211349  0  4.002385  0  0  -0.101857  -0.205358  0  3.967904  0
C  C34  1  0.72757058  0.47903089  0.55078140  1  0  -0.174376  0  3.730256  0  0  -0.207755  0  3.981687  0  0  -0.211281  0  4.002277  0  0  -0.101851  -0.205291  0  3.967793  0
C  C35  1  0.23119647  0.38492442  0.49758839  1  0  0.100669  0  3.753758  0  0  0.121026  0  4.017532  0  0  0.124965  0  4.038942  0  0  -0.018029  0.118227  0  4.003088  0
C  C36  1  0.76880235  0.61507685  0.50241168  1  0  0.100617  0  3.75371  0  0  0.121009  0  4.017439  0  0  0.124947  0  4.038848  0  0  -0.018047  0.118207  0  4.002997  0
C  C37  1  0.18414461  0.35980509  0.61993945  1  0  -0.190086  0  3.74662  0  0  -0.222816  0  4.000931  0  0  -0.226689  0  4.021021  0  0  -0.106307  -0.220114  0  3.987461  0
C  C38  1  0.81585800  0.64019616  0.38006078  1  0  -0.190006  0  3.746531  0  0  -0.222745  0  4.000822  0  0  -0.226615  0  4.020909  0  0  -0.106295  -0.220046  0  3.987359  0
C  C39  1  0.11932799  0.45390710  0.82900846  1  0  -0.053099  0  3.624321  0  0  -0.116231  0  3.863932  0  0  -0.112267  0  3.874128  0  0  -0.049231  -0.118661  0  3.856961  0
C  C40  1  0.88067085  0.54609415  0.17099248  1  0  -0.053099  0  3.62433  0  0  -0.11621  0  3.863917  0  0  -0.112255  0  3.87411  0  0  -0.049249  -0.118643  0  3.856953  0
C  C41  1  0.78958135  0.48580475  0.88117323  1  0  -0.069037  0  3.675724  0  0  -0.106945  0  3.932995  0  0  -0.105546  0  3.951461  0  0  -0.004403  -0.107816  0  3.920651  0
C  C42  1  0.21041541  0.51419532  0.11882818  1  0  -0.069047  0  3.675767  0  0  -0.106936  0  3.933052  0  0  -0.105537  0  3.951519  0  0  -0.004394  -0.107814  0  3.920702  0
C  C43  1  0.63682994  0.61390849  0.91681459  1  0  -0.009123  0  3.776104  0  0  -0.043604  0  4.044522  0  0  -0.041085  0  4.063813  0  0  -0.010681  -0.045279  0  4.031466  0
C  C44  1  0.36316889  0.38609276  0.08318635  1  0  -0.009102  0  3.776155  0  0  -0.043588  0  4.044575  0  0  -0.041071  0  4.063867  0  0  -0.010651  -0.045263  0  4.031522  0
C  C45  1  0.85927181  0.69969702  0.90051802  1  0  0.160326  0  3.65495  0  0  0.096692  0  3.929871  0  0  0.110593  0  3.942551  0  0  0.133963  0.087731  0  3.920986  0
C  C46  1  0.14072915  0.30030184  0.09948185  1  0  0.160324  0  3.655032  0  0  0.096723  0  3.929918  0  0  0.110624  0  3.942598  0  0  0.133986  0.08776  0  3.921039  0
C  C47  1  0.31413313  0.78342550  0.48088264  1  0  -0.044714  0  3.643622  0  0  -0.110921  0  3.884376  0  0  -0.106564  0  3.894548  0  0  -0.04591  -0.113669  0  3.877434  0
C  C48  1  0.68586487  0.21657457  0.51911768  1  0  -0.044754  0  3.643629  0  0  -0.110945  0  3.88435  0  0  -0.106592  0  3.89452  0  0  -0.045882  -0.113693  0  3.877406  0
C  C49  1  0.42240489  0.84699810  0.26627315  1  0  0.160563  0  3.659477  0  0  0.100849  0  3.92211  0  0  0.115109  0  3.934285  0  0  0.13434  0.091647  0  3.913588  0
C  C50  1  0.57759649  0.15299957  0.73372587  1  0  0.160427  0  3.659427  0  0  0.100702  0  3.922049  0  0  0.114961  0  3.934226  0  0  0.134313  0.091499  0  3.913525  0
C  C51  1  0.17901885  0.91040707  0.20438558  1  0  -0.003885  0  3.762407  0  0  -0.036085  0  4.032521  0  0  -0.034075  0  4.052436  0  0  -0.008695  -0.037491  0  4.019204  0
C  C52  1  0.82098208  0.08959180  0.79561257  1  0  -0.003913  0  3.762572  0  0  -0.036123  0  4.032678  0  0  -0.034113  0  4.052594  0  0  -0.008682  -0.037528  0  4.019356  0
C  C53  1  0.13666201  0.87250127  0.32333343  1  0  -0.071546  0  3.675574  0  0  -0.112897  0  3.938556  0  0  -0.111543  0  3.956972  0  0  -0.005199  -0.113711  0  3.926249  0
C  C54  1  0.86333856  0.12749520  0.67666668  1  0  -0.071605  0  3.675735  0  0  -0.112955  0  3.938716  0  0  -0.1116  0  3.957137  0  0  -0.005221  -0.113769  0  3.926407  0
Br  Br55  1  0.24270119  0.22682731  0.39396994  1  0  -0.041925  0  1.307671  0  0  -0.031467  0  1.563351  0  0  -0.038  0  1.561097  0  0  0.059244  -0.026827  0  1.565045  0
Br  Br56  1  0.75728799  0.77317636  0.60603347  1  0  -0.041944  0  1.30761  0  0  -0.031508  0  1.563295  0  0  -0.038039  0  1.561041  0  0  0.059218  -0.026864  0  1.56499  0
N  N57  1  0.68220773  0.74616038  0.92873830  1  0  -0.391371  0  3.261064  0  0  -0.318102  0  3.546233  0  0  -0.338775  0  3.564263  0  0  -0.361726  -0.30389  0  3.533476  0
N  N58  1  0.31779404  0.25383968  0.07126132  1  0  -0.391363  0  3.261072  0  0  -0.318099  0  3.546248  0  0  -0.338772  0  3.564278  0  0  -0.361729  -0.303888  0  3.533494  0
N  N59  1  0.92912680  0.54233123  0.87184771  1  0  -0.062422  0  3.575823  0  0  0.031252  0  3.794763  0  0  0.016185  0  3.821618  0  0  -0.243223  0.041219  0  3.77639  0
N  N60  1  0.07087291  0.45766763  0.12815325  1  0  -0.062425  0  3.575887  0  0  0.031236  0  3.794819  0  0  0.016169  0  3.821678  0  0  -0.243237  0.041202  0  3.776453  0
N  N61  1  0.35740458  0.89403747  0.17010477  1  0  -0.384115  0  3.248755  0  0  -0.309579  0  3.528233  0  0  -0.330038  0  3.545494  0  0  -0.362128  -0.295518  0  3.516042  0
N  N62  1  0.64259767  0.10595781  0.82989341  1  0  -0.384067  0  3.248844  0  0  -0.309533  0  3.528324  0  0  -0.329992  0  3.545585  0  0  -0.362119  -0.295471  0  3.51613  0
N  N63  1  0.29278775  0.83149857  0.36086803  1  0  -0.065241  0  3.604149  0  0  0.031314  0  3.816586  0  0  0.016681  0  3.842457  0  0  -0.248288  0.041  0  3.798858  0
N  N64  1  0.70721281  0.16849790  0.63913123  1  0  -0.065124  0  3.604138  0  0  0.031426  0  3.816552  0  0  0.016792  0  3.842427  0  0  -0.248294  0.041111  0  3.798822  0
N  N65  1  0.24166109  0.94391604  0.83935446  1  0  0.692692  0  4.154822  0  0  0.727502  0  4.448524  0  0  0.753857  0  4.454035  0  0  0.094108  0.70848  0  4.444788  0
N  N66  1  0.75833943  0.05608402  0.16064539  1  0  0.692714  0  4.154786  0  0  0.727552  0  4.448446  0  0  0.753893  0  4.453977  0  0  0.094127  0.70853  0  4.444716  0
O  O67  1  0.26063901  0.05096571  0.89710113  1  0  -0.529439  0  1.803521  0  0  -0.504422  0  2.047404  0  0  -0.521503  0  2.037613  0  0  -0.225092  -0.491836  0  2.053887  0
O  O68  1  0.73935982  0.94903555  0.10289895  1  0  -0.529436  0  1.803546  0  0  -0.504427  0  2.047415  0  0  -0.521506  0  2.037632  0  0  -0.225081  -0.49184  0  2.053896  0
O  O69  1  0.24586769  0.96721060  0.73021569  1  0  -0.464357  0  1.745391  0  0  -0.460184  0  1.964039  0  0  -0.472252  0  1.957463  0  0  -0.193583  -0.451164  0  1.968529  0
O  O70  1  0.75413155  0.03278947  0.26978354  1  0  -0.464385  0  1.745388  0  0  -0.460228  0  1.964013  0  0  -0.47229  0  1.95744  0  0  -0.193605  -0.45121  0  1.968508  0
O  O71  1  0.21631955  0.82078850  0.89351737  1  0  -0.468828  0  1.712253  0  0  -0.463884  0  1.922132  0  0  -0.47593  0  1.915274  0  0  -0.198863  -0.45491  0  1.926787  0
O  O72  1  0.78368096  0.17921156  0.10648248  1  0  -0.468819  0  1.712229  0  0  -0.463884  0  1.922111  0  0  -0.475925  0  1.91526  0  0  -0.198867  -0.45491  0  1.926767  0
