# generated using pymatgen
data_AgH3C5(NO)2
_symmetry_space_group_name_H-M   'P 1'
_cell_length_a   5.51496554
_cell_length_b   6.82928889
_cell_length_c   7.81307121
_cell_angle_alpha   105.02521262
_cell_angle_beta   87.11665081
_cell_angle_gamma   81.03456229
_symmetry_Int_Tables_number   1
_chemical_formula_structural   AgH3C5(NO)2
_chemical_formula_sum   'Ag2 H6 C10 N4 O4'
_cell_volume   279.46160538
_cell_formula_units_Z   2
loop_
 _symmetry_equiv_pos_site_id
 _symmetry_equiv_pos_as_xyz
  1  'x, y, z'
loop_
 _atom_site_type_symbol
 _atom_site_label
 _atom_site_symmetry_multiplicity
 _atom_site_fract_x
 _atom_site_fract_y
 _atom_site_fract_z
 _atom_site_occupancy
 _atom_site_hle17_bader_spin_density
 _atom_site_hle17_ddec_charge
 _atom_site_hle17_ddec_spin_density
 _atom_site_hle17_ddec_sum_bond_order
 _atom_site_hle17_magmom
 _atom_site_hse06_10hf_bader_spin_density
 _atom_site_hse06_10hf_ddec_charge
 _atom_site_hse06_10hf_ddec_spin_density
 _atom_site_hse06_10hf_ddec_sum_bond_order
 _atom_site_hse06_10hf_magmom
 _atom_site_hse06_bader_spin_density
 _atom_site_hse06_ddec_charge
 _atom_site_hse06_ddec_spin_density
 _atom_site_hse06_ddec_sum_bond_order
 _atom_site_hse06_magmom
 _atom_site_pbe_bader_spin_density
 _atom_site_pbe_cm5_charge
 _atom_site_pbe_ddec_charge
 _atom_site_pbe_ddec_spin_density
 _atom_site_pbe_ddec_sum_bond_order
 _atom_site_pbe_magmom
Ag  Ag0  1  0.98757840  0.78479452  0.60640055  1  0  0.571324  0  1.351636  0  0  0.43158  0  1.787767  0  0  0.462473  0  1.740401  0  0  0.441401  0.410826  0  1.820263  0
Ag  Ag1  1  0.01241742  0.21516759  0.39356072  1  0  0.571199  0  1.351904  0  0  0.431438  0  1.788107  0  0  0.462326  0  1.740742  0  0  0.441404  0.410696  0  1.820591  0
H  H2  1  0.71986633  0.13245037  0.97327053  1  0  0.082535  0  0.9296  0  0  0.090842  0  0.994888  0  0  0.093899  0  0.991236  0  0  0.118997  0.088519  0  0.997627  0
H  H3  1  0.28016547  0.86753650  0.02670656  1  0  0.082624  0  0.929849  0  0  0.09092  0  0.995122  0  0  0.093975  0  0.991469  0  0  0.119068  0.088597  0  0.997864  0
H  H4  1  0.31657138  0.36506520  0.07756552  1  0  0.131445  0  0.998319  0  0  0.132723  0  1.067218  0  0  0.138342  0  1.063843  0  0  0.109386  0.128587  0  1.069992  0
H  H5  1  0.68348381  0.63495691  0.92243564  1  0  0.131646  0  0.998061  0  0  0.132755  0  1.067145  0  0  0.138427  0  1.06369  0  0  0.109413  0.128621  0  1.069918  0
H  H6  1  0.01155432  0.38880991  0.83885784  1  0  0.089986  0  0.943411  0  0  0.100885  0  1.003357  0  0  0.103199  0  1.001137  0  0  0.123002  0.099124  0  1.005069  0
H  H7  1  0.98842076  0.61123479  0.16120078  1  0  0.090049  0  0.943581  0  0  0.100935  0  1.00351  0  0  0.103235  0  1.001321  0  0  0.123032  0.099186  0  1.005197  0
C  C8  1  0.47048594  0.05938096  0.59535243  1  0  0.307126  0  3.749132  0  0  0.28378  0  4.000292  0  0  0.296341  0  4.015433  0  0  0.251315  0.275177  0  3.990458  0
C  C9  1  0.52950705  0.94063731  0.40466629  1  0  0.306432  0  3.748778  0  0  0.283836  0  3.999148  0  0  0.296413  0  4.014275  0  0  0.251185  0.275205  0  3.989353  0
C  C10  1  0.58296799  0.14766130  0.87934531  1  0  0.192803  0  3.65105  0  0  0.156005  0  3.907562  0  0  0.166526  0  3.922994  0  0  0.072957  0.149122  0  3.897188  0
C  C11  1  0.41698896  0.85231024  0.12064248  1  0  0.192879  0  3.650757  0  0  0.156041  0  3.90732  0  0  0.166566  0  3.922746  0  0  0.07291  0.149152  0  3.89695  0
C  C12  1  0.35693512  0.27830215  0.93746675  1  0  -0.156454  0  3.648675  0  0  -0.164272  0  3.897797  0  0  -0.175553  0  3.918033  0  0  -0.074591  -0.157167  0  3.884805  0
C  C13  1  0.64308012  0.72173010  0.06253907  1  0  -0.156776  0  3.648523  0  0  -0.164419  0  3.897665  0  0  -0.175731  0  3.917873  0  0  -0.074682  -0.157315  0  3.884677  0
C  C14  1  0.19280834  0.29084003  0.80987794  1  0  0.189646  0  3.650047  0  0  0.155337  0  3.902267  0  0  0.165368  0  3.917712  0  0  0.071329  0.148688  0  3.89201  0
C  C15  1  0.80720999  0.70918208  0.19011246  1  0  0.189667  0  3.650363  0  0  0.155338  0  3.902547  0  0  0.165365  0  3.917994  0  0  0.071335  0.148693  0  3.892282  0
C  C16  1  0.52028971  0.54700958  0.60008229  1  0  0.518541  0  3.932473  0  0  0.47313  0  4.222955  0  0  0.502163  0  4.22038  0  0  0.181292  0.453306  0  4.223884  0
C  C17  1  0.47972153  0.45296731  0.39992223  1  0  0.518562  0  3.932622  0  0  0.473258  0  4.222979  0  0  0.502254  0  4.220449  0  0  0.18137  0.45343  0  4.22391  0
N  N18  1  0.64075267  0.03663796  0.70937134  1  0  -0.351383  0  3.226468  0  0  -0.284035  0  3.511436  0  0  -0.303229  0  3.523837  0  0  -0.31655  -0.271331  0  3.503088  0
N  N19  1  0.35918945  0.96335670  0.29062866  1  0  -0.351195  0  3.22588  0  0  -0.283974  0  3.510584  0  0  -0.303184  0  3.522991  0  0  -0.316401  -0.27126  0  3.502242  0
N  N20  1  0.25004514  0.18176257  0.63947310  1  0  -0.361539  0  3.218856  0  0  -0.300511  0  3.503598  0  0  -0.317827  0  3.513235  0  0  -0.316846  -0.289176  0  3.49748  0
N  N21  1  0.74992373  0.81822079  0.36050608  1  0  -0.361505  0  3.219167  0  0  -0.300612  0  3.50368  0  0  -0.317935  0  3.513317  0  0  -0.316942  -0.289268  0  3.497567  0
O  O22  1  0.34594099  0.67726160  0.70005121  1  0  -0.601635  0  2.109195  0  0  -0.527979  0  2.378304  0  0  -0.558195  0  2.370761  0  0  -0.336907  -0.506575  0  2.38251  0
O  O23  1  0.65406143  0.32271417  0.29995502  1  0  -0.601563  0  2.109556  0  0  -0.527903  0  2.378615  0  0  -0.558108  0  2.371087  0  0  -0.336836  -0.5065  0  2.382822  0
O  O24  1  0.72619369  0.48860436  0.65189576  1  0  -0.612259  0  2.076824  0  0  -0.547541  0  2.337717  0  0  -0.57356  0  2.327579  0  0  -0.324794  -0.529144  0  2.344069  0
O  O25  1  0.27383308  0.51139738  0.34811545  1  0  -0.612156  0  2.076709  0  0  -0.547558  0  2.337666  0  0  -0.57355  0  2.327535  0  0  -0.324847  -0.529194  0  2.344096  0
