# generated using pymatgen
data_NaPH8C12(NO4)2
_symmetry_space_group_name_H-M   'P 1'
_cell_length_a   7.05110300
_cell_length_b   9.75234463
_cell_length_c   11.27126008
_cell_angle_alpha   104.62920454
_cell_angle_beta   107.07740578
_cell_angle_gamma   104.74126018
_symmetry_Int_Tables_number   1
_chemical_formula_structural   NaPH8C12(NO4)2
_chemical_formula_sum   'Na2 P2 H16 C24 N4 O16'
_cell_volume   670.09892975
_cell_formula_units_Z   2
loop_
 _symmetry_equiv_pos_site_id
 _symmetry_equiv_pos_as_xyz
  1  'x, y, z'
loop_
 _atom_site_type_symbol
 _atom_site_label
 _atom_site_symmetry_multiplicity
 _atom_site_fract_x
 _atom_site_fract_y
 _atom_site_fract_z
 _atom_site_occupancy
 _atom_site_hle17_bader_spin_density
 _atom_site_hle17_ddec_charge
 _atom_site_hle17_ddec_spin_density
 _atom_site_hle17_ddec_sum_bond_order
 _atom_site_hle17_magmom
 _atom_site_hse06_10hf_bader_spin_density
 _atom_site_hse06_10hf_ddec_charge
 _atom_site_hse06_10hf_ddec_spin_density
 _atom_site_hse06_10hf_ddec_sum_bond_order
 _atom_site_hse06_10hf_magmom
 _atom_site_hse06_bader_spin_density
 _atom_site_hse06_ddec_charge
 _atom_site_hse06_ddec_spin_density
 _atom_site_hse06_ddec_sum_bond_order
 _atom_site_hse06_magmom
 _atom_site_pbe_bader_spin_density
 _atom_site_pbe_cm5_charge
 _atom_site_pbe_ddec_charge
 _atom_site_pbe_ddec_spin_density
 _atom_site_pbe_ddec_sum_bond_order
 _atom_site_pbe_magmom
Na  Na0  1  0.75673222  0.41030589  0.38922750  1  0  0.914048  0  0.373641  0  0  0.867816  0  0.531604  0  0  0.879825  0  0.507349  0  0  0.695195  0.858807  0  0.548972  0
Na  Na1  1  0.24318009  0.58964852  0.61075305  1  0  0.914096  0  0.373509  0  0  0.867788  0  0.531551  0  0  0.8798  0  0.507315  0  0  0.695129  0.858775  0  0.54893  0
P  P2  1  0.19404666  0.36860930  0.29383474  1  0  1.644781  0  4.847124  0  0  1.474967  0  5.370597  0  0  1.535522  0  5.317229  0  0  0.447055  1.431975  0  5.407388  0
P  P3  1  0.80592978  0.63135218  0.70613919  1  0  1.644614  0  4.846471  0  0  1.474789  0  5.369999  0  0  1.53534  0  5.31665  0  0  0.447162  1.431813  0  5.406755  0
H  H4  1  0.15472666  0.57384225  0.00463682  1  0  0.131403  0  0.960269  0  0  0.136094  0  1.026496  0  0  0.140331  0  1.023862  0  0  0.112529  0.133192  0  1.028309  0
H  H5  1  0.84522975  0.42623573  0.99536034  1  0  0.131373  0  0.959974  0  0  0.136014  0  1.026267  0  0  0.140249  0  1.023638  0  0  0.112549  0.133113  0  1.028081  0
H  H6  1  0.31625513  0.84658650  0.04251686  1  0  0.126993  0  0.937089  0  0  0.132686  0  0.999896  0  0  0.136565  0  0.996286  0  0  0.118531  0.130027  0  1.002092  0
H  H7  1  0.68373514  0.15334167  0.95744260  1  0  0.126985  0  0.936825  0  0  0.132764  0  0.999552  0  0  0.13664  0  0.995949  0  0  0.118526  0.130103  0  1.001744  0
H  H8  1  0.59701999  0.93845960  0.46226361  1  0  0.10606  0  0.975674  0  0  0.113422  0  1.043082  0  0  0.116104  0  1.041018  0  0  0.111202  0.111576  0  1.044466  0
H  H9  1  0.40304151  0.06151045  0.53775741  1  0  0.106112  0  0.975643  0  0  0.113384  0  1.043158  0  0  0.116065  0  1.041091  0  0  0.111241  0.111549  0  1.044525  0
H  H10  1  0.43930905  0.66611271  0.42616845  1  0  0.135489  0  0.959257  0  0  0.141863  0  1.02311  0  0  0.146361  0  1.020309  0  0  0.123696  0.138732  0  1.024978  0
H  H11  1  0.56062131  0.33391681  0.57383764  1  0  0.13552  0  0.959219  0  0  0.142027  0  1.022966  0  0  0.146525  0  1.020163  0  0  0.123803  0.138891  0  1.024838  0
H  H12  1  0.79350354  0.94833003  0.99163689  1  0  0.12751  0  0.956165  0  0  0.133724  0  1.02085  0  0  0.137622  0  1.018767  0  0  0.111589  0.130834  0  1.022739  0
H  H13  1  0.20647623  0.05167403  0.00838492  1  0  0.127596  0  0.956398  0  0  0.13399  0  1.020872  0  0  0.137889  0  1.018778  0  0  0.11166  0.131095  0  1.022784  0
H  H14  1  0.69298094  0.69617671  0.01710752  1  0  0.131989  0  0.929272  0  0  0.138136  0  0.989968  0  0  0.142127  0  0.986274  0  0  0.120405  0.135216  0  0.992591  0
H  H15  1  0.30708966  0.30382521  0.98292729  1  0  0.132086  0  0.928964  0  0  0.138273  0  0.989653  0  0  0.142271  0  0.985948  0  0  0.120416  0.135345  0  0.992272  0
H  H16  1  0.06381345  0.90746725  0.43655444  1  0  0.114902  0  0.969105  0  0  0.120717  0  1.0365  0  0  0.124195  0  1.033328  0  0  0.112921  0.118042  0  1.039126  0
H  H17  1  0.93620212  0.09253918  0.56341568  1  0  0.115009  0  0.968584  0  0  0.120838  0  1.035963  0  0  0.124307  0  1.032826  0  0  0.112918  0.118179  0  1.038573  0
H  H18  1  0.16545700  0.16167221  0.41284144  1  0  0.129757  0  0.954264  0  0  0.139955  0  1.012701  0  0  0.143617  0  1.011035  0  0  0.118855  0.137201  0  1.014303  0
H  H19  1  0.83451005  0.83833154  0.58713901  1  0  0.129808  0  0.954232  0  0  0.139967  0  1.012691  0  0  0.143699  0  1.010931  0  0  0.118839  0.137204  0  1.014295  0
C  C20  1  0.28170745  0.60316886  0.21232171  1  0  0.362646  0  3.736093  0  0  0.342094  0  4.003334  0  0  0.356468  0  4.018673  0  0  0.115352  0.331875  0  3.993729  0
C  C21  1  0.71833370  0.39679511  0.78764294  1  0  0.36295  0  3.735617  0  0  0.342279  0  4.003016  0  0  0.356641  0  4.01837  0  0  0.115516  0.332077  0  3.993393  0
C  C22  1  0.24828348  0.65464718  0.10470310  1  0  -0.15703  0  3.669851  0  0  -0.18164  0  3.933734  0  0  -0.189252  0  3.952269  0  0  -0.089877  -0.176651  0  3.921386  0
C  C23  1  0.75172427  0.34534926  0.89528034  1  0  -0.157136  0  3.669797  0  0  -0.181656  0  3.933706  0  0  -0.189264  0  3.952254  0  0  -0.089916  -0.176675  0  3.921346  0
C  C24  1  0.33865390  0.80666531  0.12557357  1  0  -0.059727  0  3.715366  0  0  -0.085139  0  3.97593  0  0  -0.081653  0  3.994397  0  0  -0.071764  -0.086976  0  3.962957  0
C  C25  1  0.66130208  0.19333734  0.87439758  1  0  -0.059704  0  3.716102  0  0  -0.085159  0  3.976564  0  0  -0.081677  0  3.995042  0  0  -0.07162  -0.086994  0  3.963588  0
C  C26  1  0.46310959  0.90757964  0.25542545  1  0  0.038097  0  3.755699  0  0  0.021016  0  4.008181  0  0  0.01333  0  4.034798  0  0  0.065974  0.02598  0  3.990582  0
C  C27  1  0.53686054  0.09241514  0.74456959  1  0  0.038093  0  3.756314  0  0  0.020903  0  4.008601  0  0  0.013223  0  4.035216  0  0  0.065877  0.025863  0  3.991  0
C  C28  1  0.49826319  0.85734202  0.36299453  1  0  -0.06376  0  3.735011  0  0  -0.089859  0  3.99639  0  0  -0.0868  0  4.015952  0  0  -0.076789  -0.091904  0  3.983332  0
C  C29  1  0.50168499  0.14266452  0.63700979  1  0  -0.063821  0  3.735088  0  0  -0.089892  0  3.996578  0  0  -0.086824  0  4.016115  0  0  -0.076824  -0.091939  0  3.983522  0
C  C30  1  0.40853122  0.70508637  0.34234249  1  0  -0.183626  0  3.695437  0  0  -0.205417  0  3.952249  0  0  -0.213598  0  3.971764  0  0  -0.089613  -0.200032  0  3.939732  0
C  C31  1  0.59146631  0.29489881  0.65763849  1  0  -0.183767  0  3.695966  0  0  -0.205639  0  3.952749  0  0  -0.213821  0  3.972262  0  0  -0.089749  -0.200253  0  3.940234  0
C  C32  1  0.98714963  0.06967130  0.19985606  1  0  0.357929  0  3.745098  0  0  0.337616  0  4.012871  0  0  0.352126  0  4.028164  0  0  0.111368  0.327554  0  4.003024  0
C  C33  1  0.01291529  0.93034064  0.80015328  1  0  0.358293  0  3.745013  0  0  0.337991  0  4.012784  0  0  0.352509  0  4.028072  0  0  0.111369  0.327922  0  4.002935  0
C  C34  1  0.85527498  0.93846789  0.08829120  1  0  -0.160189  0  3.671909  0  0  -0.184638  0  3.936686  0  0  -0.192387  0  3.955314  0  0  -0.091568  -0.179933  0  3.924703  0
C  C35  1  0.14478096  0.06152609  0.91172865  1  0  -0.160606  0  3.672623  0  0  -0.185283  0  3.937475  0  0  -0.193034  0  3.9561  0  0  -0.091717  -0.180581  0  3.92549  0
C  C36  1  0.79834838  0.79822332  0.10213925  1  0  -0.055193  0  3.702445  0  0  -0.081688  0  3.963835  0  0  -0.077508  0  3.980995  0  0  -0.070008  -0.084007  0  3.952139  0
C  C37  1  0.20163101  0.20177071  0.89789986  1  0  -0.055128  0  3.702004  0  0  -0.081647  0  3.963427  0  0  -0.077461  0  3.980579  0  0  -0.070059  -0.083965  0  3.951732  0
C  C38  1  0.87399982  0.79069288  0.22891797  1  0  0.044925  0  3.750378  0  0  0.027595  0  4.001164  0  0  0.020203  0  4.027444  0  0  0.068082  0.032102  0  3.98391  0
C  C39  1  0.12604588  0.20929554  0.77110154  1  0  0.045107  0  3.74922  0  0  0.027646  0  3.999979  0  0  0.02025  0  4.026268  0  0  0.06802  0.03215  0  3.982726  0
C  C40  1  0.00773069  0.91977249  0.34041839  1  0  -0.072245  0  3.738811  0  0  -0.097425  0  3.999304  0  0  -0.094744  0  4.019408  0  0  -0.07955  -0.09916  0  3.986561  0
C  C41  1  0.99233005  0.08019961  0.65958342  1  0  -0.072418  0  3.738465  0  0  -0.097563  0  3.998903  0  0  -0.094883  0  4.019056  0  0  -0.079506  -0.099317  0  3.98614  0
C  C42  1  0.06505835  0.05989191  0.32638570  1  0  -0.191976  0  3.706739  0  0  -0.213663  0  3.962802  0  0  -0.222432  0  3.983704  0  0  -0.097065  -0.208244  0  3.950009  0
C  C43  1  0.93491979  0.94009495  0.67362149  1  0  -0.192138  0  3.707205  0  0  -0.213802  0  3.963285  0  0  -0.222616  0  3.984146  0  0  -0.09718  -0.208372  0  3.950489  0
N  N44  1  0.56302183  0.06596862  0.27930210  1  0  0.467208  0  3.961602  0  0  0.524635  0  4.215325  0  0  0.546448  0  4.22406  0  0  0.034853  0.510095  0  4.209561  0
N  N45  1  0.43680953  0.93406104  0.72070598  1  0  0.466627  0  3.962606  0  0  0.524621  0  4.215618  0  0  0.546431  0  4.224356  0  0  0.034698  0.510088  0  4.209844  0
N  N46  1  0.80460852  0.64850139  0.24837828  1  0  0.468259  0  3.964621  0  0  0.529974  0  4.217116  0  0  0.551492  0  4.225779  0  0  0.043691  0.515619  0  4.211464  0
N  N47  1  0.19531116  0.35153294  0.75163848  1  0  0.467639  0  3.964019  0  0  0.529772  0  4.21603  0  0  0.551294  0  4.224681  0  0  0.043595  0.515411  0  4.210399  0
O  O48  1  0.53347662  0.11164807  0.18395765  1  0  -0.363921  0  1.763962  0  0  -0.352476  0  1.958613  0  0  -0.361947  0  1.953522  0  0  -0.125637  -0.346031  0  1.962399  0
O  O49  1  0.46655267  0.88837884  0.81602994  1  0  -0.363368  0  1.764639  0  0  -0.352187  0  1.959143  0  0  -0.361644  0  1.954034  0  0  -0.125341  -0.34573  0  1.962904  0
O  O50  1  0.67903406  0.15275309  0.39623300  1  0  -0.407969  0  1.800445  0  0  -0.390836  0  2.010568  0  0  -0.403342  0  2.006594  0  0  -0.169443  -0.382585  0  2.013254  0
O  O51  1  0.32099942  0.84727609  0.60375849  1  0  -0.40763  0  1.80024  0  0  -0.390739  0  2.010166  0  0  -0.40324  0  2.006187  0  0  -0.169328  -0.38251  0  2.012864  0
O  O52  1  0.70201564  0.52934283  0.15005348  1  0  -0.363252  0  1.75407  0  0  -0.356001  0  1.948793  0  0  -0.365855  0  1.943783  0  0  -0.125229  -0.349371  0  1.952403  0
O  O53  1  0.29807065  0.47067251  0.84997901  1  0  -0.363053  0  1.753885  0  0  -0.355911  0  1.948403  0  0  -0.365769  0  1.943399  0  0  -0.125161  -0.349246  0  1.951977  0
O  O54  1  0.84813894  0.65175792  0.36519101  1  0  -0.401885  0  1.812626  0  0  -0.391412  0  2.025877  0  0  -0.402887  0  2.020898  0  0  -0.1748  -0.3837  0  2.029542  0
O  O55  1  0.15186148  0.34823206  0.63481547  1  0  -0.401748  0  1.812562  0  0  -0.39144  0  2.025759  0  0  -0.402919  0  2.02078  0  0  -0.174841  -0.383728  0  2.029431  0
O  O56  1  0.18613935  0.45159011  0.18190208  1  0  -0.495289  0  2.274117  0  0  -0.415341  0  2.515714  0  0  -0.439516  0  2.508876  0  0  -0.165196  -0.398404  0  2.520384  0
O  O57  1  0.81395362  0.54839381  0.81807516  1  0  -0.495315  0  2.273786  0  0  -0.415314  0  2.51538  0  0  -0.439462  0  2.508508  0  0  -0.165366  -0.398381  0  2.520036  0
O  O58  1  0.02946400  0.20333478  0.17781940  1  0  -0.492243  0  2.268961  0  0  -0.412922  0  2.511234  0  0  -0.436774  0  2.504265  0  0  -0.165914  -0.396238  0  2.515559  0
O  O59  1  0.97057590  0.79669374  0.82222100  1  0  -0.492614  0  2.267705  0  0  -0.413222  0  2.50978  0  0  -0.437128  0  2.502922  0  0  -0.165981  -0.396533  0  2.514101  0
O  O60  1  0.40801429  0.36130159  0.35219873  1  0  -0.898752  0  1.884141  0  0  -0.845662  0  2.148893  0  0  -0.87097  0  2.126541  0  0  -0.441544  -0.826398  0  2.1636  0
O  O61  1  0.59199727  0.63874350  0.64776745  1  0  -0.89856  0  1.883605  0  0  -0.845463  0  2.148325  0  0  -0.870772  0  2.126001  0  0  -0.441342  -0.826201  0  2.163024  0
O  O62  1  0.08681779  0.42848106  0.38042467  1  0  -0.934986  0  1.882829  0  0  -0.878222  0  2.150242  0  0  -0.902707  0  2.125695  0  0  -0.477312  -0.859213  0  2.166081  0
O  O63  1  0.91316466  0.57147628  0.61959114  1  0  -0.934853  0  1.883455  0  0  -0.878096  0  2.150912  0  0  -0.902582  0  2.126387  0  0  -0.477372  -0.859131  0  2.16682  0
