# generated using pymatgen
data_SrNiH14C14(NO6)2
_symmetry_space_group_name_H-M   'P 1'
_cell_length_a   8.27769431
_cell_length_b   11.59773248
_cell_length_c   11.59717143
_cell_angle_alpha   74.76911454
_cell_angle_beta   75.41992690
_cell_angle_gamma   75.42363352
_symmetry_Int_Tables_number   1
_chemical_formula_structural   SrNiH14C14(NO6)2
_chemical_formula_sum   'Sr2 Ni2 H28 C28 N4 O24'
_cell_volume   1018.92795030
_cell_formula_units_Z   2
loop_
 _symmetry_equiv_pos_site_id
 _symmetry_equiv_pos_as_xyz
  1  'x, y, z'
loop_
 _atom_site_type_symbol
 _atom_site_label
 _atom_site_symmetry_multiplicity
 _atom_site_fract_x
 _atom_site_fract_y
 _atom_site_fract_z
 _atom_site_occupancy
 _atom_site_pbe_bader_charge
 _atom_site_pbe_bader_spin_density
 _atom_site_pbe_cm5_charge
 _atom_site_pbe_ddec_charge
 _atom_site_pbe_ddec_spin_density
 _atom_site_pbe_ddec_sum_bond_order
 _atom_site_pbe_magmom
Sr  Sr0  1  0.24999399  0.47172159  0.52830102  1  1.691701  0  0.968137  1.478249  0  1.522334  0
Sr  Sr1  1  0.75000791  0.52828553  0.47170401  1  1.691664  0  0.96817  1.478213  0  1.522422  0
Ni  Ni2  1  0.99999733  0.99999970  0.50000010  1  0.984931  0  0.628873  0.530002  0  2.877773  0
Ni  Ni3  1  0.50000464  0.49999752  0.00000825  1  0.984794  0  0.628802  0.530072  0  2.877535  0
H  H4  1  0.53804717  0.44564403  0.71655853  1  0.635033  0  0.304339  0.383907  0  0.953266  0
H  H5  1  0.96193203  0.28344794  0.55436619  1  0.635079  0  0.30436  0.383991  0  0.953158  0
H  H6  1  0.46195630  0.55435212  0.28344227  1  0.63508  0  0.304347  0.383939  0  0.953237  0
H  H7  1  0.03806478  0.71655458  0.44562633  1  0.635069  0  0.304309  0.383959  0  0.953201  0
H  H8  1  0.55110051  0.32664856  0.66708940  1  0.658608  0  0.301586  0.386988  0  0.948653  0
H  H9  1  0.94891293  0.33292632  0.67335220  1  0.6588  0  0.301564  0.386914  0  0.948767  0
H  H10  1  0.44890671  0.67334757  0.33291417  1  0.658654  0  0.301544  0.386936  0  0.948708  0
H  H11  1  0.05110337  0.66705875  0.32664581  1  0.65873  0  0.301616  0.38698  0  0.948703  0
H  H12  1  0.27409916  0.95770430  0.25398623  1  0.634187  0  0.270542  0.369013  0  0.981667  0
H  H13  1  0.22594033  0.74599352  0.04228785  1  0.633587  0  0.270501  0.368933  0  0.981673  0
H  H14  1  0.72589829  0.04229098  0.74601503  1  0.634273  0  0.270569  0.369017  0  0.981666  0
H  H15  1  0.77408795  0.25398873  0.95771221  1  0.634249  0  0.270569  0.369015  0  0.981631  0
H  H16  1  0.11886951  0.99266728  0.19001280  1  0.580988  0  0.301388  0.384592  0  0.910806  0
H  H17  1  0.38114519  0.80998637  0.00733187  1  0.580867  0  0.301366  0.38449  0  0.910997  0
H  H18  1  0.88113122  0.00732978  0.80998480  1  0.580817  0  0.301432  0.384639  0  0.910756  0
H  H19  1  0.61886085  0.19001430  0.99266811  1  0.580747  0  0.301415  0.384625  0  0.91079  0
H  H20  1  0.44065481  0.74262481  0.70993507  1  0.144404  0  0.121806  0.13069  0  1.009022  0
H  H21  1  0.05936908  0.29002066  0.25739402  1  0.144431  0  0.121828  0.130648  0  1.008958  0
H  H22  1  0.55933684  0.25736858  0.29004878  1  0.144036  0  0.12184  0.130822  0  1.009064  0
H  H23  1  0.94062975  0.70999834  0.74261266  1  0.142649  0  0.121787  0.130655  0  1.009125  0
H  H24  1  0.55830907  0.91259524  0.74114900  1  0.137521  0  0.120111  0.131616  0  0.97988  0
H  H25  1  0.94166648  0.25885854  0.08741103  1  0.137664  0  0.120169  0.131706  0  0.979632  0
H  H26  1  0.44169048  0.08740634  0.25884328  1  0.137435  0  0.120158  0.131694  0  0.979813  0
H  H27  1  0.05832266  0.74114966  0.91260118  1  0.137541  0  0.120186  0.131747  0  0.979672  0
H  H28  1  0.20122963  0.16747897  0.53646053  1  0.199031  0  0.135013  0.107476  0  1.030628  0
H  H29  1  0.29870675  0.46359421  0.83252748  1  0.198583  0  0.135045  0.107369  0  1.030724  0
H  H30  1  0.79875427  0.83253013  0.46354376  1  0.199457  0  0.135005  0.107488  0  1.030571  0
H  H31  1  0.70129900  0.53638830  0.16748089  1  0.198556  0  0.135059  0.107468  0  1.030514  0
C  C32  1  0.26037612  0.86732763  0.61174297  1  0.429003  0  0.112086  0.074804  0  3.952529  0
C  C33  1  0.23961835  0.38821695  0.13268904  1  0.427616  0  0.11201  0.074604  0  3.953508  0
C  C34  1  0.73962937  0.13268486  0.38825391  1  0.428839  0  0.112088  0.074629  0  3.952438  0
C  C35  1  0.76037331  0.61177656  0.86731202  1  0.428078  0  0.112069  0.074535  0  3.953668  0
C  C36  1  0.39112414  0.83830419  0.67544123  1  0.014985  0  -0.051943  -0.078381  0  3.892296  0
C  C37  1  0.10890657  0.32453605  0.16170609  1  0.014641  0  -0.051944  -0.078309  0  3.893442  0
C  C38  1  0.60886046  0.16170203  0.32454474  1  0.015344  0  -0.051982  -0.078566  0  3.892389  0
C  C39  1  0.89110987  0.67547268  0.83828724  1  0.016222  0  -0.051828  -0.078227  0  3.892698  0
C  C40  1  0.45531327  0.93240176  0.69151512  1  -0.046196  0  -0.048511  -0.034443  0  3.871212  0
C  C41  1  0.04468408  0.30848346  0.06761466  1  -0.046672  0  -0.04847  -0.03441  0  3.870809  0
C  C42  1  0.54468987  0.06760528  0.30847935  1  -0.047091  0  -0.0486  -0.034532  0  3.871444  0
C  C43  1  0.95532252  0.69152001  0.93239481  1  -0.046507  0  -0.048585  -0.034556  0  3.870955  0
C  C44  1  0.38826722  0.05248556  0.63925849  1  0.029701  0  -7.2e-05  -0.06555  0  3.922491  0
C  C45  1  0.11169926  0.36076203  0.94752282  1  0.031419  0  -0.000173  -0.065585  0  3.921476  0
C  C46  1  0.61173037  0.94751879  0.36073598  1  0.030598  0  3.6e-05  -0.06536  0  3.922364  0
C  C47  1  0.88830608  0.63924138  0.05247741  1  0.030728  0  -0.000142  -0.065422  0  3.921895  0
C  C48  1  0.25388685  0.07467043  0.57806286  1  0.459004  0  0.066035  0.079061  0  3.862728  0
C  C49  1  0.24610720  0.42197294  0.92533901  1  0.459067  0  0.066152  0.079362  0  3.862431  0
C  C50  1  0.74610143  0.92533130  0.42193573  1  0.45859  0  0.066017  0.079032  0  3.862735  0
C  C51  1  0.75391159  0.57802665  0.07465378  1  0.459717  0  0.066024  0.07905  0  3.862408  0
C  C52  1  0.18782452  0.77814541  0.57925627  1  1.564406  0  0.233697  0.544554  0  4.180435  0
C  C53  1  0.31219264  0.42072324  0.22187677  1  1.565941  0  0.23383  0.545  0  4.180255  0
C  C54  1  0.81217942  0.22184895  0.42075096  1  1.564025  0  0.233702  0.544733  0  4.179752  0
C  C55  1  0.68780432  0.57928848  0.77812790  1  1.56596  0  0.233902  0.545176  0  4.179902  0
C  C56  1  0.45203906  0.16429573  0.63843236  1  1.616709  0  0.215351  0.587699  0  4.243414  0
C  C57  1  0.04788977  0.36164145  0.83570701  1  1.617677  0  0.21549  0.587403  0  4.243249  0
C  C58  1  0.54794726  0.83570873  0.36156413  1  1.616501  0  0.215335  0.587605  0  4.243342  0
C  C59  1  0.95211284  0.63834835  0.16429738  1  1.617642  0  0.215589  0.587404  0  4.243319  0
N  N60  1  0.18904746  0.98461875  0.56699983  1  -1.191402  0  -0.341203  -0.180148  0  3.697416  0
N  N61  1  0.31093973  0.43299591  0.01538373  1  -1.191741  0  -0.341229  -0.180477  0  3.698251  0
N  N62  1  0.81094089  0.01538751  0.43299494  1  -1.191056  0  -0.341142  -0.180087  0  3.697331  0
N  N63  1  0.68907179  0.56700276  0.98459854  1  -1.191871  0  -0.34111  -0.180263  0  3.69854  0
O  O64  1  0.06040241  0.82971486  0.52218380  1  -1.073425  0  -0.287591  -0.476635  0  2.427873  0
O  O65  1  0.43959422  0.47780923  0.17029718  1  -1.073457  0  -0.28752  -0.476591  0  2.428172  0
O  O66  1  0.93960859  0.17026673  0.47782905  1  -1.073327  0  -0.287517  -0.476582  0  2.427518  0
O  O67  1  0.56040462  0.52219517  0.82970568  1  -1.073589  0  -0.287498  -0.476643  0  2.4279  0
O  O68  1  0.24382736  0.66657757  0.60214154  1  -1.174545  0  -0.306786  -0.517858  0  2.194503  0
O  O69  1  0.25618371  0.39781845  0.33345345  1  -1.174424  0  -0.306959  -0.518136  0  2.194438  0
O  O70  1  0.75619987  0.33343299  0.39786659  1  -1.17409  0  -0.306851  -0.517929  0  2.194028  0
O  O71  1  0.74377436  0.60220360  0.66654685  1  -1.174524  0  -0.307083  -0.518264  0  2.194161  0
O  O72  1  0.55821108  0.15808235  0.70321001  1  -1.18233  0  -0.3151  -0.562043  0  2.145691  0
O  O73  1  0.94179595  0.29681040  0.84190956  1  -1.183955  0  -0.315318  -0.562229  0  2.145651  0
O  O74  1  0.44177940  0.84191568  0.29678487  1  -1.182317  0  -0.315155  -0.562082  0  2.14551  0
O  O75  1  0.05820730  0.70317217  0.15810356  1  -1.184164  0  -0.315372  -0.562223  0  2.145767  0
O  O76  1  0.39199232  0.26011258  0.56807801  1  -1.215286  0  -0.398762  -0.632854  0  2.302004  0
O  O77  1  0.10784795  0.43207985  0.73991544  1  -1.214892  0  -0.39869  -0.632439  0  2.301868  0
O  O78  1  0.60799573  0.73989004  0.43191865  1  -1.215352  0  -0.398713  -0.632744  0  2.302049  0
O  O79  1  0.89214435  0.56790642  0.26009177  1  -1.214758  0  -0.398723  -0.632432  0  2.301785  0
O  O80  1  0.53438671  0.41726968  0.64422179  1  -1.320104  0  -0.621011  -0.839203  0  2.066388  0
O  O81  1  0.96557695  0.35578949  0.58272938  1  -1.32038  0  -0.62103  -0.839185  0  2.066578  0
O  O82  1  0.46560792  0.58272203  0.35578525  1  -1.320282  0  -0.620997  -0.839207  0  2.066484  0
O  O83  1  0.03442002  0.64420762  0.41727147  1  -1.320334  0  -0.621055  -0.83929  0  2.066436  0
O  O84  1  0.17775764  0.02509772  0.23324631  1  -1.238655  0  -0.609544  -0.79745  0  1.915354  0
O  O85  1  0.32227873  0.76676422  0.97488945  1  -1.237907  0  -0.609451  -0.797205  0  1.915554  0
O  O86  1  0.82223808  0.97489940  0.76675476  1  -1.23854  0  -0.609617  -0.797513  0  1.91535  0
O  O87  1  0.67774052  0.23324812  0.02510241  1  -1.238407  0  -0.609575  -0.797448  0  1.915392  0
