# generated using pymatgen
data_ZnH13C19N5O4
_symmetry_space_group_name_H-M   'P 1'
_cell_length_a   5.93476855
_cell_length_b   10.84663324
_cell_length_c   15.96002068
_cell_angle_alpha   92.18156329
_cell_angle_beta   105.20470616
_cell_angle_gamma   90.82027972
_symmetry_Int_Tables_number   1
_chemical_formula_structural   ZnH13C19N5O4
_chemical_formula_sum   'Zn2 H26 C38 N10 O8'
_cell_volume   990.38582810
_cell_formula_units_Z   2
loop_
 _symmetry_equiv_pos_site_id
 _symmetry_equiv_pos_as_xyz
  1  'x, y, z'
loop_
 _atom_site_type_symbol
 _atom_site_label
 _atom_site_symmetry_multiplicity
 _atom_site_fract_x
 _atom_site_fract_y
 _atom_site_fract_z
 _atom_site_occupancy
 _atom_site_hle17_bader_spin_density
 _atom_site_hle17_ddec_charge
 _atom_site_hle17_ddec_spin_density
 _atom_site_hle17_ddec_sum_bond_order
 _atom_site_hle17_magmom
 _atom_site_hse06_10hf_bader_spin_density
 _atom_site_hse06_10hf_ddec_charge
 _atom_site_hse06_10hf_ddec_spin_density
 _atom_site_hse06_10hf_ddec_sum_bond_order
 _atom_site_hse06_10hf_magmom
 _atom_site_hse06_bader_spin_density
 _atom_site_hse06_ddec_charge
 _atom_site_hse06_ddec_spin_density
 _atom_site_hse06_ddec_sum_bond_order
 _atom_site_hse06_magmom
 _atom_site_pbe_bader_spin_density
 _atom_site_pbe_cm5_charge
 _atom_site_pbe_ddec_charge
 _atom_site_pbe_ddec_spin_density
 _atom_site_pbe_ddec_sum_bond_order
 _atom_site_pbe_magmom
Zn  Zn0  1  0.98384869  0.73783281  0.19866203  1  0  1.01361  0  1.845208  0  0  0.822208  0  2.32543  0  0  0.869734  0  2.270697  0  0  0.694649  0.789017  0  2.363033  0
Zn  Zn1  1  0.01616010  0.26216892  0.80133922  1  0  1.013621  0  1.845282  0  0  0.822249  0  2.325495  0  0  0.869783  0  2.270772  0  0  0.69467  0.789063  0  2.363096  0
H  H2  1  0.77938622  0.44312013  0.16706621  1  0  0.11028  0  0.932349  0  0  0.116532  0  0.999082  0  0  0.119209  0  0.996179  0  0  0.143178  0.11456  0  1.001139  0
H  H3  1  0.22062538  0.55687510  0.83293482  1  0  0.110281  0  0.93245  0  0  0.116566  0  0.999131  0  0  0.119245  0  0.996226  0  0  0.143175  0.114597  0  1.001191  0
H  H4  1  0.18282000  0.38311038  0.30832118  1  0  0.118015  0  0.947997  0  0  0.129246  0  1.003647  0  0  0.132873  0  1.002266  0  0  0.11195  0.126643  0  1.004741  0
H  H5  1  0.81718546  0.61688710  0.69168577  1  0  0.118048  0  0.94805  0  0  0.129244  0  1.00374  0  0  0.132871  0  1.002359  0  0  0.111924  0.126642  0  1.00483  0
H  H6  1  0.68805683  0.74006270  0.33181563  1  0  0.115712  0  1.000276  0  0  0.122616  0  1.062714  0  0  0.125811  0  1.060145  0  0  0.120072  0.120221  0  1.064838  0
H  H7  1  0.31194111  0.25994065  0.66817915  1  0  0.115855  0  1.000141  0  0  0.122725  0  1.062627  0  0  0.125929  0  1.06004  0  0  0.120101  0.12033  0  1.064752  0
H  H8  1  0.40167133  0.54345789  0.35066718  1  0  0.116054  0  0.943349  0  0  0.129881  0  0.995518  0  0  0.132589  0  0.99405  0  0  0.129501  0.127947  0  0.9966  0
H  H9  1  0.59832862  0.45654512  0.64933089  1  0  0.116066  0  0.943347  0  0  0.129921  0  0.995485  0  0  0.13263  0  0.994013  0  0  0.12949  0.127985  0  0.996569  0
H  H10  1  0.02946656  0.16522273  0.29390213  1  0  0.107477  0  0.920976  0  0  0.118948  0  0.975686  0  0  0.121551  0  0.973877  0  0  0.116243  0.117012  0  0.977013  0
H  H11  1  0.97053375  0.83477784  0.70610208  1  0  0.107473  0  0.921082  0  0  0.119001  0  0.975718  0  0  0.121606  0  0.973911  0  0  0.116279  0.117066  0  0.977045  0
H  H12  1  0.21895936  0.00447808  0.22068557  1  0  0.126652  0  0.97189  0  0  0.132971  0  1.037431  0  0  0.136235  0  1.036727  0  0  0.113951  0.130588  0  1.038134  0
H  H13  1  0.78103001  0.99552215  0.77931328  1  0  0.126652  0  0.971819  0  0  0.132956  0  1.037386  0  0  0.13622  0  1.03668  0  0  0.113952  0.130573  0  1.038087  0
H  H14  1  0.55806616  0.89239574  0.23470791  1  0  0.111365  0  0.94073  0  0  0.118662  0  1.006404  0  0  0.121548  0  1.002288  0  0  0.143149  0.116328  0  1.009829  0
H  H15  1  0.44194302  0.10760556  0.76529774  1  0  0.111401  0  0.940747  0  0  0.118682  0  1.006437  0  0  0.121568  0  1.002319  0  0  0.143163  0.116353  0  1.009852  0
H  H16  1  0.94123582  0.93612664  0.04907886  1  0  0.120991  0  0.964013  0  0  0.12961  0  1.022685  0  0  0.132738  0  1.020757  0  0  0.12018  0.127394  0  1.024047  0
H  H17  1  0.05874779  0.06386912  0.95091855  1  0  0.120983  0  0.963948  0  0  0.129604  0  1.022618  0  0  0.13273  0  1.020693  0  0  0.120167  0.127386  0  1.023979  0
H  H18  1  0.70941867  0.15370343  0.06322093  1  0  0.13141  0  0.987796  0  0  0.134726  0  1.057655  0  0  0.138894  0  1.054143  0  0  0.12022  0.131468  0  1.060549  0
H  H19  1  0.29055407  0.84628985  0.93677411  1  0  0.13145  0  0.987869  0  0  0.134766  0  1.057701  0  0  0.138935  0  1.054188  0  0  0.120241  0.131506  0  1.060597  0
H  H20  1  0.60350866  0.81427068  0.42465232  1  0  0.088164  0  0.984113  0  0  0.099919  0  1.044536  0  0  0.10272  0  1.042807  0  0  0.097542  0.097922  0  1.045836  0
H  H21  1  0.39648924  0.18572243  0.57535241  1  0  0.088042  0  0.98425  0  0  0.099867  0  1.044605  0  0  0.102667  0  1.042875  0  0  0.097513  0.097871  0  1.045904  0
H  H22  1  0.09865992  0.08072775  0.45326549  1  0  0.097385  0  0.947546  0  0  0.106441  0  1.00866  0  0  0.110176  0  1.006326  0  0  0.101267  0.103722  0  1.010463  0
H  H23  1  0.90133663  0.91926802  0.54674057  1  0  0.097383  0  0.947561  0  0  0.106443  0  1.008679  0  0  0.11018  0  1.006342  0  0  0.101262  0.103725  0  1.010483  0
H  H24  1  0.18132988  0.42139978  0.05970489  1  0  0.098806  0  0.94294  0  0  0.110081  0  1.001813  0  0  0.113277  0  1.000417  0  0  0.101256  0.107783  0  1.002874  0
H  H25  1  0.81868757  0.57860702  0.94029118  1  0  0.098793  0  0.942716  0  0  0.110087  0  1.001605  0  0  0.113285  0  1.000208  0  0  0.101258  0.107786  0  1.002674  0
H  H26  1  0.58283729  0.72565097  0.00454293  1  0  0.097781  0  0.963688  0  0  0.106458  0  1.028493  0  0  0.109837  0  1.026689  0  0  0.10122  0.103984  0  1.029977  0
H  H27  1  0.41718385  0.27435658  0.99545476  1  0  0.097693  0  0.963694  0  0  0.106477  0  1.028415  0  0  0.109875  0  1.026562  0  0  0.101241  0.104002  0  1.029903  0
C  C28  1  0.66330213  0.64805848  0.30180399  1  0  0.015072  0  3.727802  0  0  -0.02154  0  3.993849  0  0  -0.019891  0  4.013083  0  0  0.002988  -0.022942  0  3.98142  0
C  C29  1  0.33669554  0.35194002  0.69819294  1  0  0.014977  0  3.727597  0  0  -0.021585  0  3.993669  0  0  -0.019938  0  4.0129  0  0  0.002962  -0.022987  0  3.981238  0
C  C30  1  0.52350791  0.55154362  0.31126896  1  0  -0.039227  0  3.66253  0  0  -0.08293  0  3.924017  0  0  -0.081162  0  3.941866  0  0  0.005284  -0.084155  0  3.912118  0
C  C31  1  0.47650066  0.44845834  0.68872977  1  0  -0.039363  0  3.662377  0  0  -0.083084  0  3.92384  0  0  -0.081314  0  3.941688  0  0  0.00527  -0.084307  0  3.911934  0
C  C32  1  0.72128948  0.49781912  0.21519311  1  0  0.200687  0  3.607801  0  0  0.13529  0  3.877411  0  0  0.150569  0  3.888641  0  0  0.155573  0.125525  0  3.869332  0
C  C33  1  0.27871538  0.50218007  0.78480574  1  0  0.200611  0  3.607845  0  0  0.135223  0  3.87746  0  0  0.150501  0  3.88869  0  0  0.155578  0.125448  0  3.869389  0
C  C34  1  0.45611909  0.33617436  0.24545072  1  0  0.36133  0  3.791108  0  0  0.338644  0  4.050488  0  0  0.352709  0  4.067132  0  0  0.232687  0.329215  0  4.039232  0
C  C35  1  0.54388434  0.66382450  0.75455175  1  0  0.361462  0  3.790903  0  0  0.33876  0  4.050304  0  0  0.352827  0  4.066943  0  0  0.232731  0.329332  0  4.039048  0
C  C36  1  0.26384108  0.31106226  0.27787922  1  0  -0.210429  0  3.709605  0  0  -0.23072  0  3.960888  0  0  -0.239663  0  3.980043  0  0  -0.088395  -0.224798  0  3.947875  0
C  C37  1  0.73616410  0.68893657  0.72212340  1  0  -0.21054  0  3.709676  0  0  -0.230804  0  3.960981  0  0  -0.239746  0  3.980133  0  0  -0.088422  -0.224881  0  3.947969  0
C  C38  1  0.17804634  0.18975480  0.26925859  1  0  0.038784  0  3.730067  0  0  0.01899  0  3.985419  0  0  0.024131  0  4.003938  0  0  -0.05856  0.015932  0  3.972594  0
C  C39  1  0.82195016  0.81024514  0.73074274  1  0  0.038644  0  3.730265  0  0  0.018818  0  3.985621  0  0  0.023955  0  4.004144  0  0  -0.058639  0.015761  0  3.972797  0
C  C40  1  0.28178677  0.09980803  0.22834051  1  0  -0.196596  0  3.695986  0  0  -0.217057  0  3.944608  0  0  -0.227055  0  3.967183  0  0  -0.08124  -0.210644  0  3.929726  0
C  C41  1  0.71820619  0.90019202  0.77165989  1  0  -0.196397  0  3.695843  0  0  -0.216873  0  3.944483  0  0  -0.22687  0  3.967057  0  0  -0.08117  -0.210458  0  3.929597  0
C  C42  1  0.47004451  0.13659387  0.19719680  1  0  0.362181  0  3.770429  0  0  0.343042  0  4.022488  0  0  0.356974  0  4.039087  0  0  0.235499  0.333772  0  4.011383  0
C  C43  1  0.52994652  0.86340438  0.80280331  1  0  0.362128  0  3.770531  0  0  0.343023  0  4.022565  0  0  0.356956  0  4.03916  0  0  0.235515  0.333754  0  4.011461  0
C  C44  1  0.62954652  0.93057021  0.18517159  1  0  0.22445  0  3.597279  0  0  0.159805  0  3.863469  0  0  0.17705  0  3.872279  0  0  0.161628  0.148674  0  3.857471  0
C  C45  1  0.37045349  0.06942864  0.81483121  1  0  0.224382  0  3.59752  0  0  0.159768  0  3.863676  0  0  0.177011  0  3.872487  0  0  0.161642  0.148637  0  3.857678  0
C  C46  1  0.82474657  0.96079320  0.08880341  1  0  -0.0054  0  3.726479  0  0  -0.037703  0  3.993714  0  0  -0.0365  0  4.012831  0  0  -0.002873  -0.038433  0  3.980564  0
C  C47  1  0.17524092  0.03920515  0.91119577  1  0  -0.005339  0  3.72628  0  0  -0.037627  0  3.99351  0  0  -0.036425  0  4.012631  0  0  -0.002872  -0.038354  0  3.980357  0
C  C48  1  0.71311543  0.06828763  0.09662368  1  0  -0.038594  0  3.638439  0  0  -0.084201  0  3.904599  0  0  -0.082473  0  3.921988  0  0  0.00313  -0.08511  0  3.892958  0
C  C49  1  0.28686643  0.93170816  0.90337358  1  0  -0.03868  0  3.638554  0  0  -0.084291  0  3.904712  0  0  -0.082562  0  3.922096  0  0  0.003167  -0.085201  0  3.89307  0
C  C50  1  0.15069804  0.88168505  0.35537435  1  0  0.625146  0  3.935531  0  0  0.579672  0  4.225587  0  0  0.613566  0  4.217978  0  0  0.195474  0.556722  0  4.229729  0
C  C51  1  0.84929490  0.11831299  0.64462779  1  0  0.625122  0  3.935472  0  0  0.579665  0  4.225564  0  0  0.613562  0  4.21795  0  0  0.195444  0.556715  0  4.229706  0
C  C52  1  0.33284083  0.94172904  0.42995655  1  0  -0.063531  0  3.764064  0  0  -0.041061  0  3.995458  0  0  -0.047905  0  4.01866  0  0  -0.022927  -0.036594  0  3.979824  0
C  C53  1  0.66715541  0.05826606  0.57004692  1  0  -0.063352  0  3.763837  0  0  -0.041041  0  3.995455  0  0  -0.04789  0  4.018667  0  0  -0.022914  -0.036571  0  3.979819  0
C  C54  1  0.55844360  0.89577845  0.45764800  1  0  -0.067322  0  3.747619  0  0  -0.091471  0  3.995619  0  0  -0.091655  0  4.015258  0  0  -0.090816  -0.091285  0  3.982278  0
C  C55  1  0.44155259  0.10421671  0.54235485  1  0  -0.067215  0  3.747639  0  0  -0.091381  0  3.99568  0  0  -0.091561  0  4.015321  0  0  -0.090774  -0.091195  0  3.982336  0
C  C56  1  0.27560790  0.04653319  0.47347786  1  0  -0.076026  0  3.754473  0  0  -0.09906  0  4.007518  0  0  -0.100292  0  4.027555  0  0  -0.087703  -0.09813  0  3.993943  0
C  C57  1  0.72438660  0.95346090  0.52652664  1  0  -0.076073  0  3.754448  0  0  -0.099072  0  4.007517  0  0  -0.1003  0  4.027556  0  0  -0.087709  -0.098142  0  3.993942  0
C  C58  1  0.22914595  0.67148233  0.07617497  1  0  0.636944  0  3.932182  0  0  0.588088  0  4.225957  0  0  0.621752  0  4.218755  0  0  0.198295  0.565247  0  4.230112  0
C  C59  1  0.77086426  0.32851973  0.92382265  1  0  0.636991  0  3.932027  0  0  0.58814  0  4.22578  0  0  0.621802  0  4.218582  0  0  0.198393  0.565298  0  4.229935  0
C  C60  1  0.36597745  0.58269953  0.03546893  1  0  -0.065108  0  3.758037  0  0  -0.040336  0  3.988574  0  0  -0.046523  0  4.0106  0  0  -0.020018  -0.036301  0  3.973797  0
C  C61  1  0.63404005  0.41730721  0.96452776  1  0  -0.065123  0  3.757842  0  0  -0.04034  0  3.988389  0  0  -0.046531  0  4.010424  0  0  -0.020071  -0.0363  0  3.973603  0
C  C62  1  0.32115036  0.45517050  0.03329780  1  0  -0.073945  0  3.746749  0  0  -0.100396  0  4.003251  0  0  -0.100971  0  4.022977  0  0  -0.090298  -0.099848  0  3.989779  0
C  C63  1  0.67886888  0.54483621  0.96669904  1  0  -0.073797  0  3.746447  0  0  -0.100261  0  4.002902  0  0  -0.100832  0  4.022617  0  0  -0.090269  -0.099715  0  3.989436  0
C  C64  1  0.54592044  0.62675376  0.00165245  1  0  -0.088796  0  3.751811  0  0  -0.112619  0  4.00829  0  0  -0.113644  0  4.027703  0  0  -0.090535  -0.112002  0  3.995412  0
C  C65  1  0.45409886  0.37325290  0.99834502  1  0  -0.088629  0  3.75167  0  0  -0.112549  0  4.008136  0  0  -0.113571  0  4.027558  0  0  -0.090576  -0.111932  0  3.995258  0
N  N66  1  0.78471233  0.61366843  0.24188946  1  0  -0.37842  0  3.282128  0  0  -0.296001  0  3.578601  0  0  -0.316234  0  3.590937  0  0  -0.352465  -0.282304  0  3.5701  0
N  N67  1  0.21528903  0.38633186  0.75810790  1  0  -0.378292  0  3.282163  0  0  -0.295976  0  3.578733  0  0  -0.316213  0  3.591077  0  0  -0.352441  -0.282278  0  3.570231  0
N  N68  1  0.56191927  0.45597075  0.25648735  1  0  -0.120162  0  3.566446  0  0  -0.031879  0  3.782443  0  0  -0.047962  0  3.805877  0  0  -0.216891  -0.021131  0  3.766304  0
N  N69  1  0.43808744  0.54402830  0.74351290  1  0  -0.120157  0  3.566429  0  0  -0.03186  0  3.782431  0  0  -0.047944  0  3.805866  0  0  -0.216929  -0.021112  0  3.766291  0
N  N70  1  0.55759054  0.25183460  0.20541766  1  0  -0.429484  0  3.038944  0  0  -0.400977  0  3.304364  0  0  -0.41571  0  3.317293  0  0  -0.308403  -0.391291  0  3.295595  0
N  N71  1  0.44240392  0.74816365  0.79458211  1  0  -0.429487  0  3.038927  0  0  -0.401012  0  3.304382  0  0  -0.415748  0  3.317312  0  0  -0.308426  -0.391327  0  3.295617  0
N  N72  1  0.58913395  0.04795561  0.15801031  1  0  -0.119652  0  3.543227  0  0  -0.030318  0  3.75804  0  0  -0.04677  0  3.78096  0  0  -0.21746  -0.019441  0  3.742322  0
N  N73  1  0.41085872  0.95204168  0.84198987  1  0  -0.119668  0  3.543419  0  0  -0.030334  0  3.7582  0  0  -0.046785  0  3.781117  0  0  -0.217508  -0.019458  0  3.742481  0
N  N74  1  0.77490912  0.87652846  0.14547439  1  0  -0.395078  0  3.294713  0  0  -0.313754  0  3.596659  0  0  -0.33508  0  3.607926  0  0  -0.356432  -0.299273  0  3.588652  0
N  N75  1  0.22508728  0.12347056  0.85452686  1  0  -0.39506  0  3.294813  0  0  -0.313773  0  3.596782  0  0  -0.335106  0  3.608066  0  0  -0.356481  -0.299292  0  3.588775  0
O  O76  1  0.13951881  0.62492125  0.13436580  1  0  -0.653532  0  2.054624  0  0  -0.580542  0  2.334754  0  0  -0.610181  0  2.321409  0  0  -0.339722  -0.559826  0  2.343331  0
O  O77  1  0.86050401  0.37508223  0.86563551  1  0  -0.65356  0  2.0546  0  0  -0.580587  0  2.334766  0  0  -0.610231  0  2.321432  0  0  -0.339745  -0.55987  0  2.343339  0
O  O78  1  0.93987476  0.90090528  0.34910415  1  0  -0.612391  0  1.950601  0  0  -0.567922  0  2.175918  0  0  -0.591274  0  2.16896  0  0  -0.319938  -0.551377  0  2.180002  0
O  O79  1  0.06012309  0.09909200  0.65089584  1  0  -0.612441  0  1.950597  0  0  -0.567944  0  2.175891  0  0  -0.591297  0  2.16893  0  0  -0.319917  -0.551395  0  2.179976  0
O  O80  1  0.22759037  0.81306955  0.30010619  1  0  -0.67174  0  2.029676  0  0  -0.598074  0  2.305251  0  0  -0.627242  0  2.290049  0  0  -0.340217  -0.577334  0  2.314673  0
O  O81  1  0.77241151  0.18693222  0.69989510  1  0  -0.671797  0  2.029695  0  0  -0.59808  0  2.305211  0  0  -0.627256  0  2.290022  0  0  -0.340223  -0.577354  0  2.314664  0
O  O82  1  0.21045421  0.78120538  0.05428484  1  0  -0.612963  0  1.91857  0  0  -0.563362  0  2.137522  0  0  -0.58586  0  2.129137  0  0  -0.320013  -0.547546  0  2.142689  0
O  O83  1  0.78953600  0.21879377  0.94570583  1  0  -0.612991  0  1.91845  0  0  -0.563414  0  2.137442  0  0  -0.585912  0  2.129056  0  0  -0.32008  -0.547609  0  2.142629  0
