# generated using pymatgen
data_AlH6C15(ClO2)3
_symmetry_space_group_name_H-M   'P 1'
_cell_length_a   4.03356355
_cell_length_b   17.22735202
_cell_length_c   17.22737904
_cell_angle_alpha   119.99969333
_cell_angle_beta   89.99968303
_cell_angle_gamma   90.00009752
_symmetry_Int_Tables_number   1
_chemical_formula_structural   AlH6C15(ClO2)3
_chemical_formula_sum   'Al2 H12 C30 Cl6 O12'
_cell_volume   1036.71316727
_cell_formula_units_Z   2
loop_
 _symmetry_equiv_pos_site_id
 _symmetry_equiv_pos_as_xyz
  1  'x, y, z'
loop_
 _atom_site_type_symbol
 _atom_site_label
 _atom_site_symmetry_multiplicity
 _atom_site_fract_x
 _atom_site_fract_y
 _atom_site_fract_z
 _atom_site_occupancy
 _atom_site_pbe_bader_charge
 _atom_site_pbe_bader_spin_density
 _atom_site_pbe_cm5_charge
 _atom_site_pbe_ddec_charge
 _atom_site_pbe_ddec_spin_density
 _atom_site_pbe_ddec_sum_bond_order
 _atom_site_pbe_magmom
Al  Al0  1  0.99358146  0.50000085  0.49999908  1  2.509136  0  0.429139  1.609807  0  2.562387  0
Al  Al1  1  0.00633030  0.16666737  0.83333359  1  2.507604  0  0.429032  1.610293  0  2.562106  0
H  H2  1  0.27597358  0.11298326  0.53018026  1  0.070724  0  0.09428  0.104548  0  1.003449  0
H  H3  1  0.71739961  0.11329724  0.53181508  1  0.065224  0  0.09495  0.105327  0  1.000231  0
H  H4  1  0.72411456  0.19678859  0.44641193  1  0.046369  0  0.094191  0.104758  0  1.003647  0
H  H5  1  0.28261662  0.19839971  0.44665059  1  0.05618  0  0.094784  0.10546  0  1.000745  0
H  H6  1  0.27596986  0.91719386  0.88701308  1  0.085304  0  0.094301  0.104555  0  1.003449  0
H  H7  1  0.71740087  0.91851460  0.88670079  1  0.078031  0  0.094963  0.105321  0  1.00021  0
H  H8  1  0.72411737  0.74962193  0.80321231  1  0.042795  0  0.094171  0.104739  0  1.003627  0
H  H9  1  0.28261201  0.74824786  0.80159854  1  0.053845  0  0.094794  0.105472  0  1.000665  0
H  H10  1  0.27597257  0.46982006  0.08280314  1  0.076179  0  0.094295  0.104591  0  1.003441  0
H  H11  1  0.71739615  0.46818710  0.08148227  1  0.062945  0  0.094995  0.105371  0  1.000298  0
H  H12  1  0.72410817  0.55358857  0.25037605  1  0.046016  0  0.094177  0.104721  0  1.003655  0
H  H13  1  0.28261021  0.55335101  0.25174941  1  0.063989  0  0.09478  0.105439  0  1.000774  0
C  C14  1  0.49676899  0.42980280  0.36311069  1  1.666448  0  0.280968  0.686158  0  4.051376  0
C  C15  1  0.49675670  0.43331175  0.57019794  1  1.57528  0  0.280857  0.685926  0  4.051579  0
C  C16  1  0.49676243  0.63688950  0.56668964  1  1.57519  0  0.281001  0.68626  0  4.051283  0
C  C17  1  0.50324180  0.23689109  0.76670622  1  1.60945  0  0.28168  0.686173  0  4.051994  0
C  C18  1  0.50324358  0.02981677  0.76311055  1  1.611345  0  0.28161  0.68613  0  4.052111  0
C  C19  1  0.50324192  0.23329481  0.97018438  1  1.607874  0  0.281651  0.686235  0  4.051992  0
C  C20  1  0.49654622  0.28894357  0.71887274  1  0.153954  0  -0.007965  -0.119546  0  3.951681  0
C  C21  1  0.50346216  0.38550498  0.62230930  1  0.005697  0  -0.007689  -0.119973  0  3.951096  0
C  C22  1  0.49493070  0.24575908  0.62580264  1  -0.058218  0  -0.007199  0.060603  0  3.901045  0
C  C23  1  0.49971269  0.43097671  0.71695346  1  0.156749  0  0.014641  0.064592  0  4.007978  0
C  C24  1  0.50500934  0.29240402  0.57913229  1  0.000703  0  -0.007187  0.060382  0  3.90058  0
C  C25  1  0.50032929  0.38361021  0.76429776  1  0.123818  0  0.014685  0.063371  0  4.00858  0
C  C26  1  0.49686265  0.15448483  0.54098924  1  -0.043352  0  -0.148088  -0.188927  0  3.840501  0
C  C27  1  0.50309367  0.20760195  0.48787693  1  -0.045277  0  -0.147779  -0.189827  0  3.842148  0
C  C28  1  0.49655108  0.92992845  0.71105530  1  0.102194  0  -0.007982  -0.119635  0  3.95172  0
C  C29  1  0.50346598  0.73680579  0.61449353  1  0.15516  0  -0.007789  -0.120167  0  3.951219  0
C  C30  1  0.49493644  0.88004284  0.75424100  1  -0.059808  0  -0.007226  0.060536  0  3.901151  0
C  C31  1  0.49971070  0.78597945  0.56902342  1  0.112847  0  0.014674  0.064642  0  4.008024  0
C  C32  1  0.50501459  0.78672738  0.70759599  1  0.009653  0  -0.007117  0.060445  0  3.900599  0
C  C33  1  0.50032781  0.88069016  0.61639073  1  0.02316  0  0.014702  0.063492  0  4.008532  0
C  C34  1  0.49686423  0.88650190  0.84551423  1  -0.057188  0  -0.148071  -0.188826  0  3.840458  0
C  C35  1  0.50309717  0.78027376  0.79239653  1  -0.046411  0  -0.147807  -0.189869  0  3.842097  0
C  C36  1  0.49655119  0.28112935  0.07007292  1  0.037314  0  -0.007997  -0.119641  0  3.951654  0
C  C37  1  0.50346379  0.37769087  0.26319435  1  0.040223  0  -0.007756  -0.120096  0  3.951163  0
C  C38  1  0.49492460  0.37419913  0.11995766  1  0.058386  0  -0.007185  0.060621  0  3.901095  0
C  C39  1  0.49971052  0.28304564  0.21402248  1  0.158786  0  0.014626  0.064597  0  4.008008  0
C  C40  1  0.50500162  0.42086906  0.21327242  1  -0.004609  0  -0.00713  0.060483  0  3.900529  0
C  C41  1  0.50032876  0.23570168  0.11931180  1  -0.053817  0  0.014741  0.063489  0  4.008565  0
C  C42  1  0.49686123  0.45901199  0.11349550  1  -0.03593  0  -0.148153  -0.189043  0  3.840673  0
C  C43  1  0.50308545  0.51212376  0.21972357  1  -0.058463  0  -0.147792  -0.189809  0  3.842184  0
Cl  Cl44  1  0.50775989  0.54635048  0.77594921  1  -0.190911  0  0.000336  -0.058724  0  1.623868  0
Cl  Cl45  1  0.49224599  0.44254698  0.87966533  1  -0.197352  0  -5.4e-05  -0.058906  0  1.624898  0
Cl  Cl46  1  0.50775930  0.72960044  0.45364983  1  -0.191205  0  0.000337  -0.058718  0  1.62387  0
Cl  Cl47  1  0.49224651  0.93711948  0.55745281  1  -0.150438  0  -9.3e-05  -0.058983  0  1.624903  0
Cl  Cl48  1  0.50776209  0.22405286  0.27040297  1  -0.19442  0  0.0003  -0.058771  0  1.623899  0
Cl  Cl49  1  0.49224434  0.12033516  0.06288375  1  -0.131866  0  -4.3e-05  -0.058914  0  1.624887  0
O  O50  1  0.72852240  0.59835760  0.58503021  1  -1.251001  0  -0.233199  -0.58946  0  2.337726  0
O  O51  1  0.72853651  0.48667293  0.40163931  1  -1.251476  0  -0.233193  -0.589393  0  2.337728  0
O  O52  1  0.72851762  0.41497233  0.51332582  1  -1.246487  0  -0.233198  -0.589359  0  2.337752  0
O  O53  1  0.25696254  0.59799548  0.51334273  1  -1.254644  0  -0.231974  -0.599984  0  2.402472  0
O  O54  1  0.25695141  0.48665766  0.58465342  1  -1.249582  0  -0.231865  -0.599802  0  2.402522  0
O  O55  1  0.25697309  0.41535043  0.40200675  1  -1.249073  0  -0.231943  -0.599971  0  2.402485  0
O  O56  1  0.74300039  0.17992950  0.93126067  1  -1.255847  0  -0.232149  -0.60008  0  2.402654  0
O  O57  1  0.74300441  0.25133180  0.82007214  1  -1.252934  0  -0.232159  -0.60004  0  2.402624  0
O  O58  1  0.74300210  0.06874000  0.74866790  1  -1.257171  0  -0.232125  -0.599993  0  2.402678  0
O  O59  1  0.27141516  0.25167229  0.93168003  1  -1.254296  0  -0.233233  -0.589341  0  2.337942  0
O  O60  1  0.27141332  0.06832081  0.81999287  1  -1.254263  0  -0.233234  -0.58934  0  2.338027  0
O  O61  1  0.27141454  0.18000719  0.74832896  1  -1.252535  0  -0.233287  -0.589401  0  2.337947  0
