# generated using pymatgen
data_CdH13C12NO5
_symmetry_space_group_name_H-M   'P 1'
_cell_length_a   7.29899530
_cell_length_b   10.91938262
_cell_length_c   16.17463365
_cell_angle_alpha   89.99999338
_cell_angle_beta   90.00008195
_cell_angle_gamma   90.00019706
_symmetry_Int_Tables_number   1
_chemical_formula_structural   CdH13C12NO5
_chemical_formula_sum   'Cd4 H52 C48 N4 O20'
_cell_volume   1289.12675175
_cell_formula_units_Z   4
loop_
 _symmetry_equiv_pos_site_id
 _symmetry_equiv_pos_as_xyz
  1  'x, y, z'
loop_
 _atom_site_type_symbol
 _atom_site_label
 _atom_site_symmetry_multiplicity
 _atom_site_fract_x
 _atom_site_fract_y
 _atom_site_fract_z
 _atom_site_occupancy
 _atom_site_hle17_bader_spin_density
 _atom_site_hle17_ddec_charge
 _atom_site_hle17_ddec_spin_density
 _atom_site_hle17_ddec_sum_bond_order
 _atom_site_hle17_magmom
 _atom_site_hse06_10hf_bader_spin_density
 _atom_site_hse06_10hf_ddec_charge
 _atom_site_hse06_10hf_ddec_spin_density
 _atom_site_hse06_10hf_ddec_sum_bond_order
 _atom_site_hse06_10hf_magmom
 _atom_site_hse06_bader_spin_density
 _atom_site_hse06_ddec_charge
 _atom_site_hse06_ddec_spin_density
 _atom_site_hse06_ddec_sum_bond_order
 _atom_site_hse06_magmom
 _atom_site_pbe_bader_spin_density
 _atom_site_pbe_cm5_charge
 _atom_site_pbe_ddec_charge
 _atom_site_pbe_ddec_spin_density
 _atom_site_pbe_ddec_sum_bond_order
 _atom_site_pbe_magmom
Cd  Cd0  1  0.45545059  0.49016098  0.22158106  1  0  1.262494  0  1.594411  0  0  1.090906  0  2.043304  0  0  1.151235  0  1.981613  0  0  0.786607  1.047351  0  2.085968  0
Cd  Cd1  1  0.54454994  0.99016454  0.77841719  1  0  1.26249  0  1.594447  0  0  1.09092  0  2.043349  0  0  1.15125  0  1.981655  0  0  0.786629  1.047365  0  2.086014  0
Cd  Cd2  1  0.95544552  0.49016063  0.27841342  1  0  1.262526  0  1.594417  0  0  1.090948  0  2.043304  0  0  1.151275  0  1.981614  0  0  0.786632  1.047394  0  2.085966  0
Cd  Cd3  1  0.04455090  0.99015940  0.72158359  1  0  1.262498  0  1.594466  0  0  1.090942  0  2.043356  0  0  1.15127  0  1.981663  0  0  0.786633  1.047396  0  2.086009  0
H  H4  1  0.31921982  0.44913374  0.48746215  1  0  0.109226  0  0.943485  0  0  0.118739  0  1.006941  0  0  0.122016  0  1.004911  0  0  0.105288  0.116348  0  1.008478  0
H  H5  1  0.68077913  0.94913037  0.51253919  1  0  0.109209  0  0.943547  0  0  0.118733  0  1.007004  0  0  0.122011  0  1.004974  0  0  0.105291  0.116343  0  1.008539  0
H  H6  1  0.81922489  0.44913347  0.01253966  1  0  0.109312  0  0.943398  0  0  0.118798  0  1.00688  0  0  0.122076  0  1.004846  0  0  0.10531  0.116378  0  1.008448  0
H  H7  1  0.18077406  0.94913430  0.98745859  1  0  0.109269  0  0.943436  0  0  0.11877  0  1.006913  0  0  0.122047  0  1.004883  0  0  0.105303  0.11638  0  1.008448  0
H  H8  1  0.45926902  0.23795526  0.70322288  1  0  0.102974  0  0.989559  0  0  0.1113  0  1.056531  0  0  0.114706  0  1.053921  0  0  0.100308  0.108802  0  1.05849  0
H  H9  1  0.54072473  0.73795804  0.29677599  1  0  0.10301  0  0.989527  0  0  0.111329  0  1.056506  0  0  0.114737  0  1.053891  0  0  0.100324  0.108813  0  1.05848  0
H  H10  1  0.95927222  0.23796040  0.79677385  1  0  0.103026  0  0.989499  0  0  0.111304  0  1.056519  0  0  0.114718  0  1.053899  0  0  0.100325  0.108788  0  1.058493  0
H  H11  1  0.04072563  0.73796115  0.20322316  1  0  0.103003  0  0.989508  0  0  0.111306  0  1.0565  0  0  0.114726  0  1.053871  0  0  0.100336  0.10879  0  1.058475  0
H  H12  1  0.81895930  0.24088994  0.49273106  1  0  0.098039  0  0.969351  0  0  0.104375  0  1.04178  0  0  0.108475  0  1.037514  0  0  0.100832  0.101359  0  1.044962  0
H  H13  1  0.18103583  0.74088634  0.50726719  1  0  0.098016  0  0.969416  0  0  0.104334  0  1.041867  0  0  0.108436  0  1.037598  0  0  0.100812  0.101317  0  1.04505  0
H  H14  1  0.31895823  0.24088669  0.00726766  1  0  0.098002  0  0.969396  0  0  0.104339  0  1.041816  0  0  0.108441  0  1.037549  0  0  0.100808  0.101322  0  1.044999  0
H  H15  1  0.68104101  0.74088592  0.99272750  1  0  0.098084  0  0.969327  0  0  0.104406  0  1.041745  0  0  0.108506  0  1.03748  0  0  0.100865  0.10139  0  1.044926  0
H  H16  1  0.17647420  0.34147086  0.70167159  1  0  0.115727  0  0.961458  0  0  0.134025  0  1.025553  0  0  0.135677  0  1.025171  0  0  0.09016  0.132765  0  1.025891  0
H  H17  1  0.82352693  0.84146880  0.29832789  1  0  0.115706  0  0.96142  0  0  0.133987  0  1.025544  0  0  0.135638  0  1.025162  0  0  0.090145  0.132727  0  1.025881  0
H  H18  1  0.67646782  0.34147142  0.79832866  1  0  0.115643  0  0.961453  0  0  0.133932  0  1.025595  0  0  0.135584  0  1.025211  0  0  0.090114  0.132671  0  1.025933  0
H  H19  1  0.32352646  0.84147007  0.20166897  1  0  0.11567  0  0.961476  0  0  0.133944  0  1.025614  0  0  0.135592  0  1.025231  0  0  0.09012  0.132683  0  1.025952  0
H  H20  1  0.07434911  0.37176185  0.60404771  1  0  0.113336  0  0.943551  0  0  0.134823  0  1.002792  0  0  0.135769  0  1.003179  0  0  0.091969  0.134091  0  1.00256  0
H  H21  1  0.92565081  0.87175816  0.39595301  1  0  0.113322  0  0.943512  0  0  0.134813  0  1.00275  0  0  0.135759  0  1.003138  0  0  0.091951  0.134079  0  1.00252  0
H  H22  1  0.57434988  0.37175963  0.89595186  1  0  0.113277  0  0.94354  0  0  0.134765  0  1.002785  0  0  0.13571  0  1.003173  0  0  0.091952  0.134032  0  1.002553  0
H  H23  1  0.42565003  0.87175855  0.10404639  1  0  0.113295  0  0.943629  0  0  0.134805  0  1.002845  0  0  0.135751  0  1.003233  0  0  0.091969  0.134069  0  1.002617  0
H  H24  1  0.19912283  0.48861658  0.65482293  1  0  0.101142  0  0.949685  0  0  0.122893  0  1.010074  0  0  0.124107  0  1.00998  0  0  0.088916  0.121996  0  1.010145  0
H  H25  1  0.80088591  0.98861811  0.34517593  1  0  0.10109  0  0.949702  0  0  0.122854  0  1.010076  0  0  0.124071  0  1.009978  0  0  0.088902  0.121958  0  1.010146  0
H  H26  1  0.69911111  0.48861803  0.84517610  1  0  0.101044  0  0.949721  0  0  0.122807  0  1.0101  0  0  0.124025  0  1.010001  0  0  0.088897  0.12191  0  1.010171  0
H  H27  1  0.30088667  0.98861390  0.15482091  1  0  0.101093  0  0.949672  0  0  0.122833  0  1.010076  0  0  0.124052  0  1.009975  0  0  0.088931  0.121936  0  1.010146  0
H  H28  1  0.62722644  0.14935074  0.00410231  1  0  0.115347  0  0.957271  0  0  0.132934  0  1.023263  0  0  0.134381  0  1.022034  0  0  0.10771  0.131743  0  1.024298  0
H  H29  1  0.37278739  0.64934742  0.99589903  1  0  0.115337  0  0.957338  0  0  0.132992  0  1.023244  0  0  0.134441  0  1.022012  0  0  0.107783  0.1318  0  1.024279  0
H  H30  1  0.12721181  0.14935283  0.49589814  1  0  0.115329  0  0.957332  0  0  0.133018  0  1.023215  0  0  0.13447  0  1.021978  0  0  0.107752  0.131827  0  1.024249  0
H  H31  1  0.87278285  0.64935448  0.50410258  1  0  0.115302  0  0.95726  0  0  0.132946  0  1.023198  0  0  0.134395  0  1.021967  0  0  0.107744  0.131756  0  1.024231  0
H  H32  1  0.70342021  0.01166171  0.05204469  1  0  0.095521  0  0.953129  0  0  0.115868  0  1.015515  0  0  0.115902  0  1.01672  0  0  0.099908  0.115746  0  1.014746  0
H  H33  1  0.29658607  0.51165824  0.94795727  1  0  0.095571  0  0.953089  0  0  0.115875  0  1.015521  0  0  0.115909  0  1.016728  0  0  0.099917  0.115754  0  1.01475  0
H  H34  1  0.20341365  0.01166474  0.44795704  1  0  0.095533  0  0.953143  0  0  0.115874  0  1.015536  0  0  0.115909  0  1.016742  0  0  0.099903  0.115753  0  1.014766  0
H  H35  1  0.79658578  0.51166437  0.55204244  1  0  0.095537  0  0.953141  0  0  0.115884  0  1.01553  0  0  0.115919  0  1.016736  0  0  0.099909  0.115764  0  1.014757  0
H  H36  1  0.86568246  0.11292679  0.00605545  1  0  0.100916  0  0.951065  0  0  0.118369  0  1.018715  0  0  0.117591  0  1.02185  0  0  0.101062  0.118803  0  1.016643  0
H  H37  1  0.13432845  0.61292476  0.99394836  1  0  0.100898  0  0.951144  0  0  0.11833  0  1.018831  0  0  0.117553  0  1.021966  0  0  0.10102  0.118764  0  1.01676  0
H  H38  1  0.36567193  0.11293163  0.49394763  1  0  0.100894  0  0.951167  0  0  0.118335  0  1.018836  0  0  0.117556  0  1.021975  0  0  0.101039  0.118767  0  1.016765  0
H  H39  1  0.63432665  0.61292907  0.50605185  1  0  0.100906  0  0.951155  0  0  0.118339  0  1.018811  0  0  0.117559  0  1.021949  0  0  0.101063  0.118755  0  1.016757  0
H  H40  1  0.89295661  0.18408282  0.23227449  1  0  0.115977  0  0.951336  0  0  0.133131  0  1.01544  0  0  0.135051  0  1.013797  0  0  0.110174  0.131613  0  1.016739  0
H  H41  1  0.10703686  0.68408721  0.76773118  1  0  0.116089  0  0.951288  0  0  0.133221  0  1.015394  0  0  0.135159  0  1.01373  0  0  0.11021  0.131702  0  1.016693  0
H  H42  1  0.39296593  0.18408865  0.26773108  1  0  0.116027  0  0.951353  0  0  0.13319  0  1.015422  0  0  0.135112  0  1.013778  0  0  0.110204  0.131673  0  1.016719  0
H  H43  1  0.60703576  0.68408504  0.73227026  1  0  0.116028  0  0.951291  0  0  0.133173  0  1.01539  0  0  0.135101  0  1.013741  0  0  0.110178  0.131655  0  1.016688  0
H  H44  1  0.03284209  0.13836406  0.14702900  1  0  0.099723  0  0.928557  0  0  0.122146  0  0.988466  0  0  0.121916  0  0.989351  0  0  0.10542  0.122143  0  0.988  0
H  H45  1  0.96716073  0.63836490  0.85298100  1  0  0.099745  0  0.928516  0  0  0.122197  0  0.988365  0  0  0.121951  0  0.989269  0  0  0.105456  0.122194  0  0.987898  0
H  H46  1  0.53283999  0.13836827  0.35298190  1  0  0.099775  0  0.9285  0  0  0.12221  0  0.98837  0  0  0.121973  0  0.989263  0  0  0.105445  0.122207  0  0.987904  0
H  H47  1  0.46716009  0.63836345  0.64702130  1  0  0.099781  0  0.9285  0  0  0.122193  0  0.988389  0  0  0.121972  0  0.989265  0  0  0.105449  0.12219  0  0.987923  0
H  H48  1  0.87499066  0.03154763  0.19043799  1  0  0.093269  0  0.940914  0  0  0.115352  0  1.002406  0  0  0.11494  0  1.003912  0  0  0.103158  0.115552  0  1.001398  0
H  H49  1  0.12500065  0.53154747  0.80956706  1  0  0.093306  0  0.940695  0  0  0.115364  0  1.002234  0  0  0.114951  0  1.003739  0  0  0.103171  0.115561  0  1.001227  0
H  H50  1  0.37499738  0.03155161  0.30956695  1  0  0.093342  0  0.94073  0  0  0.11539  0  1.002263  0  0  0.114978  0  1.00377  0  0  0.103172  0.115592  0  1.001259  0
H  H51  1  0.62500352  0.53154714  0.69043439  1  0  0.093328  0  0.940802  0  0  0.115397  0  1.002308  0  0  0.114985  0  1.003816  0  0  0.103193  0.115596  0  1.0013  0
H  H52  1  0.55427307  0.29366832  0.08830450  1  0  0.048065  0  0.951089  0  0  0.057104  0  1.021075  0  0  0.059171  0  1.015296  0  0  0.123526  0.05542  0  1.025343  0
H  H53  1  0.44574151  0.79366154  0.91169189  1  0  0.048072  0  0.951126  0  0  0.057106  0  1.021124  0  0  0.059176  0  1.015344  0  0  0.123532  0.055416  0  1.025388  0
H  H54  1  0.05425681  0.29366587  0.41168848  1  0  0.048075  0  0.951191  0  0  0.057126  0  1.021176  0  0  0.059196  0  1.015394  0  0  0.123533  0.055435  0  1.025441  0
H  H55  1  0.94573586  0.79366674  0.58830915  1  0  0.048043  0  0.951173  0  0  0.0571  0  1.021146  0  0  0.059169  0  1.015366  0  0  0.123545  0.055412  0  1.025413  0
C  C56  1  0.62304631  0.40243549  0.39830536  1  0  0.671775  0  3.898674  0  0  0.620626  0  4.188881  0  0  0.657411  0  4.180521  0  0  0.212635  0.595589  0  4.19368  0
C  C57  1  0.37695651  0.90242956  0.60169783  1  0  0.67158  0  3.898801  0  0  0.62036  0  4.189111  0  0  0.657145  0  4.180755  0  0  0.212458  0.595326  0  4.19391  0
C  C58  1  0.12303868  0.40243405  0.10169570  1  0  0.671791  0  3.898677  0  0  0.620571  0  4.18897  0  0  0.657357  0  4.180609  0  0  0.212598  0.595536  0  4.193772  0
C  C59  1  0.87696140  0.90243924  0.89830502  1  0  0.671746  0  3.898582  0  0  0.620573  0  4.18883  0  0  0.657357  0  4.18047  0  0  0.212617  0.595536  0  4.19363  0
C  C60  1  0.57364772  0.35052864  0.48176442  1  0  -0.074528  0  3.785468  0  0  -0.04877  0  4.02378  0  0  -0.057055  0  4.045639  0  0  -0.021424  -0.043518  0  4.009132  0
C  C61  1  0.42634797  0.85053018  0.51823629  1  0  -0.074571  0  3.78558  0  0  -0.048789  0  4.0239  0  0  -0.057074  0  4.045761  0  0  -0.021408  -0.04354  0  4.009252  0
C  C62  1  0.07364669  0.35052814  0.01823537  1  0  -0.074647  0  3.785732  0  0  -0.048874  0  4.024057  0  0  -0.05716  0  4.045919  0  0  -0.021459  -0.043621  0  4.0094  0
C  C63  1  0.92635312  0.85053159  0.98176350  1  0  -0.074543  0  3.78564  0  0  -0.048773  0  4.023923  0  0  -0.057061  0  4.045791  0  0  -0.021391  -0.04352  0  4.00927  0
C  C64  1  0.41108167  0.38726221  0.52055597  1  0  -0.119942  0  3.677759  0  0  -0.154073  0  3.925171  0  0  -0.153161  0  3.94372  0  0  -0.081272  -0.154389  0  3.912593  0
C  C65  1  0.58891559  0.88726047  0.47944660  1  0  -0.119903  0  3.677821  0  0  -0.154046  0  3.925254  0  0  -0.153135  0  3.943799  0  0  -0.081276  -0.154362  0  3.912678  0
C  C66  1  0.91109366  0.38726637  0.97944567  1  0  -0.119977  0  3.678029  0  0  -0.154102  0  3.9254  0  0  -0.153196  0  3.943958  0  0  -0.08129  -0.154389  0  3.912826  0
C  C67  1  0.08891182  0.88726638  0.02055319  1  0  -0.119928  0  3.677937  0  0  -0.15406  0  3.92531  0  0  -0.15315  0  3.943859  0  0  -0.081311  -0.154375  0  3.912732  0
C  C68  1  0.36848268  0.34785607  0.60069193  1  0  0.136028  0  3.755212  0  0  0.168695  0  3.98948  0  0  0.167196  0  4.014662  0  0  -0.006986  0.169454  0  3.972396  0
C  C69  1  0.63151438  0.84785812  0.39930879  1  0  0.136047  0  3.755209  0  0  0.168692  0  3.989508  0  0  0.167195  0  4.014692  0  0  -0.006956  0.169453  0  3.972421  0
C  C70  1  0.86847798  0.34786301  0.89930906  1  0  0.135821  0  3.75537  0  0  0.168549  0  3.989563  0  0  0.167053  0  4.014747  0  0  -0.007065  0.169309  0  3.972469  0
C  C71  1  0.13152182  0.84786126  0.10068918  1  0  0.135859  0  3.755437  0  0  0.168572  0  3.989626  0  0  0.167074  0  4.014816  0  0  -0.007029  0.169332  0  3.972533  0
C  C72  1  0.49205297  0.27055147  0.64140449  1  0  -0.115054  0  3.671526  0  0  -0.149748  0  3.914571  0  0  -0.14887  0  3.933274  0  0  -0.083583  -0.150008  0  3.901924  0
C  C73  1  0.50794642  0.77055508  0.35859561  1  0  -0.11512  0  3.671655  0  0  -0.1498  0  3.914705  0  0  -0.148919  0  3.933398  0  0  -0.083637  -0.150044  0  3.90207  0
C  C74  1  0.99204815  0.27055842  0.85859412  1  0  -0.114978  0  3.67133  0  0  -0.14962  0  3.914348  0  0  -0.148741  0  3.93303  0  0  -0.08354  -0.149854  0  3.901728  0
C  C75  1  0.00794714  0.77055820  0.14140413  1  0  -0.115056  0  3.671394  0  0  -0.149672  0  3.914457  0  0  -0.148827  0  3.933127  0  0  -0.083607  -0.1499  0  3.901839  0
C  C76  1  0.65368875  0.23096060  0.60292515  1  0  -0.069149  0  3.785915  0  0  -0.044338  0  4.027351  0  0  -0.05326  0  4.050315  0  0  -0.023283  -0.038645  0  4.011944  0
C  C77  1  0.34631318  0.73096107  0.39707618  1  0  -0.069197  0  3.785922  0  0  -0.044395  0  4.027367  0  0  -0.053317  0  4.050332  0  0  -0.023264  -0.038701  0  4.011955  0
C  C78  1  0.15367929  0.23096364  0.89707446  1  0  -0.06913  0  3.785626  0  0  -0.044373  0  4.027128  0  0  -0.053291  0  4.05009  0  0  -0.023312  -0.038717  0  4.011763  0
C  C79  1  0.84631578  0.73096627  0.10292378  1  0  -0.068903  0  3.78553  0  0  -0.044307  0  4.027198  0  0  -0.053154  0  4.050071  0  0  -0.023254  -0.038669  0  4.011859  0
C  C80  1  0.69340242  0.27103343  0.52274901  1  0  -0.088896  0  3.72915  0  0  -0.130109  0  3.986904  0  0  -0.127156  0  4.003875  0  0  -0.085222  -0.131804  0  3.975486  0
C  C81  1  0.30659698  0.77103196  0.47725357  1  0  -0.088827  0  3.729123  0  0  -0.130018  0  3.986867  0  0  -0.127068  0  4.003839  0  0  -0.085213  -0.131713  0  3.975449  0
C  C82  1  0.19340417  0.27103096  0.97725125  1  0  -0.088825  0  3.728937  0  0  -0.130009  0  3.986689  0  0  -0.127059  0  4.003658  0  0  -0.085183  -0.131692  0  3.975283  0
C  C83  1  0.80659112  0.77103352  0.02274699  1  0  -0.089106  0  3.728931  0  0  -0.130217  0  3.9867  0  0  -0.12729  0  4.003651  0  0  -0.085284  -0.131894  0  3.975297  0
C  C84  1  0.19536861  0.38942324  0.64273487  1  0  -0.334073  0  3.718545  0  0  -0.409945  0  3.944659  0  0  -0.411931  0  3.954428  0  0  -0.239717  -0.408245  0  3.937925  0
C  C85  1  0.80463277  0.88942294  0.35726461  1  0  -0.333985  0  3.718347  0  0  -0.409848  0  3.944477  0  0  -0.411834  0  3.954238  0  0  -0.239686  -0.408148  0  3.937745  0
C  C86  1  0.69536515  0.38942469  0.85726539  1  0  -0.333735  0  3.718564  0  0  -0.409638  0  3.944692  0  0  -0.411622  0  3.954449  0  0  -0.239601  -0.40794  0  3.937963  0
C  C87  1  0.30463348  0.88942149  0.14273223  1  0  -0.333845  0  3.718731  0  0  -0.409718  0  3.944849  0  0  -0.411699  0  3.954603  0  0  -0.239658  -0.408018  0  3.938123  0
C  C88  1  0.78551360  0.14897350  0.64708014  1  0  0.655939  0  3.892787  0  0  0.603058  0  4.182928  0  0  0.638807  0  4.176245  0  0  0.203534  0.578705  0  4.186694  0
C  C89  1  0.21448790  0.64897461  0.35291749  1  0  0.655936  0  3.892733  0  0  0.603062  0  4.182864  0  0  0.63881  0  4.17618  0  0  0.203497  0.578709  0  4.186633  0
C  C90  1  0.28551360  0.14897931  0.85291709  1  0  0.655905  0  3.892636  0  0  0.603025  0  4.182793  0  0  0.638771  0  4.176109  0  0  0.203554  0.578683  0  4.186563  0
C  C91  1  0.71448791  0.64897796  0.14707992  1  0  0.655866  0  3.892767  0  0  0.603045  0  4.182901  0  0  0.638771  0  4.17621  0  0  0.203526  0.578709  0  4.186675  0
C  C92  1  0.73687710  0.10830000  0.04106454  1  0  -0.181456  0  3.661284  0  0  -0.283896  0  3.911464  0  0  -0.281092  0  3.923866  0  0  -0.136911  -0.285472  0  3.903009  0
C  C93  1  0.26312967  0.60829919  0.95893803  1  0  -0.181345  0  3.661309  0  0  -0.283776  0  3.911502  0  0  -0.280974  0  3.923904  0  0  -0.136839  -0.285352  0  3.903048  0
C  C94  1  0.23687194  0.10830669  0.45893721  1  0  -0.181435  0  3.661441  0  0  -0.283932  0  3.9116  0  0  -0.281132  0  3.924004  0  0  -0.136951  -0.285506  0  3.903146  0
C  C95  1  0.76312524  0.60830441  0.54106289  1  0  -0.181343  0  3.661329  0  0  -0.28379  0  3.911483  0  0  -0.280989  0  3.923884  0  0  -0.13689  -0.285351  0  3.903038  0
C  C96  1  0.89722272  0.12873996  0.17596224  1  0  -0.162613  0  3.640267  0  0  -0.261539  0  3.881165  0  0  -0.257392  0  3.891363  0  0  -0.132404  -0.264031  0  3.874345  0
C  C97  1  0.10277457  0.62874066  0.82404342  1  0  -0.162821  0  3.640111  0  0  -0.261712  0  3.881024  0  0  -0.257573  0  3.891213  0  0  -0.132495  -0.264202  0  3.874206  0
C  C98  1  0.39722537  0.12874486  0.32404395  1  0  -0.16282  0  3.640214  0  0  -0.261719  0  3.88111  0  0  -0.257574  0  3.89131  0  0  -0.132501  -0.264217  0  3.874297  0
C  C99  1  0.60277467  0.62873943  0.67595801  1  0  -0.16283  0  3.640285  0  0  -0.261703  0  3.881182  0  0  -0.257576  0  3.891367  0  0  -0.132486  -0.264195  0  3.874363  0
C  C100  1  0.65237699  0.26850492  0.13712790  1  0  0.398337  0  3.804626  0  0  0.321448  0  4.091776  0  0  0.350466  0  4.09218  0  0  0.173349  0.302016  0  4.090915  0
C  C101  1  0.34762924  0.76849975  0.86286850  1  0  0.398238  0  3.804944  0  0  0.321352  0  4.092078  0  0  0.350363  0  4.09249  0  0  0.173284  0.301931  0  4.091205  0
C  C102  1  0.15236606  0.26850431  0.36286700  1  0  0.39833  0  3.804914  0  0  0.321411  0  4.092062  0  0  0.350423  0  4.09247  0  0  0.173311  0.30199  0  4.091186  0
C  C103  1  0.84762647  0.76850311  0.63713125  1  0  0.398285  0  3.804655  0  0  0.321383  0  4.091804  0  0  0.350394  0  4.092212  0  0  0.173247  0.301958  0  4.090938  0
N  N104  1  0.75668559  0.17176788  0.11943912  1  0  -0.084139  0  3.52333  0  0  0.022379  0  3.753679  0  0  0.001854  0  3.779554  0  0  -0.280841  0.036087  0  3.735755  0
N  N105  1  0.24332014  0.67176522  0.88056283  1  0  -0.084244  0  3.523463  0  0  0.022254  0  3.753836  0  0  0.001738  0  3.779697  0  0  -0.280976  0.035962  0  3.73591  0
N  N106  1  0.25667745  0.17177093  0.38056203  1  0  -0.084227  0  3.523428  0  0  0.022303  0  3.753801  0  0  0.001785  0  3.779666  0  0  -0.280829  0.036015  0  3.735871  0
N  N107  1  0.74331595  0.67176767  0.61943807  1  0  -0.084218  0  3.523523  0  0  0.022291  0  3.753884  0  0  0.001774  0  3.779752  0  0  -0.280879  0.036001  0  3.735952  0
O  O108  1  0.49495067  0.45399046  0.35828957  1  0  -0.653134  0  2.069066  0  0  -0.586953  0  2.328924  0  0  -0.618358  0  2.319442  0  0  -0.324556  -0.564824  0  2.334622  0
O  O109  1  0.50505104  0.95399214  0.64171052  1  0  -0.652976  0  2.068975  0  0  -0.586789  0  2.328889  0  0  -0.618196  0  2.319408  0  0  -0.324472  -0.564657  0  2.334577  0
O  O110  1  0.99495750  0.45400023  0.14170987  1  0  -0.653158  0  2.069214  0  0  -0.586943  0  2.329105  0  0  -0.61835  0  2.319621  0  0  -0.324543  -0.564806  0  2.334776  0
O  O111  1  0.00504832  0.95399611  0.85828837  1  0  -0.653104  0  2.069109  0  0  -0.586944  0  2.329021  0  0  -0.618348  0  2.319537  0  0  -0.324558  -0.564825  0  2.334739  0
O  O112  1  0.78986510  0.39240215  0.37640879  1  0  -0.6595  0  2.053987  0  0  -0.590433  0  2.310155  0  0  -0.62146  0  2.297335  0  0  -0.326672  -0.568509  0  2.318102  0
O  O113  1  0.21014726  0.89239492  0.62359811  1  0  -0.659452  0  2.054217  0  0  -0.590352  0  2.310407  0  0  -0.621379  0  2.297591  0  0  -0.326628  -0.568428  0  2.318353  0
O  O114  1  0.28986165  0.39239704  0.12358929  1  0  -0.659494  0  2.053976  0  0  -0.590387  0  2.310158  0  0  -0.621414  0  2.297339  0  0  -0.326658  -0.568464  0  2.318108  0
O  O115  1  0.71013427  0.89241102  0.87641019  1  0  -0.659492  0  2.053886  0  0  -0.590408  0  2.310066  0  0  -0.621435  0  2.297244  0  0  -0.3267  -0.568484  0  2.318017  0
O  O116  1  0.75796192  0.12306082  0.72409888  1  0  -0.707735  0  2.074468  0  0  -0.62982  0  2.340691  0  0  -0.661698  0  2.325366  0  0  -0.338556  -0.607242  0  2.350425  0
O  O117  1  0.24204220  0.62305927  0.27589999  1  0  -0.707714  0  2.074352  0  0  -0.629819  0  2.340605  0  0  -0.661698  0  2.325281  0  0  -0.338552  -0.607242  0  2.350338  0
O  O118  1  0.25795756  0.12306116  0.77589958  1  0  -0.707742  0  2.074393  0  0  -0.629861  0  2.340691  0  0  -0.661737  0  2.325362  0  0  -0.338611  -0.607287  0  2.350429  0
O  O119  1  0.74203970  0.62306260  0.22409682  1  0  -0.707723  0  2.07458  0  0  -0.629819  0  2.3408  0  0  -0.661697  0  2.325482  0  0  -0.338589  -0.607242  0  2.35053  0
O  O120  1  0.92629857  0.10987073  0.60950468  1  0  -0.617713  0  1.937122  0  0  -0.554447  0  2.170242  0  0  -0.58329  0  2.16113  0  0  -0.314117  -0.534311  0  2.175893  0
O  O121  1  0.07369040  0.60988340  0.39048738  1  0  -0.617679  0  1.937178  0  0  -0.554395  0  2.170266  0  0  -0.58324  0  2.161155  0  0  -0.314058  -0.534257  0  2.175919  0
O  O122  1  0.42630416  0.10988476  0.89049017  1  0  -0.617675  0  1.937208  0  0  -0.554378  0  2.170312  0  0  -0.583222  0  2.161203  0  0  -0.314042  -0.534238  0  2.175958  0
O  O123  1  0.57369851  0.60987944  0.10950808  1  0  -0.617691  0  1.937258  0  0  -0.554421  0  2.170362  0  0  -0.583267  0  2.161259  0  0  -0.314049  -0.534281  0  2.176006  0
O  O124  1  0.65867400  0.32682048  0.20409325  1  0  -0.56591  0  2.125373  0  0  -0.504127  0  2.398167  0  0  -0.531981  0  2.38981  0  0  -0.309006  -0.484612  0  2.403107  0
O  O125  1  0.34132842  0.82681807  0.79590809  1  0  -0.565836  0  2.125637  0  0  -0.504051  0  2.398411  0  0  -0.531904  0  2.390065  0  0  -0.308943  -0.484537  0  2.403348  0
O  O126  1  0.15866560  0.32681440  0.29590536  1  0  -0.56581  0  2.125419  0  0  -0.504039  0  2.398245  0  0  -0.531888  0  2.389891  0  0  -0.308954  -0.484531  0  2.403198  0
O  O127  1  0.84133134  0.82681316  0.70409597  1  0  -0.565794  0  2.1252  0  0  -0.504047  0  2.398039  0  0  -0.531898  0  2.389686  0  0  -0.308934  -0.484539  0  2.402991  0
