# generated using pymatgen
data_Li2H8C16O7
_symmetry_space_group_name_H-M   'P 1'
_cell_length_a   7.39628828
_cell_length_b   9.48491703
_cell_length_c   18.84424688
_cell_angle_alpha   90.00006494
_cell_angle_beta   96.58629138
_cell_angle_gamma   89.99966265
_symmetry_Int_Tables_number   1
_chemical_formula_structural   Li2H8C16O7
_chemical_formula_sum   'Li8 H32 C64 O28'
_cell_volume   1313.25907548
_cell_formula_units_Z   4
loop_
 _symmetry_equiv_pos_site_id
 _symmetry_equiv_pos_as_xyz
  1  'x, y, z'
loop_
 _atom_site_type_symbol
 _atom_site_label
 _atom_site_symmetry_multiplicity
 _atom_site_fract_x
 _atom_site_fract_y
 _atom_site_fract_z
 _atom_site_occupancy
 _atom_site_hle17_bader_spin_density
 _atom_site_hle17_ddec_charge
 _atom_site_hle17_ddec_spin_density
 _atom_site_hle17_ddec_sum_bond_order
 _atom_site_hle17_magmom
 _atom_site_hse06_10hf_bader_spin_density
 _atom_site_hse06_10hf_ddec_charge
 _atom_site_hse06_10hf_ddec_spin_density
 _atom_site_hse06_10hf_ddec_sum_bond_order
 _atom_site_hse06_10hf_magmom
 _atom_site_hse06_bader_spin_density
 _atom_site_hse06_ddec_charge
 _atom_site_hse06_ddec_spin_density
 _atom_site_hse06_ddec_sum_bond_order
 _atom_site_hse06_magmom
 _atom_site_pbe_bader_spin_density
 _atom_site_pbe_cm5_charge
 _atom_site_pbe_ddec_charge
 _atom_site_pbe_ddec_spin_density
 _atom_site_pbe_ddec_sum_bond_order
 _atom_site_pbe_magmom
Li  Li0  1  0.72839443  0.79786161  0.65690701  1  0  0.861969  0  0.384283  0  0  0.827005  0  0.482072  0  0  0.836179  0  0.465571  0  0  0.513379  0.820739  0  0.493054  0
Li  Li1  1  0.77161598  0.29785994  0.34309335  1  0  0.861979  0  0.384254  0  0  0.826988  0  0.482062  0  0  0.836165  0  0.46556  0  0  0.513351  0.82072  0  0.493045  0
Li  Li2  1  0.27160367  0.20213859  0.34309543  1  0  0.861957  0  0.384284  0  0  0.827006  0  0.482041  0  0  0.83618  0  0.465541  0  0  0.513389  0.820741  0  0.493022  0
Li  Li3  1  0.22838606  0.70214131  0.65690553  1  0  0.861975  0  0.384262  0  0  0.826979  0  0.48208  0  0  0.836156  0  0.465577  0  0  0.513364  0.820711  0  0.493064  0
Li  Li4  1  0.65967962  0.49963542  0.45344315  1  0  0.870772  0  0.361535  0  0  0.831888  0  0.462233  0  0  0.84071  0  0.446802  0  0  0.489924  0.825122  0  0.47388  0
Li  Li5  1  0.84032114  0.99963421  0.54655747  1  0  0.87078  0  0.361516  0  0  0.831897  0  0.462212  0  0  0.840718  0  0.44678  0  0  0.489924  0.825133  0  0.473858  0
Li  Li6  1  0.34031562  0.50036056  0.54655547  1  0  0.870806  0  0.361476  0  0  0.831907  0  0.462199  0  0  0.840728  0  0.446769  0  0  0.489928  0.825138  0  0.473846  0
Li  Li7  1  0.15967690  0.00036072  0.45344338  1  0  0.870793  0  0.361513  0  0  0.831909  0  0.462204  0  0  0.840729  0  0.446774  0  0  0.489921  0.825145  0  0.473847  0
H  H8  1  0.48630716  0.85419252  0.54106418  1  0  0.442377  0  0.830274  0  0  0.420541  0  0.882852  0  0  0.429399  0  0.869818  0  0  0.330914  0.414066  0  0.892501  0
H  H9  1  0.01369779  0.35419125  0.45893799  1  0  0.442472  0  0.83019  0  0  0.420623  0  0.882755  0  0  0.429481  0  0.869719  0  0  0.330963  0.414147  0  0.892403  0
H  H10  1  0.51370043  0.14580346  0.45893757  1  0  0.44244  0  0.830228  0  0  0.420596  0  0.882787  0  0  0.429455  0  0.86975  0  0  0.330982  0.414121  0  0.892434  0
H  H11  1  0.98629474  0.64580578  0.54106106  1  0  0.442377  0  0.830362  0  0  0.420536  0  0.88288  0  0  0.429395  0  0.869845  0  0  0.330964  0.41406  0  0.892528  0
H  H12  1  0.66729655  0.78245398  0.52490771  1  0  0.421552  0  0.885736  0  0  0.390581  0  0.950802  0  0  0.401863  0  0.934005  0  0  0.310328  0.38247  0  0.962951  0
H  H13  1  0.83270721  0.28245339  0.47509345  1  0  0.421526  0  0.885765  0  0  0.390545  0  0.950847  0  0  0.401825  0  0.934053  0  0  0.310295  0.382434  0  0.962995  0
H  H14  1  0.33270970  0.21753989  0.47509452  1  0  0.421496  0  0.885798  0  0  0.390488  0  0.950931  0  0  0.401768  0  0.934134  0  0  0.310271  0.382374  0  0.963086  0
H  H15  1  0.16728809  0.71753732  0.52490676  1  0  0.421589  0  0.885681  0  0  0.390537  0  0.950898  0  0  0.401821  0  0.934095  0  0  0.310284  0.38242  0  0.96306  0
H  H16  1  0.26745088  0.11979277  0.96369133  1  0  0.096809  0  0.964469  0  0  0.105481  0  1.029494  0  0  0.108586  0  1.027729  0  0  0.105736  0.103191  0  1.030957  0
H  H17  1  0.23255140  0.61978458  0.03630212  1  0  0.096756  0  0.964614  0  0  0.105458  0  1.029603  0  0  0.108565  0  1.027836  0  0  0.105713  0.103168  0  1.031065  0
H  H18  1  0.73254716  0.88021059  0.03630952  1  0  0.096675  0  0.964529  0  0  0.105359  0  1.029573  0  0  0.108467  0  1.027808  0  0  0.105667  0.103069  0  1.031033  0
H  H19  1  0.76744511  0.38022194  0.96369442  1  0  0.096774  0  0.964528  0  0  0.105458  0  1.029565  0  0  0.108566  0  1.027794  0  0  0.105724  0.103169  0  1.031021  0
H  H20  1  0.21637969  0.87239090  0.00423649  1  0  0.105153  0  0.962595  0  0  0.111635  0  1.028093  0  0  0.115562  0  1.025116  0  0  0.103341  0.108967  0  1.029656  0
H  H21  1  0.28361811  0.37237484  0.99576010  1  0  0.10524  0  0.962395  0  0  0.111689  0  1.02795  0  0  0.115619  0  1.024964  0  0  0.103352  0.109023  0  1.029504  0
H  H22  1  0.78361034  0.12761773  0.99576776  1  0  0.104941  0  0.962475  0  0  0.111425  0  1.028034  0  0  0.115354  0  1.025051  0  0  0.103226  0.108762  0  1.029585  0
H  H23  1  0.71639329  0.62763274  0.00423490  1  0  0.10495  0  0.962505  0  0  0.111415  0  1.028075  0  0  0.115345  0  1.025091  0  0  0.103233  0.108751  0  1.029622  0
H  H24  1  0.32281278  0.67075578  0.93452334  1  0  0.09267  0  0.943394  0  0  0.106319  0  0.996824  0  0  0.108609  0  0.996627  0  0  0.106504  0.104777  0  0.997162  0
H  H25  1  0.17719895  0.17074549  0.06547793  1  0  0.092687  0  0.94352  0  0  0.106399  0  0.996875  0  0  0.108691  0  0.996675  0  0  0.10653  0.104858  0  0.997212  0
H  H26  1  0.67718006  0.32925074  0.06548315  1  0  0.092683  0  0.943338  0  0  0.106334  0  0.996772  0  0  0.108625  0  0.996576  0  0  0.106503  0.104792  0  0.997111  0
H  H27  1  0.82283290  0.82925892  0.93451892  1  0  0.092694  0  0.943495  0  0  0.106346  0  0.99691  0  0  0.10864  0  0.996708  0  0  0.106478  0.104804  0  0.99725  0
H  H28  1  0.47490725  0.71630658  0.82544669  1  0  0.108754  0  0.934591  0  0  0.118995  0  0.992547  0  0  0.122462  0  0.990583  0  0  0.117244  0.115514  0  0.995932  0
H  H29  1  0.02510001  0.21629829  0.17455337  1  0  0.108796  0  0.934516  0  0  0.119008  0  0.992508  0  0  0.122477  0  0.990539  0  0  0.117241  0.115523  0  0.995897  0
H  H30  1  0.52507602  0.28369045  0.17455836  1  0  0.108986  0  0.934393  0  0  0.119211  0  0.992364  0  0  0.122682  0  0.99039  0  0  0.117292  0.115726  0  0.99575  0
H  H31  1  0.97493320  0.78369242  0.82544354  1  0  0.108975  0  0.934514  0  0  0.119203  0  0.992468  0  0  0.122676  0  0.990491  0  0  0.1173  0.11572  0  0.995853  0
H  H32  1  0.63482655  0.04469338  0.64090918  1  0  0.098171  0  0.993096  0  0  0.100582  0  1.070191  0  0  0.106267  0  1.064141  0  0  0.126971  0.096432  0  1.074872  0
H  H33  1  0.86517894  0.54468742  0.35909086  1  0  0.098142  0  0.99314  0  0  0.100583  0  1.07021  0  0  0.106276  0  1.064159  0  0  0.126968  0.096428  0  1.074893  0
H  H34  1  0.36516464  0.95530576  0.35909034  1  0  0.098133  0  0.993162  0  0  0.100599  0  1.070208  0  0  0.106288  0  1.064152  0  0  0.126971  0.096444  0  1.07489  0
H  H35  1  0.13483130  0.45531067  0.64090940  1  0  0.098124  0  0.99318  0  0  0.100574  0  1.070248  0  0  0.106266  0  1.064195  0  0  0.126966  0.09642  0  1.074931  0
H  H36  1  0.48614749  0.45013866  0.78991454  1  0  0.112445  0  0.932624  0  0  0.122069  0  0.99352  0  0  0.126074  0  0.991286  0  0  0.113053  0.11812  0  0.997336  0
H  H37  1  0.01384981  0.95012871  0.21008420  1  0  0.112442  0  0.932622  0  0  0.121987  0  0.993604  0  0  0.125988  0  0.991384  0  0  0.113015  0.118038  0  0.99742  0
H  H38  1  0.51385047  0.54986575  0.21008419  1  0  0.112459  0  0.93263  0  0  0.122057  0  0.993563  0  0  0.126066  0  0.991319  0  0  0.113031  0.118105  0  0.997384  0
H  H39  1  0.98615093  0.04987149  0.78991623  1  0  0.112441  0  0.932613  0  0  0.121994  0  0.993585  0  0  0.125997  0  0.991361  0  0  0.113015  0.118044  0  0.997402  0
C  C40  1  0.43116954  0.20351993  0.85221469  1  0  0.38404  0  3.74534  0  0  0.361741  0  4.014368  0  0  0.383332  0  4.017233  0  0  0.158773  0.347393  0  4.011432  0
C  C41  1  0.06882399  0.70351064  0.14777953  1  0  0.384378  0  3.745305  0  0  0.361971  0  4.014293  0  0  0.383574  0  4.017157  0  0  0.158817  0.347601  0  4.011379  0
C  C42  1  0.56882025  0.79648342  0.14778372  1  0  0.384214  0  3.745101  0  0  0.361844  0  4.014161  0  0  0.383438  0  4.017024  0  0  0.158869  0.347504  0  4.011212  0
C  C43  1  0.93118071  0.29649271  0.85221787  1  0  0.384248  0  3.744963  0  0  0.36184  0  4.014025  0  0  0.383445  0  4.016893  0  0  0.158797  0.347478  0  4.011085  0
C  C44  1  0.50337315  0.22513717  0.78261372  1  0  -0.033709  0  3.744549  0  0  -0.0258  0  3.984892  0  0  -0.028987  0  4.008247  0  0  -0.006416  -0.023242  0  3.968591  0
C  C45  1  0.99663236  0.72512923  0.21738641  1  0  -0.03395  0  3.744513  0  0  -0.025903  0  3.984782  0  0  -0.029087  0  4.00813  0  0  -0.006474  -0.023339  0  3.968481  0
C  C46  1  0.49662500  0.77486724  0.21738979  1  0  -0.03371  0  3.744342  0  0  -0.025809  0  3.984637  0  0  -0.028996  0  4.007991  0  0  -0.006432  -0.023252  0  3.968332  0
C  C47  1  0.00337100  0.27486991  0.78261146  1  0  -0.033863  0  3.744532  0  0  -0.02593  0  3.984869  0  0  -0.029117  0  4.00822  0  0  -0.006506  -0.023368  0  3.968564  0
C  C48  1  0.55050495  0.10971798  0.74129366  1  0  -0.054285  0  3.747449  0  0  -0.046142  0  3.988842  0  0  -0.052501  0  4.010791  0  0  -0.005418  -0.042283  0  3.974406  0
C  C49  1  0.94950008  0.60971246  0.25870693  1  0  -0.054079  0  3.747389  0  0  -0.046091  0  3.988993  0  0  -0.05245  0  4.010941  0  0  -0.005381  -0.042243  0  3.974554  0
C  C50  1  0.44948778  0.89028433  0.25871017  1  0  -0.054402  0  3.74778  0  0  -0.046142  0  3.989021  0  0  -0.052502  0  4.01097  0  0  -0.005431  -0.042288  0  3.974585  0
C  C51  1  0.05049919  0.39028774  0.74129079  1  0  -0.054173  0  3.74748  0  0  -0.045988  0  3.988909  0  0  -0.052348  0  4.010857  0  0  -0.005393  -0.04214  0  3.974474  0
C  C52  1  0.54771539  0.96453835  0.76915191  1  0  0.432202  0  3.727074  0  0  0.410001  0  3.990416  0  0  0.434485  0  3.988502  0  0  0.180928  0.394041  0  3.99079  0
C  C53  1  0.95229245  0.46453350  0.23084950  1  0  0.432003  0  3.727313  0  0  0.409759  0  3.990876  0  0  0.434245  0  3.988962  0  0  0.180862  0.393828  0  3.991196  0
C  C54  1  0.45227453  0.03545973  0.23084968  1  0  0.432236  0  3.726984  0  0  0.410018  0  3.990258  0  0  0.434504  0  3.988344  0  0  0.181023  0.394064  0  3.990619  0
C  C55  1  0.04771913  0.53546459  0.76915028  1  0  0.432147  0  3.727037  0  0  0.409791  0  3.990623  0  0  0.434278  0  3.988705  0  0  0.180951  0.393851  0  3.990963  0
C  C56  1  0.45781370  0.94112356  0.83426523  1  0  -0.049071  0  3.733094  0  0  -0.038605  0  3.966462  0  0  -0.044342  0  3.9899  0  0  -0.005056  -0.034441  0  3.950166  0
C  C57  1  0.04218637  0.44111518  0.16573308  1  0  -0.049034  0  3.733117  0  0  -0.038729  0  3.96659  0  0  -0.044457  0  3.990037  0  0  -0.005142  -0.034581  0  3.950283  0
C  C58  1  0.54217216  0.05887874  0.16573674  1  0  -0.049009  0  3.732893  0  0  -0.038564  0  3.966168  0  0  -0.044301  0  3.989606  0  0  -0.005119  -0.034399  0  3.949871  0
C  C59  1  0.95782518  0.55888186  0.83426564  1  0  -0.049018  0  3.732846  0  0  -0.038599  0  3.96622  0  0  -0.044327  0  3.989668  0  0  -0.005139  -0.034452  0  3.949915  0
C  C60  1  0.39994397  0.05588563  0.87384579  1  0  -0.050323  0  3.746702  0  0  -0.039183  0  3.980488  0  0  -0.045313  0  4.006124  0  0  -0.008569  -0.035004  0  3.962942  0
C  C61  1  0.10006032  0.55587720  0.12615195  1  0  -0.050801  0  3.747121  0  0  -0.039376  0  3.980651  0  0  -0.045546  0  4.006341  0  0  -0.008637  -0.035164  0  3.963073  0
C  C62  1  0.60004590  0.94411983  0.12615474  1  0  -0.050693  0  3.74682  0  0  -0.039402  0  3.980439  0  0  -0.045534  0  4.006078  0  0  -0.008573  -0.035228  0  3.962898  0
C  C63  1  0.89994579  0.44412299  0.87384656  1  0  -0.050745  0  3.747126  0  0  -0.039359  0  3.980657  0  0  -0.04553  0  4.006346  0  0  -0.008586  -0.035146  0  3.963071  0
C  C64  1  0.31272025  0.02975916  0.93462941  1  0  -0.056096  0  3.706041  0  0  -0.081797  0  3.957295  0  0  -0.082798  0  3.978639  0  0  -0.075036  -0.08143  0  3.943177  0
C  C65  1  0.18728147  0.52975125  0.06536715  1  0  -0.055935  0  3.706284  0  0  -0.081763  0  3.957481  0  0  -0.082751  0  3.978837  0  0  -0.074981  -0.081405  0  3.943357  0
C  C66  1  0.68727237  0.97024736  0.06537176  1  0  -0.055793  0  3.705951  0  0  -0.081551  0  3.957122  0  0  -0.082555  0  3.978473  0  0  -0.074954  -0.081183  0  3.943007  0
C  C67  1  0.81271910  0.47025422  0.93462902  1  0  -0.055946  0  3.705938  0  0  -0.081753  0  3.957126  0  0  -0.08274  0  3.978481  0  0  -0.074986  -0.081396  0  3.943002  0
C  C68  1  0.28441146  0.89210417  0.95674774  1  0  -0.05565  0  3.712682  0  0  -0.069826  0  3.966336  0  0  -0.072287  0  3.987411  0  0  -0.076228  -0.067296  0  3.951427  0
C  C69  1  0.21559030  0.39209365  0.04324955  1  0  -0.055656  0  3.712269  0  0  -0.069784  0  3.96596  0  0  -0.072245  0  3.987034  0  0  -0.076245  -0.067251  0  3.951053  0
C  C70  1  0.71557717  0.10790446  0.04325540  1  0  -0.055416  0  3.712373  0  0  -0.069586  0  3.966037  0  0  -0.072046  0  3.987115  0  0  -0.076132  -0.067055  0  3.951127  0
C  C71  1  0.78441842  0.60791392  0.95674641  1  0  -0.055355  0  3.71207  0  0  -0.069488  0  3.965717  0  0  -0.071951  0  3.986794  0  0  -0.07612  -0.066952  0  3.950811  0
C  C72  1  0.34424283  0.77888528  0.91780518  1  0  -0.047757  0  3.72699  0  0  -0.063302  0  3.983139  0  0  -0.065498  0  4.00487  0  0  -0.07371  -0.0628  0  3.968819  0
C  C73  1  0.15575852  0.27887829  0.08219469  1  0  -0.047897  0  3.727216  0  0  -0.063513  0  3.98333  0  0  -0.06571  0  4.005066  0  0  -0.073753  -0.063009  0  3.969002  0
C  C74  1  0.65574720  0.22111702  0.08219908  1  0  -0.047837  0  3.727256  0  0  -0.063402  0  3.983424  0  0  -0.065601  0  4.005159  0  0  -0.07372  -0.0629  0  3.969102  0
C  C75  1  0.84425706  0.72112717  0.91780313  1  0  -0.047773  0  3.727245  0  0  -0.063332  0  3.983362  0  0  -0.065529  0  4.005099  0  0  -0.073648  -0.062824  0  3.969023  0
C  C76  1  0.42974349  0.80309293  0.85684793  1  0  -0.045761  0  3.69399  0  0  -0.073261  0  3.950303  0  0  -0.073196  0  3.969401  0  0  -0.063751  -0.073183  0  3.938263  0
C  C77  1  0.07025627  0.30308541  0.14315082  1  0  -0.045599  0  3.69395  0  0  -0.073015  0  3.950229  0  0  -0.072948  0  3.969328  0  0  -0.06367  -0.072934  0  3.938187  0
C  C78  1  0.57023960  0.19691043  0.14315287  1  0  -0.045946  0  3.694063  0  0  -0.073438  0  3.950356  0  0  -0.073373  0  3.969455  0  0  -0.063811  -0.073355  0  3.938312  0
C  C79  1  0.92976206  0.69691478  0.85684763  1  0  -0.045955  0  3.69408  0  0  -0.073431  0  3.950368  0  0  -0.073367  0  3.969468  0  0  -0.063827  -0.073348  0  3.93833  0
C  C80  1  0.60395015  0.13379812  0.67366797  1  0  -0.038375  0  3.67279  0  0  -0.074833  0  3.930575  0  0  -0.072292  0  3.946488  0  0  -0.047811  -0.077109  0  3.920687  0
C  C81  1  0.89605607  0.63379405  0.32633267  1  0  -0.038395  0  3.672863  0  0  -0.074843  0  3.930696  0  0  -0.072313  0  3.946612  0  0  -0.047858  -0.07712  0  3.920816  0
C  C82  1  0.39604660  0.86620208  0.32633442  1  0  -0.038266  0  3.67308  0  0  -0.074824  0  3.930815  0  0  -0.072287  0  3.94673  0  0  -0.047832  -0.077095  0  3.920924  0
C  C83  1  0.10394867  0.36620298  0.67366579  1  0  -0.038428  0  3.672936  0  0  -0.074926  0  3.930717  0  0  -0.07239  0  3.946631  0  0  -0.04784  -0.077199  0  3.92083  0
C  C84  1  0.61368824  0.26981718  0.64650877  1  0  -0.07593  0  3.689915  0  0  -0.065337  0  3.930913  0  0  -0.07209  0  3.951709  0  0  0.003076  -0.060791  0  3.917163  0
C  C85  1  0.88631827  0.76981110  0.35349089  1  0  -0.076004  0  3.690254  0  0  -0.0654  0  3.931246  0  0  -0.072153  0  3.952046  0  0  0.003091  -0.060852  0  3.917496  0
C  C86  1  0.38631665  0.73018407  0.35349340  1  0  -0.076055  0  3.690061  0  0  -0.065401  0  3.931071  0  0  -0.072152  0  3.951868  0  0  0.003077  -0.06086  0  3.917326  0
C  C87  1  0.11368513  0.23018382  0.64650804  1  0  -0.075975  0  3.690066  0  0  -0.065368  0  3.931092  0  0  -0.072121  0  3.951891  0  0  0.003057  -0.06082  0  3.917339  0
C  C88  1  0.65474064  0.29098323  0.57099524  1  0  0.692126  0  3.877069  0  0  0.644801  0  4.169915  0  0  0.676747  0  4.162906  0  0  0.237721  0.623067  0  4.17397  0
C  C89  1  0.84526021  0.79098068  0.42900263  1  0  0.692238  0  3.876895  0  0  0.644884  0  4.169792  0  0  0.676831  0  4.162782  0  0  0.237787  0.623145  0  4.17387  0
C  C90  1  0.34525734  0.70901169  0.42900402  1  0  0.692228  0  3.877012  0  0  0.644871  0  4.169875  0  0  0.676816  0  4.162866  0  0  0.237718  0.623141  0  4.173928  0
C  C91  1  0.15474451  0.20901740  0.57099530  1  0  0.692294  0  3.876861  0  0  0.644951  0  4.16975  0  0  0.6769  0  4.162736  0  0  0.237762  0.623217  0  4.173804  0
C  C92  1  0.57596925  0.38582992  0.68943274  1  0  -0.024275  0  3.660243  0  0  -0.011963  0  3.899104  0  0  -0.012718  0  3.916888  0  0  0.019483  -0.012209  0  3.8875  0
C  C93  1  0.92403370  0.88582464  0.31056738  1  0  -0.024252  0  3.660142  0  0  -0.011937  0  3.899002  0  0  -0.012702  0  3.916787  0  0  0.019533  -0.012185  0  3.887396  0
C  C94  1  0.42403977  0.61417238  0.31057066  1  0  -0.024076  0  3.660291  0  0  -0.01189  0  3.899233  0  0  -0.012648  0  3.917032  0  0  0.019544  -0.012135  0  3.887624  0
C  C95  1  0.07596430  0.11417450  0.68943241  1  0  -0.024255  0  3.660228  0  0  -0.011967  0  3.899145  0  0  -0.012734  0  3.916934  0  0  0.019532  -0.012214  0  3.887536  0
C  C96  1  0.58751641  0.53666619  0.66504208  1  0  0.710613  0  3.938265  0  0  0.659316  0  4.242315  0  0  0.693729  0  4.22978  0  0  0.231342  0.635916  0  4.250129  0
C  C97  1  0.91247679  0.03666492  0.33495483  1  0  0.710796  0  3.938001  0  0  0.659483  0  4.2421  0  0  0.693925  0  4.22951  0  0  0.231412  0.636082  0  4.249916  0
C  C98  1  0.41248148  0.46333295  0.33495505  1  0  0.710385  0  3.938778  0  0  0.659206  0  4.242686  0  0  0.693609  0  4.230172  0  0  0.231332  0.635806  0  4.250496  0
C  C99  1  0.08752676  0.96333212  0.66504783  1  0  0.710765  0  3.938182  0  0  0.659409  0  4.242336  0  0  0.69385  0  4.229749  0  0  0.231359  0.636009  0  4.250149  0
C  C100  1  0.52073519  0.36202602  0.75687057  1  0  -0.084537  0  3.681344  0  0  -0.119087  0  3.939783  0  0  -0.122711  0  3.960366  0  0  -0.069286  -0.116718  0  3.926701  0
C  C101  1  0.97926649  0.86201505  0.24312736  1  0  -0.084457  0  3.681253  0  0  -0.118951  0  3.939628  0  0  -0.122578  0  3.960211  0  0  -0.06923  -0.116581  0  3.926542  0
C  C102  1  0.47926700  0.63797629  0.24313203  1  0  -0.084604  0  3.681325  0  0  -0.119108  0  3.939783  0  0  -0.122732  0  3.96037  0  0  -0.06932  -0.116737  0  3.926697  0
C  C103  1  0.02073417  0.13798409  0.75687094  1  0  -0.084511  0  3.681424  0  0  -0.118985  0  3.939824  0  0  -0.12261  0  3.960408  0  0  -0.069247  -0.116615  0  3.926738  0
O  O104  1  0.39437447  0.30517409  0.88939965  1  0  -0.458791  0  1.905544  0  0  -0.416696  0  2.113212  0  0  -0.432868  0  2.10991  0  0  -0.257748  -0.404993  0  2.115479  0
O  O105  1  0.10560338  0.80516032  0.11059507  1  0  -0.458805  0  1.905703  0  0  -0.416728  0  2.113439  0  0  -0.432898  0  2.110131  0  0  -0.257734  -0.405022  0  2.115716  0
O  O106  1  0.60560578  0.69482822  0.11059786  1  0  -0.458825  0  1.905513  0  0  -0.416736  0  2.113236  0  0  -0.432911  0  2.109933  0  0  -0.257825  -0.405034  0  2.115498  0
O  O107  1  0.89440285  0.19483354  0.88940663  1  0  -0.458799  0  1.905306  0  0  -0.416673  0  2.11299  0  0  -0.432845  0  2.109684  0  0  -0.257747  -0.404969  0  2.115258  0
O  O108  1  0.62255207  0.86567276  0.74054083  1  0  -0.530493  0  1.978577  0  0  -0.492013  0  2.206419  0  0  -0.506772  0  2.198361  0  0  -0.300492  -0.481223  0  2.210568  0
O  O109  1  0.87746191  0.36566094  0.25945971  1  0  -0.530477  0  1.978857  0  0  -0.491914  0  2.2067  0  0  -0.506677  0  2.198645  0  0  -0.300428  -0.481131  0  2.210829  0
O  O110  1  0.37743781  0.13432849  0.25945970  1  0  -0.530394  0  1.978521  0  0  -0.491956  0  2.206391  0  0  -0.506718  0  2.198333  0  0  -0.300457  -0.481166  0  2.210533  0
O  O111  1  0.12254972  0.63433188  0.74054114  1  0  -0.53043  0  1.978655  0  0  -0.491887  0  2.206581  0  0  -0.506648  0  2.198524  0  0  -0.300468  -0.4811  0  2.210717  0
O  O112  1  0.61666795  0.85130133  0.55764583  1  0  -0.91223  0  1.826221  0  0  -0.873187  0  2.005752  0  0  -0.886792  0  1.97096  0  0  -0.630364  -0.863948  0  2.030975  0
O  O113  1  0.88333664  0.35129938  0.44235487  1  0  -0.912301  0  1.82617  0  0  -0.873244  0  2.005671  0  0  -0.886852  0  1.970886  0  0  -0.630377  -0.864002  0  2.030897  0
O  O114  1  0.38333957  0.14869464  0.44235433  1  0  -0.91227  0  1.826196  0  0  -0.873211  0  2.005723  0  0  -0.886817  0  1.970936  0  0  -0.630394  -0.863968  0  2.030949  0
O  O115  1  0.11665456  0.64869343  0.55764466  1  0  -0.912273  0  1.826197  0  0  -0.873177  0  2.005694  0  0  -0.886784  0  1.970909  0  0  -0.630385  -0.863934  0  2.03092  0
O  O116  1  0.61135114  0.40855628  0.54219810  1  0  -0.722301  0  1.999614  0  0  -0.675758  0  2.236752  0  0  -0.696288  0  2.225331  0  0  -0.383086  -0.661351  0  2.244395  0
O  O117  1  0.88865989  0.90854938  0.45780446  1  0  -0.722345  0  1.999541  0  0  -0.675779  0  2.236661  0  0  -0.696313  0  2.225248  0  0  -0.383138  -0.661363  0  2.244292  0
O  O118  1  0.38865511  0.59144918  0.45780413  1  0  -0.722315  0  1.999578  0  0  -0.675757  0  2.23672  0  0  -0.696284  0  2.225296  0  0  -0.38312  -0.661367  0  2.24439  0
O  O119  1  0.11133947  0.09144238  0.54219538  1  0  -0.722342  0  1.999346  0  0  -0.675795  0  2.236498  0  0  -0.696325  0  2.225075  0  0  -0.383125  -0.661408  0  2.244183  0
O  O120  1  0.72571207  0.18950824  0.53856503  1  0  -0.725262  0  1.979407  0  0  -0.668187  0  2.203341  0  0  -0.691508  0  2.191396  0  0  -0.35634  -0.65155  0  2.211157  0
O  O121  1  0.77428546  0.68950714  0.46143265  1  0  -0.725312  0  1.979303  0  0  -0.668245  0  2.203272  0  0  -0.691569  0  2.191331  0  0  -0.356385  -0.651584  0  2.211042  0
O  O122  1  0.27428459  0.81048563  0.46143524  1  0  -0.725354  0  1.979382  0  0  -0.668251  0  2.203368  0  0  -0.691573  0  2.19142  0  0  -0.356319  -0.651599  0  2.211156  0
O  O123  1  0.22571792  0.31048567  0.53856575  1  0  -0.725365  0  1.979531  0  0  -0.668273  0  2.203506  0  0  -0.691596  0  2.19156  0  0  -0.35633  -0.651618  0  2.211286  0
O  O124  1  0.43705161  0.59294428  0.63959047  1  0  -0.804969  0  1.99566  0  0  -0.761422  0  2.248217  0  0  -0.785139  0  2.232448  0  0  -0.435559  -0.745529  0  2.258284  0
O  O125  1  0.06293613  0.09294256  0.36040824  1  0  -0.805012  0  1.995605  0  0  -0.761455  0  2.248131  0  0  -0.785171  0  2.232319  0  0  -0.435556  -0.745577  0  2.25823  0
O  O126  1  0.56294367  0.40705064  0.36040921  1  0  -0.804886  0  1.995817  0  0  -0.761354  0  2.248269  0  0  -0.785059  0  2.232486  0  0  -0.435504  -0.745466  0  2.258347  0
O  O127  1  0.93706329  0.90705553  0.63959320  1  0  -0.805054  0  1.995471  0  0  -0.761494  0  2.248044  0  0  -0.78521  0  2.232232  0  0  -0.435575  -0.745617  0  2.258151  0
O  O128  1  0.73920970  0.59717561  0.67443743  1  0  -0.659824  0  1.925256  0  0  -0.614538  0  2.148789  0  0  -0.639892  0  2.140882  0  0  -0.353826  -0.594707  0  2.15252  0
O  O129  1  0.76078280  0.09717079  0.32555311  1  0  -0.65997  0  1.925245  0  0  -0.614655  0  2.14879  0  0  -0.640021  0  2.140866  0  0  -0.353893  -0.59482  0  2.152519  0
O  O130  1  0.26079090  0.40282986  0.32555927  1  0  -0.659749  0  1.925549  0  0  -0.61449  0  2.149014  0  0  -0.639841  0  2.141114  0  0  -0.353853  -0.594658  0  2.152744  0
O  O131  1  0.23921378  0.90282940  0.67444503  1  0  -0.65989  0  1.925602  0  0  -0.614532  0  2.149137  0  0  -0.639897  0  2.141214  0  0  -0.353804  -0.594699  0  2.152866  0
