# generated using pymatgen
data_NiH28C23NO4
_symmetry_space_group_name_H-M   'P 1'
_cell_length_a   9.17017365
_cell_length_b   12.85405284
_cell_length_c   13.10761336
_cell_angle_alpha   114.49536662
_cell_angle_beta   94.70444925
_cell_angle_gamma   96.40438796
_symmetry_Int_Tables_number   1
_chemical_formula_structural   NiH28C23NO4
_chemical_formula_sum   'Ni2 H56 C46 N2 O8'
_cell_volume   1383.08355923
_cell_formula_units_Z   2
loop_
 _symmetry_equiv_pos_site_id
 _symmetry_equiv_pos_as_xyz
  1  'x, y, z'
loop_
 _atom_site_type_symbol
 _atom_site_label
 _atom_site_symmetry_multiplicity
 _atom_site_fract_x
 _atom_site_fract_y
 _atom_site_fract_z
 _atom_site_occupancy
 _atom_site_pbe_bader_charge
 _atom_site_pbe_bader_spin_density
 _atom_site_pbe_cm5_charge
 _atom_site_pbe_ddec_charge
 _atom_site_pbe_ddec_spin_density
 _atom_site_pbe_ddec_sum_bond_order
 _atom_site_pbe_magmom
Ni  Ni0  1  0.18522408  0.32159939  0.43931670  1  1.055801  1.155239  0.582892  0.651811  1.316282  2.658874  1.142
Ni  Ni1  1  0.92396443  0.32245166  0.44304515  1  1.046043  -1.157197  0.583344  0.650516  -1.317031  2.669066  -1.143
H  H2  1  0.24595978  0.32887794  0.12133495  1  0.080416  0.00026  0.107346  0.112367  0.000156  1.009531  0.0
H  H3  1  0.36137984  0.33277281  0.95653051  1  0.045923  -0.000212  0.100631  0.099678  -9.5e-05  1.008296  0.0
H  H4  1  0.77290480  0.28933337  0.10769819  1  0.089274  -0.000208  0.105509  0.109259  -0.000134  1.008996  0.0
H  H5  1  0.86208024  0.31236271  0.75996773  1  0.104896  -0.000267  0.105074  0.107984  -0.000164  1.021818  0.0
H  H6  1  0.74541253  0.29468490  0.91901508  1  0.03099  0.000198  0.099776  0.097299  9.2e-05  1.017275  0.0
H  H7  1  0.33305215  0.33433521  0.76607836  1  0.069184  0.000118  0.101399  0.102369  8e-05  1.034835  0.0
H  H8  1  0.92451288  0.71022887  0.56329296  1  0.076714  -0.000123  0.104488  0.109381  -8.4e-05  1.009899  0.0
H  H9  1  0.83585425  0.89190491  0.58190679  1  0.074114  0.000152  0.100607  0.100286  6.9e-05  1.015219  0.0
H  H10  1  0.30360306  0.61174763  0.39439216  1  0.094849  7.5e-05  0.099624  0.102489  5.1e-05  1.034728  0.0
H  H11  1  0.20628381  0.94820400  0.34325809  1  0.09506  0.000308  0.106311  0.113622  0.000184  0.998524  0.0
H  H12  1  0.31316101  0.77687853  0.34195931  1  0.063533  -0.000145  0.100457  0.102963  -7.3e-05  1.009085  0.0
H  H13  1  0.83491079  0.05086950  0.51988429  1  0.102777  -8.1e-05  0.103378  0.108575  -5.7e-05  1.006781  0.0
H  H14  1  0.47348045  0.40235716  0.61750643  1  0.070586  7.1e-05  0.106172  0.093958  -3.6e-05  1.00468  0.0
H  H15  1  0.45551506  0.49854704  0.55360527  1  0.092279  0.00049  0.111399  0.106518  0.00013  0.995205  0.0
H  H16  1  0.40374728  0.14159435  0.35833431  1  0.096071  9.1e-05  0.113122  0.10324  -2.7e-05  0.981801  0.0
H  H17  1  0.40140551  0.19606900  0.50629382  1  0.097287  0.000556  0.112675  0.104044  0.000173  0.976598  0.0
H  H18  1  0.44499717  0.41850057  0.34835883  1  0.056889  9.2e-05  0.11045  0.097568  -2.1e-05  0.978776  0.0
H  H19  1  0.38973777  0.26769543  0.26511794  1  0.074181  0.00051  0.1114  0.10101  0.000147  1.008105  0.0
H  H20  1  0.70666074  0.50107890  0.51685222  1  0.071147  -9.2e-05  0.109434  0.098888  2.5e-05  0.997383  0.0
H  H21  1  0.73031350  0.43888551  0.61406120  1  0.106758  -0.000474  0.106907  0.098651  -0.00012  1.031053  -0.001
H  H22  1  0.66582216  0.23426116  0.54533134  1  0.082182  -7.4e-05  0.11113  0.097918  2.8e-05  0.971912  0.0
H  H23  1  0.65902679  0.14224885  0.39954785  1  0.108431  -0.0005  0.112018  0.104631  -0.000126  1.008555  0.0
H  H24  1  0.63434551  0.22995878  0.26700240  1  0.091805  -9.3e-05  0.110625  0.099532  1.9e-05  0.9945  0.0
H  H25  1  0.68911179  0.38135151  0.31623290  1  0.072793  -0.000552  0.111387  0.099233  -0.000171  0.988864  0.0
H  H26  1  0.71721116  0.96626485  0.25009029  1  0.066197  -1.2e-05  0.088604  0.12368  -1.2e-05  1.034333  0.0
H  H27  1  0.56406531  0.89503091  0.12843142  1  0.03934  -2e-05  0.085818  0.114232  -1e-05  1.044284  0.0
H  H28  1  0.82028325  0.08983186  0.16227626  1  0.072276  -6e-06  0.092642  0.133474  9e-06  1.035813  0.0
H  H29  1  0.66865190  0.01823020  0.04051846  1  0.057716  -3e-06  0.089046  0.115703  -2e-06  1.027942  0.0
H  H30  1  0.50368836  0.14033189  0.70531847  1  0.032871  7e-06  0.088299  0.117132  4e-06  1.023603  0.0
H  H31  1  0.33564460  0.03016485  0.63091291  1  0.078919  6e-06  0.094661  0.131573  0.0  1.020815  0.0
H  H32  1  0.63237209  0.99032612  0.72975605  1  0.04189  3e-06  0.093401  0.124264  1e-06  1.014245  0.0
H  H33  1  0.46378930  0.88032857  0.65520280  1  0.091431  4e-06  0.09603  0.130195  3e-06  1.011805  0.0
H  H34  1  0.60907893  0.41194485  0.86727310  1  0.052903  8e-06  0.086118  0.109772  5e-06  1.048809  0.0
H  H35  1  0.49636610  0.50606431  0.83034799  1  0.060501  6e-06  0.09338  0.121893  1e-06  1.04194  0.0
H  H36  1  0.83356892  0.50610432  0.82444798  1  0.080656  -5.7e-05  0.095379  0.127  -3.3e-05  1.025153  0.0
H  H37  1  0.71850884  0.59963749  0.78885183  1  0.06713  -1e-06  0.095844  0.123946  -1e-06  1.0241  0.0
H  H38  1  0.60913735  0.46719449  0.13009334  1  0.029538  -1.1e-05  0.088657  0.113524  -4e-06  1.026025  0.0
H  H39  1  0.50487312  0.57203774  0.10470345  1  0.066702  -2e-06  0.093416  0.122738  -1e-06  1.012188  0.0
H  H40  1  0.84630215  0.59283785  0.15241632  1  0.072488  0.0  0.09646  0.12899  1e-06  1.005194  0.0
H  H41  1  0.74246731  0.69771116  0.12637860  1  0.058104  -2e-06  0.095247  0.125599  -1e-06  1.014493  0.0
H  H42  1  0.96715764  0.88981540  0.00040108  1  0.075465  2e-06  0.090982  0.126939  0.0  1.031251  0.0
H  H43  1  0.89114737  0.73546537  0.95808452  1  0.057841  -0.0  0.089118  0.118047  1e-06  1.041288  0.0
H  H44  1  0.03864978  0.83980921  0.80961145  1  0.05567  7e-06  0.091812  0.12506  5e-06  1.017157  0.0
H  H45  1  0.96304590  0.68493164  0.76595441  1  0.066443  4e-06  0.092505  0.127797  6e-06  1.016782  0.0
H  H46  1  0.19747837  0.08312959  0.16204609  1  0.097833  -1.9e-05  0.092197  0.133251  -3.9e-05  1.031806  0.0
H  H47  1  0.28306553  0.94962432  0.10380414  1  0.056167  9e-06  0.089686  0.117733  6e-06  1.024  0.0
H  H48  1  0.27397993  0.13097430  0.00616844  1  0.068353  9e-06  0.083572  0.112823  1e-06  1.058724  0.0
H  H49  1  0.36023286  0.99778751  0.95048583  1  0.053278  -6e-06  0.087623  0.115798  -4e-06  1.042766  0.0
H  H50  1  0.56020039  0.82873552  0.46544806  1  0.084261  -1e-06  0.088021  0.113424  -2e-06  1.046983  0.0
H  H51  1  0.64022923  0.76412779  0.33119026  1  0.044665  1e-06  0.089224  0.119326  -0.0  1.035675  0.0
H  H52  1  0.57306380  0.64956743  0.49198093  1  0.025768  2.3e-05  0.091372  0.120485  1.6e-05  1.022432  0.0
H  H53  1  0.65444045  0.58663237  0.35787051  1  0.063687  -1.2e-05  0.089  0.118284  -9e-06  1.042944  0.0
H  H54  1  0.60563406  0.75571219  0.90815539  1  0.063786  -0.0  0.091005  0.120943  0.0  1.043721  0.0
H  H55  1  0.50397634  0.83383133  0.84167105  1  0.051576  0.0  0.089765  0.116189  1e-06  1.032787  0.0
H  H56  1  0.36569313  0.66187175  0.93064417  1  0.043961  -1e-06  0.090392  0.118164  -1e-06  1.021954  0.0
H  H57  1  0.26427742  0.74109148  0.86536540  1  0.071448  -1e-06  0.089587  0.125116  -1e-06  1.045843  0.0
C  C58  1  0.49761314  0.41909419  0.54465398  1  0.220369  -0.004782  -0.070158  -0.098135  -0.002406  3.804224  -0.004
C  C59  1  0.45291231  0.21183848  0.44033417  1  0.19767  -0.004503  -0.067108  -0.090849  -0.002214  3.809949  -0.004
C  C60  1  0.46179990  0.33251181  0.34068962  1  0.251247  -0.004666  -0.06975  -0.093862  -0.002339  3.818738  -0.004
C  C61  1  0.02736068  0.30676080  0.23761867  1  1.549903  -0.000817  0.213434  0.55578  -0.000583  4.178075  0.0
C  C62  1  0.01199109  0.30803297  0.12418749  1  -0.021404  -0.00055  -0.016354  -0.023055  -0.000367  3.987255  0.0
C  C63  1  0.13727383  0.31995684  0.07526826  1  -0.032558  -0.00079  -0.077027  -0.139298  -0.000466  3.939424  -0.001
C  C64  1  0.12582153  0.32073145  0.96754960  1  0.009203  -0.000918  -0.005248  0.075942  -0.000522  4.005763  -0.001
C  C65  1  0.25218234  0.32851470  0.91351596  1  -0.05083  -0.000587  -0.089733  -0.135194  -0.000362  3.994859  0.0
C  C66  1  0.86929037  0.29824616  0.06685915  1  -0.012833  0.000596  -0.08588  -0.098427  0.000344  3.993974  0.001
C  C67  1  0.09441999  0.53946811  0.49151147  1  1.544986  0.000551  0.212477  0.565918  0.000503  4.166329  0.0
C  C68  1  0.11172067  0.65105744  0.48085142  1  -0.022816  -0.001169  -0.016957  -0.020593  -0.000607  3.988142  -0.001
C  C69  1  0.01168292  0.72720488  0.51776710  1  -0.006359  0.004156  -0.080598  -0.143803  0.002319  3.939876  0.003
C  C70  1  0.01754950  0.82454619  0.49306389  1  0.008883  -0.000595  -0.004313  0.077078  -0.000317  4.001139  0.0
C  C71  1  0.91542203  0.90347091  0.52866324  1  -0.055693  0.001661  -0.088638  -0.126561  0.000944  4.010383  0.001
C  C72  1  0.22451582  0.67174131  0.42047172  1  -0.076731  6e-05  -0.089531  -0.101526  1.8e-05  3.996474  0.0
C  C73  1  0.66565723  0.42830031  0.53534141  1  0.222566  0.00454  -0.072679  -0.10617  0.002254  3.814027  0.004
C  C74  1  0.62364269  0.22080288  0.45924810  1  0.197925  0.004657  -0.067962  -0.094336  0.002301  3.809716  0.004
C  C75  1  0.62523172  0.31474467  0.33371627  1  0.224465  0.004576  -0.069305  -0.094053  0.00229  3.818763  0.004
C  C76  1  0.08050364  0.33412167  0.64352730  1  1.539073  -0.000902  0.211988  0.561075  -0.000712  4.162863  0.0
C  C77  1  0.09557245  0.32712437  0.75449634  1  -0.015411  -0.000323  -0.017075  -0.023068  -0.0002  3.985816  0.0
C  C78  1  0.97033224  0.31682148  0.80409836  1  -0.05119  -0.000529  -0.078911  -0.141602  -0.000306  3.937702  0.0
C  C79  1  0.98139585  0.31219767  0.91019358  1  -0.070677  0.000361  -0.004123  0.078177  0.00023  4.000845  0.0
C  C80  1  0.85479830  0.30082957  0.96272182  1  -0.039681  0.000356  -0.088083  -0.130761  0.000245  3.997289  0.0
C  C81  1  0.23736617  0.33016239  0.80895519  1  -0.00233  -0.001121  -0.0884  -0.100413  -0.000641  3.996563  -0.001
C  C82  1  0.02252037  0.10754705  0.39779762  1  1.538035  0.00359  0.211324  0.55824  0.002534  4.177575  0.002
C  C83  1  0.01915901  0.00616425  0.42555732  1  -0.018798  0.001554  -0.019817  -0.029613  0.00087  4.003395  0.001
C  C84  1  0.12405966  0.93358120  0.39352430  1  -0.069003  -0.001998  -0.079946  -0.143046  -0.001094  3.939203  -0.001
C  C85  1  0.12537379  0.84097643  0.42516170  1  -0.026307  0.000907  -0.007114  0.070552  0.000465  4.012715  0.001
C  C86  1  0.22950188  0.76343055  0.39180297  1  -0.044173  -0.001326  -0.089969  -0.133473  -0.000768  4.000817  -0.001
C  C87  1  0.91420709  0.99086117  0.49424366  1  -0.054215  0.000142  -0.089049  -0.101984  9.7e-05  3.988764  0.0
C  C88  1  0.66445760  0.95876946  0.16902497  1  -0.118619  -2.5e-05  -0.187931  -0.25014  -7e-06  3.940828  0.0
C  C89  1  0.72097208  0.02512252  0.12147662  1  -0.114706  -1.9e-05  -0.180986  -0.232437  -8e-06  3.936292  0.0
C  C90  1  0.44937625  0.05049161  0.67364555  1  -0.063923  1.1e-05  -0.180239  -0.236151  7e-06  3.936315  0.0
C  C91  1  0.51860563  0.96999475  0.68685180  1  -0.177523  3e-06  -0.180457  -0.247407  1e-06  3.959956  0.0
C  C92  1  0.60425863  0.47988568  0.83824508  1  -0.066692  -7.8e-05  -0.182091  -0.246524  -4e-05  3.957537  0.0
C  C93  1  0.72454683  0.53052340  0.81603793  1  -0.191237  -1.7e-05  -0.175975  -0.232256  -2.5e-05  3.948906  0.0
C  C94  1  0.61193048  0.54889086  0.12256243  1  -0.113794  -7e-06  -0.179261  -0.240057  -5e-06  3.965594  0.0
C  C95  1  0.73954071  0.61633874  0.13454131  1  -0.103796  -3e-06  -0.17079  -0.223142  -1e-06  3.921256  0.0
C  C96  1  0.94534550  0.80098601  0.93483156  1  0.027353  -4e-06  -0.179254  -0.237935  -3e-06  3.947974  0.0
C  C97  1  0.98356089  0.77383369  0.83188316  1  -0.280965  6e-06  -0.184997  -0.256385  4e-06  3.961536  0.0
C  C98  1  0.25807650  0.02808817  0.09753312  1  -0.089484  -1.6e-05  -0.180462  -0.23633  2e-06  3.93653  0.0
C  C99  1  0.29977593  0.05371190  0.01439466  1  -0.184723  3.4e-05  -0.185825  -0.242379  2e-05  3.937515  0.0
C  C100  1  0.60251177  0.75519649  0.40434892  1  -0.054274  1e-05  -0.177391  -0.22752  5e-06  3.961015  0.0
C  C101  1  0.60974483  0.65896074  0.41858608  1  -0.16706  3.2e-05  -0.184717  -0.251635  2e-05  3.948786  0.0
C  C102  1  0.49934508  0.77269105  0.87994433  1  -0.107857  -4e-06  -0.180363  -0.238549  -2e-06  3.942876  0.0
C  C103  1  0.37050070  0.72286759  0.89221491  1  -0.121881  -2e-06  -0.179103  -0.233269  -2e-06  3.927044  0.0
N  N104  1  0.41360069  0.32129487  0.44145866  1  -0.945765  0.07063  -0.325647  -0.055794  0.041066  3.437932  0.063
N  N105  1  0.69514939  0.32102879  0.44262566  1  -0.941222  -0.070582  -0.325951  -0.050286  -0.041057  3.432617  -0.063
O  O106  1  0.15838280  0.31873511  0.28650605  1  -1.117591  0.049371  -0.299756  -0.509098  0.029076  2.448713  0.045
O  O107  1  0.90928752  0.29454111  0.27905161  1  -1.131374  -0.06076  -0.296647  -0.516419  -0.035499  2.445823  -0.055
O  O108  1  0.96164839  0.49149919  0.48423002  1  -1.11752  -0.044737  -0.301927  -0.506783  -0.026403  2.38347  -0.04
O  O109  1  0.90635154  0.15557681  0.40918316  1  -1.115364  -0.039132  -0.299505  -0.51094  -0.023285  2.439526  -0.035
O  O110  1  0.95545360  0.34977471  0.60711336  1  -1.128021  -0.065202  -0.301943  -0.510576  -0.037896  2.385444  -0.059
O  O111  1  0.19438555  0.32259667  0.59170825  1  -1.119553  0.043563  -0.302097  -0.509898  0.025821  2.390812  0.04
O  O112  1  0.14180579  0.14472781  0.37160825  1  -1.150893  0.055384  -0.305201  -0.524434  0.031855  2.378676  0.048
O  O113  1  0.21072432  0.49583854  0.49910774  1  -1.135678  0.061339  -0.303398  -0.51348  0.035607  2.378989  0.055
