# generated using pymatgen
data_Zn4H35C48N11O16
_symmetry_space_group_name_H-M   'P 1'
_cell_length_a   9.63621801
_cell_length_b   11.09920584
_cell_length_c   28.94638286
_cell_angle_alpha   90.05625621
_cell_angle_beta   89.35425691
_cell_angle_gamma   89.83602848
_symmetry_Int_Tables_number   1
_chemical_formula_structural   Zn4H35C48N11O16
_chemical_formula_sum   'Zn4 H35 C48 N11 O16'
_cell_volume   3095.73117016
_cell_formula_units_Z   1
loop_
 _symmetry_equiv_pos_site_id
 _symmetry_equiv_pos_as_xyz
  1  'x, y, z'
loop_
 _atom_site_type_symbol
 _atom_site_label
 _atom_site_symmetry_multiplicity
 _atom_site_fract_x
 _atom_site_fract_y
 _atom_site_fract_z
 _atom_site_occupancy
 _atom_site_pbe_bader_charge
 _atom_site_pbe_bader_spin_density
 _atom_site_pbe_cm5_charge
 _atom_site_pbe_ddec_charge
 _atom_site_pbe_ddec_spin_density
 _atom_site_pbe_ddec_sum_bond_order
 _atom_site_pbe_magmom
Zn  Zn0  1  0.64108557  0.50560437  0.50132285  1  1.269672  0  0.665593  0.816641  0  2.419692  0
Zn  Zn1  1  0.35616375  0.50844728  0.49785813  1  1.280735  0  0.6667  0.807806  0  2.450026  0
Zn  Zn2  1  0.35949260  0.50867912  0.11785504  1  1.271893  0  0.664742  0.818486  0  2.409411  0
Zn  Zn3  1  0.64478541  0.50994802  0.11862997  1  1.287699  0  0.666555  0.805421  0  2.459014  0
H  H4  1  0.12435165  0.65240537  0.54390989  1  0.108208  0  0.131573  0.118938  0  0.978555  0
H  H5  1  0.14269905  0.36678698  0.45115230  1  0.144615  0  0.134022  0.12262  0  0.978497  0
H  H6  1  0.85930446  0.63984239  0.54481095  1  0.154848  0  0.136572  0.119772  0  0.966735  0
H  H7  1  0.73125318  0.89897052  0.50038079  1  0.087558  0  0.096097  0.102784  0  1.018922  0
H  H8  1  0.28686423  0.88103978  0.49713258  1  0.06867  0  0.101764  0.114621  0  1.011298  0
H  H9  1  0.71660261  0.12436721  0.49940038  1  0.065971  0  0.095985  0.094339  0  1.024667  0
H  H10  1  0.29506284  0.50087235  0.97433147  1  0.084159  0  0.099941  0.104293  0  1.006373  0
H  H11  1  0.28125063  0.49344979  0.88810006  1  0.058013  0  0.097465  0.103946  0  1.006649  0
H  H12  1  0.72842319  0.49684880  0.88039442  1  0.068993  0  0.102493  0.115128  0  0.996319  0
H  H13  1  0.26626694  0.49673941  0.73680924  1  0.089198  0  0.102631  0.115021  0  0.998046  0
H  H14  1  0.70127602  0.49599042  0.64373971  1  0.088928  0  0.099692  0.103593  0  1.008446  0
H  H15  1  0.71355953  0.49066399  0.72999347  1  0.057306  0  0.097167  0.103409  0  1.008127  0
H  H16  1  0.28036005  0.49813311  0.26617041  1  0.116243  0  0.09457  0.103273  0  1.021349  0
H  H17  1  0.72552235  0.50439597  0.26345597  1  0.114777  0  0.099721  0.112184  0  1.012594  0
H  H18  1  0.28470871  0.49617051  0.35309979  1  0.088487  0  0.097516  0.100516  0  1.011089  0
H  H19  1  0.87640129  0.65120806  0.07187179  1  0.117661  0  0.131593  0.118902  0  0.97848  0
H  H20  1  0.85827177  0.37105701  0.16677486  1  0.136408  0  0.133114  0.121698  0  0.979986  0
H  H21  1  0.14169127  0.64049721  0.07240396  1  0.155008  0  0.136622  0.118468  0  0.967042  0
H  H22  1  0.27029490  0.90126515  0.11821645  1  0.05197  0  0.0964  0.103046  0  1.017682  0
H  H23  1  0.71485752  0.88302898  0.12047642  1  0.087842  0  0.101364  0.114309  0  1.011718  0
H  H24  1  0.28384490  0.12686019  0.11790999  1  0.078351  0  0.095675  0.0942  0  1.022827  0
H  H25  1  0.76306365  0.30835690  0.45873604  1  0.540326  0  0.309353  0.336031  0  0.977179  0
H  H26  1  0.92244424  0.26775433  0.43185612  1  0.470123  0  0.332254  0.328502  0  0.906853  0
H  H27  1  0.23937987  0.20390632  0.50613840  1  0.48441  0  0.288906  0.295938  0  1.017881  0
H  H28  1  0.15964164  0.06320736  0.50739764  1  0.437372  0  0.304897  0.299141  0  0.945432  0
H  H29  1  0.75739056  0.52383398  0.38791693  1  0.520491  0  0.290824  0.304561  0  1.004852  0
H  H30  1  0.84365318  0.53114111  0.33455146  1  0.440637  0  0.305643  0.300123  0  0.944414  0
H  H31  1  0.23820496  0.31397345  0.16088560  1  0.528666  0  0.309932  0.336051  0  0.97254  0
H  H32  1  0.07820510  0.27153001  0.18616239  1  0.469516  0  0.330661  0.325179  0  0.910183  0
H  H33  1  0.76021002  0.20563110  0.10956501  1  0.471203  0  0.289145  0.296665  0  1.017359  0
H  H34  1  0.84097740  0.06496195  0.10894051  1  0.40995  0  0.304151  0.298536  0  0.945589  0
H  H35  1  0.77243415  0.50522160  0.00450297  1  0.497832  0  0.291064  0.300483  0  1.018166  0
H  H36  1  0.85499004  0.48911380  0.95028176  1  0.443548  0  0.308981  0.304089  0  0.943048  0
H  H37  1  0.22458220  0.50205429  0.61251666  1  0.469958  0  0.290868  0.300487  0  1.016999  0
H  H38  1  0.14089211  0.48840591  0.66660048  1  0.432024  0  0.309091  0.304632  0  0.941806  0
C  C39  1  0.51281825  0.74250845  0.49951351  1  1.53014  0  0.217856  0.598768  0  4.145479  0
C  C40  1  0.48326082  0.50321349  0.59020172  1  1.465744  0  0.211496  0.605546  0  4.145296  0
C  C41  1  0.49354242  0.26473917  0.49796163  1  1.45702  0  0.217274  0.612176  0  4.132053  0
C  C42  1  0.49906929  0.50261712  0.40864574  1  1.454491  0  0.212472  0.605554  0  4.142141  0
C  C43  1  0.48937651  0.74470665  0.11922564  1  1.561781  0  0.217176  0.596989  0  4.148325  0
C  C44  1  0.51430988  0.50809345  0.02745901  1  1.499636  0  0.211269  0.602774  0  4.147143  0
C  C45  1  0.50607651  0.26695863  0.11827801  1  1.536491  0  0.216472  0.610262  0  4.138723  0
C  C46  1  0.50484289  0.50167774  0.20836315  1  1.535732  0  0.214923  0.593067  0  4.152955  0
C  C47  1  0.93141788  0.41373877  0.47456578  1  1.018573  0  0.246999  0.413957  0  4.077413  0
C  C48  1  0.06727930  0.58621330  0.52395969  1  0.462371  0  0.031635  -0.022724  0  3.950572  0
C  C49  1  0.07827008  0.42627508  0.47253186  1  0.577012  0  0.062356  -0.050005  0  3.836332  0
C  C50  1  0.92411924  0.57781084  0.52477001  1  0.467501  0  0.064297  0.074314  0  3.94257  0
C  C51  1  0.49441491  0.13107286  0.49775183  1  0.041893  0  -0.032812  -0.163817  0  3.925873  0
C  C52  1  0.50855661  0.87769990  0.49869423  1  -0.017589  0  -0.014089  0.002491  0  3.993334  0
C  C53  1  0.36968653  0.06232113  0.49788822  1  0.443652  0  0.106149  0.307279  0  4.056941  0
C  C54  1  0.63171315  0.94543845  0.49922789  1  0.036252  0  -0.109244  -0.145774  0  4.037087  0
C  C55  1  0.38066147  0.93574101  0.49777274  1  -0.004089  0  -0.099698  -0.219171  0  3.929041  0
C  C56  1  0.62273386  0.06998280  0.49847039  1  -0.098875  0  -0.09277  -0.079787  0  4.043174  0
C  C57  1  0.51648536  0.50490467  0.97628741  1  -0.02514  0  -0.036306  -0.166816  0  3.921524  0
C  C58  1  0.38900548  0.50058217  0.95304294  1  0.006592  0  -0.089652  -0.072033  0  4.051558  0
C  C59  1  0.38085660  0.49591408  0.90544527  1  -0.028781  0  -0.110201  -0.179831  0  4.007406  0
C  C60  1  0.50512953  0.49434224  0.87876190  1  0.122982  0  0.000469  0.167702  0  4.155047  0
C  C61  1  0.63307787  0.49767748  0.90110230  1  -0.025048  0  -0.10322  -0.260201  0  3.89967  0
C  C62  1  0.64230802  0.50402677  0.94963272  1  0.46864  0  0.108219  0.312838  0  4.080254  0
C  C63  1  0.49995932  0.49122843  0.82989468  1  -0.456465  0  -0.044035  -0.103715  0  4.107732  0
C  C64  1  0.49404692  0.49086243  0.78776756  1  -0.033329  0  -0.045573  -0.107763  0  4.109708  0
C  C65  1  0.48947655  0.49297181  0.73890505  1  0.181916  0  0.001017  0.169887  0  4.156198  0
C  C66  1  0.36196460  0.49648127  0.71628989  1  -0.061201  0  -0.10311  -0.26007  0  3.901547  0
C  C67  1  0.35361414  0.50161310  0.66772087  1  0.439996  0  0.107721  0.31287  0  4.083332  0
C  C68  1  0.47985720  0.50105867  0.64132418  1  0.032713  0  -0.036449  -0.169097  0  3.925167  0
C  C69  1  0.60696244  0.49668042  0.66484623  1  -0.026103  0  -0.089998  -0.070762  0  4.052526  0
C  C70  1  0.61423476  0.49318119  0.71245765  1  -0.04588  0  -0.108958  -0.178949  0  4.010498  0
C  C71  1  0.50591653  0.50089186  0.35737546  1  0.048671  0  -0.033639  -0.161374  0  3.921633  0
C  C72  1  0.50384159  0.50089962  0.26015293  1  0.026943  0  -0.016376  0.002511  0  4.000999  0
C  C73  1  0.63397625  0.50404009  0.33218853  1  0.427055  0  0.105882  0.305331  0  4.069402  0
C  C74  1  0.37750718  0.49870978  0.28499935  1  -0.113303  0  -0.112087  -0.151038  0  4.040473  0
C  C75  1  0.62900596  0.50297093  0.28351492  1  -0.064746  0  -0.103468  -0.225053  0  3.937161  0
C  C76  1  0.38060899  0.49787225  0.33281821  1  -0.009485  0  -0.092023  -0.07726  0  4.039616  0
C  C77  1  0.06987585  0.41845551  0.14418712  1  1.029683  0  0.248988  0.41703  0  4.071539  0
C  C78  1  0.93360582  0.58660058  0.09262413  1  0.46692  0  0.031416  -0.024019  0  3.950852  0
C  C79  1  0.92282893  0.42963637  0.14524434  1  0.588432  0  0.062089  -0.05084  0  3.838718  0
C  C80  1  0.07690852  0.57939661  0.09269316  1  0.459894  0  0.065973  0.077348  0  3.940574  0
C  C81  1  0.50595436  0.13323603  0.11889439  1  -0.002291  0  -0.032925  -0.161819  0  3.926159  0
C  C82  1  0.49310605  0.87989912  0.11940378  1  -0.004142  0  -0.014066  0.003442  0  3.991476  0
C  C83  1  0.63105458  0.06440130  0.11885156  1  0.403276  0  0.105356  0.304637  0  4.060347  0
C  C84  1  0.36958882  0.94771170  0.11878596  1  0.011163  0  -0.10961  -0.145747  0  4.03518  0
C  C85  1  0.62076601  0.93783190  0.11971365  1  -0.051133  0  -0.099963  -0.21935  0  3.93007  0
C  C86  1  0.37793384  0.07228313  0.11883390  1  -0.058243  0  -0.093573  -0.08179  0  4.043597  0
N  N87  1  0.85623833  0.49335488  0.50041470  1  -1.201089  0  -0.317055  -0.279816  0  3.415911  0
N  N88  1  0.14217570  0.50942553  0.49712792  1  -1.216099  0  -0.304303  -0.130096  0  3.588363  0
N  N89  1  0.14484436  0.49696984  0.11808802  1  -1.229363  0  -0.315098  -0.275206  0  3.413722  0
N  N90  1  0.85872940  0.51071997  0.11960529  1  -1.209034  0  -0.304346  -0.129441  0  3.588998  0
N  N91  1  0.86646098  0.32561312  0.45165347  1  -1.287735  0  -0.555965  -0.608006  0  3.327122  0
N  N92  1  0.24027898  0.11516259  0.49690677  1  -1.253157  0  -0.603287  -0.633364  0  3.335506  0
N  N93  1  0.76056200  0.50415840  0.35351708  1  -1.308854  0  -0.603798  -0.632823  0  3.348287  0
N  N94  1  0.13531871  0.33243856  0.16833134  1  -1.276345  0  -0.557173  -0.606538  0  3.309246  0
N  N95  1  0.76016998  0.11730673  0.11932592  1  -1.225193  0  -0.603527  -0.633419  0  3.334589  0
N  N96  1  0.77027007  0.51115858  0.96942939  1  -1.269598  0  -0.597908  -0.626801  0  3.36298  0
N  N97  1  0.22612311  0.50905459  0.64756514  1  -1.242955  0  -0.597977  -0.627641  0  3.361811  0
O  O98  1  0.63021256  0.69166219  0.50513397  1  -1.161687  0  -0.318419  -0.548337  0  2.305839  0
O  O99  1  0.39738363  0.68829347  0.49446689  1  -1.16802  0  -0.320078  -0.552362  0  2.33809  0
O  O100  1  0.36800579  0.51537887  0.56859009  1  -1.163008  0  -0.318764  -0.554933  0  2.356753  0
O  O101  1  0.60123038  0.49234896  0.56983859  1  -1.168349  0  -0.325647  -0.555506  0  2.335821  0
O  O102  1  0.37854465  0.32056897  0.50428002  1  -1.169196  0  -0.308014  -0.542283  0  2.340205  0
O  O103  1  0.60955861  0.31945636  0.49207830  1  -1.187277  0  -0.317521  -0.570098  0  2.376357  0
O  O104  1  0.61201685  0.52026139  0.43094867  1  -1.165251  0  -0.316778  -0.555784  0  2.358475  0
O  O105  1  0.38108335  0.48703331  0.42822865  1  -1.168611  0  -0.323498  -0.553543  0  2.329917  0
O  O106  1  0.37191991  0.69403442  0.11423011  1  -1.157919  0  -0.31707  -0.545571  0  2.306467  0
O  O107  1  0.60509583  0.69028392  0.12404755  1  -1.164955  0  -0.320426  -0.552083  0  2.335919  0
O  O108  1  0.63054813  0.52092643  0.04844791  1  -1.170331  0  -0.318592  -0.551729  0  2.361382  0
O  O109  1  0.39750439  0.49738214  0.04839517  1  -1.169863  0  -0.323814  -0.555333  0  2.327539  0
O  O110  1  0.62042640  0.32243957  0.11091933  1  -1.166086  0  -0.309324  -0.543404  0  2.337181  0
O  O111  1  0.39016248  0.32176519  0.12497717  1  -1.19235  0  -0.317346  -0.569839  0  2.374  0
O  O112  1  0.38951256  0.51865983  0.18827308  1  -1.168193  0  -0.316803  -0.543807  0  2.322618  0
O  O113  1  0.62167656  0.48533017  0.18799671  1  -1.166072  0  -0.322461  -0.554036  0  2.340598  0
