# generated using pymatgen
data_Zn4H27C24N3O13
_symmetry_space_group_name_H-M   'P 1'
_cell_length_a   15.97634577
_cell_length_b   16.65165785
_cell_length_c   16.99896536
_cell_angle_alpha   90.58248619
_cell_angle_beta   119.40772678
_cell_angle_gamma   117.06723566
_symmetry_Int_Tables_number   1
_chemical_formula_structural   Zn4H27C24N3O13
_chemical_formula_sum   'Zn8 H54 C48 N6 O26'
_cell_volume   3345.24727458
_cell_formula_units_Z   2
loop_
 _symmetry_equiv_pos_site_id
 _symmetry_equiv_pos_as_xyz
  1  'x, y, z'
loop_
 _atom_site_type_symbol
 _atom_site_label
 _atom_site_symmetry_multiplicity
 _atom_site_fract_x
 _atom_site_fract_y
 _atom_site_fract_z
 _atom_site_occupancy
 _atom_site_pbe_bader_charge
 _atom_site_pbe_bader_spin_density
 _atom_site_pbe_cm5_charge
 _atom_site_pbe_ddec_charge
 _atom_site_pbe_ddec_spin_density
 _atom_site_pbe_ddec_sum_bond_order
 _atom_site_pbe_magmom
Zn  Zn0  1  0.90386629  0.03910562  0.94314279  1  1.313168  0  0.674802  0.956257  0  2.329581  0
Zn  Zn1  1  0.11588710  0.04304731  0.96362443  1  1.317564  0  0.678629  0.962048  0  2.351598  0
Zn  Zn2  1  0.91552403  0.85272712  0.94836509  1  1.317281  0  0.678964  0.967673  0  2.370038  0
Zn  Zn3  1  0.08773048  0.03190389  0.13574189  1  1.318704  0  0.676244  0.962315  0  2.413387  0
Zn  Zn4  1  0.10854867  0.43932092  0.53381407  1  1.306323  0  0.666043  0.951617  0  2.371293  0
Zn  Zn5  1  0.91872925  0.43944627  0.55529265  1  1.317402  0  0.676598  0.968962  0  2.339894  0
Zn  Zn6  1  0.90629961  0.44639579  0.36213576  1  1.310307  0  0.676681  0.953555  0  2.39967  0
Zn  Zn7  1  0.09819073  0.62682306  0.54355018  1  1.304357  0  0.679391  0.966165  0  2.377039  0
H  H8  1  0.15883377  0.37652419  0.97601880  1  0.044993  0  0.09104  0.089995  0  0.986773  0
H  H9  1  0.00887606  0.31179451  0.89847113  1  0.049898  0  0.098529  0.110487  0  0.980068  0
H  H10  1  0.16953397  0.47249305  0.87113002  1  0.036354  0  0.089191  0.085192  0  0.995927  0
H  H11  1  0.01892321  0.40619617  0.79692969  1  0.045826  0  0.097452  0.106887  0  0.985181  0
H  H12  1  0.28326309  0.43065734  0.85172221  1  0.021577  0  0.090009  0.093137  0  0.987717  0
H  H13  1  0.22551718  0.32842334  0.76445071  1  0.029251  0  0.092086  0.098423  0  0.987634  0
H  H14  1  0.27539767  0.33723771  0.95918566  1  0.032345  0  0.089868  0.093163  0  1.001996  0
H  H15  1  0.21933316  0.23712440  0.86972456  1  0.040943  0  0.09274  0.102817  0  0.994054  0
H  H16  1  0.02231101  0.19837004  0.72020264  1  0.38862  0  0.291472  0.246638  0  0.941824  0
H  H17  1  0.61274479  0.86520286  0.60393979  1  0.010871  0  0.093178  0.093162  0  0.982192  0
H  H18  1  0.58595844  0.91010536  0.67854435  1  0.067123  0  0.099316  0.109849  0  0.977305  0
H  H19  1  0.41230802  0.74984024  0.49909927  1  0.010004  0  0.088323  0.082424  0  1.001711  0
H  H20  1  0.39019446  0.80048915  0.57458898  1  0.061466  0  0.097835  0.108511  0  0.987343  0
H  H21  1  0.43901233  0.62025307  0.51562166  1  -0.006959  0  0.089049  0.091452  0  0.990422  0
H  H22  1  0.44839084  0.57137438  0.60950609  1  0.066291  0  0.092522  0.100726  0  0.989597  0
H  H23  1  0.64010020  0.73561070  0.61558425  1  0.027468  0  0.09034  0.09281  0  0.988995  0
H  H24  1  0.64584490  0.68167313  0.70625221  1  0.037616  0  0.091806  0.099929  0  0.995962  0
H  H25  1  0.51840928  0.69567578  0.75603035  1  0.372112  0  0.291417  0.247305  0  0.941929  0
H  H26  1  0.71974239  0.00652679  0.11599673  1  0.036959  0  0.092179  0.09208  0  0.985395  0
H  H27  1  0.75269527  0.10260991  0.06867989  1  0.078217  0  0.098192  0.108044  0  0.977871  0
H  H28  1  0.73087768  0.10187944  0.23393347  1  0.017194  0  0.090683  0.088706  0  0.986615  0
H  H29  1  0.75518113  0.19245050  0.17884174  1  0.074601  0  0.098832  0.112175  0  0.983574  0
H  H30  1  0.88051899  0.09520551  0.36551006  1  0.015912  0  0.089858  0.091953  0  0.989323  0
H  H31  1  0.02443858  0.17400482  0.40660292  1  0.070328  0  0.091934  0.099799  0  0.994781  0
H  H32  1  0.86135444  0.99226311  0.24814840  1  0.022487  0  0.090446  0.093003  0  0.987456  0
H  H33  1  0.00779004  0.06999583  0.29673431  1  0.065515  0  0.090971  0.098343  0  0.998282  0
H  H34  1  0.04575969  0.23928386  0.27728910  1  0.373496  0  0.290525  0.247467  0  0.946691  0
H  H35  1  0.28941928  0.86318026  0.97496290  1  0.023606  0  0.091208  0.089736  0  0.986218  0
H  H36  1  0.24727785  0.91216457  0.88069169  1  0.065162  0  0.098451  0.108082  0  0.976765  0
H  H37  1  0.27467479  0.74667098  0.87393083  1  0.013497  0  0.091115  0.089707  0  0.98686  0
H  H38  1  0.23788942  0.80175310  0.78390798  1  0.065454  0  0.09947  0.111756  0  0.984071  0
H  H39  1  0.13815816  0.61761930  0.88736549  1  0.026673  0  0.089276  0.090364  0  0.99705  0
H  H40  1  0.99150927  0.57392409  0.81313083  1  0.050495  0  0.092637  0.10045  0  0.990213  0
H  H41  1  0.15901765  0.73371249  0.99342035  1  -0.004576  0  0.088563  0.088955  0  0.996177  0
H  H42  1  0.01075764  0.68470944  0.91916152  1  0.034848  0  0.092588  0.100435  0  0.995677  0
H  H43  1  0.95607398  0.70420395  0.74857388  1  0.383305  0  0.290595  0.247613  0  0.945704  0
H  H44  1  0.37694118  0.37776203  0.17141652  1  0.020247  0  0.089942  0.086813  0  0.991043  0
H  H45  1  0.40529451  0.31863956  0.10854772  1  0.065749  0  0.096373  0.104358  0  0.996405  0
H  H46  1  0.57863684  0.48496898  0.28285858  1  0.036158  0  0.091205  0.089478  0  0.986319  0
H  H47  1  0.60102347  0.42558626  0.21438858  1  0.075145  0  0.098893  0.111418  0  0.984105  0
H  H48  1  0.57094200  0.44256572  0.41332870  1  0.021624  0  0.090258  0.092464  0  0.989133  0
H  H49  1  0.57845090  0.34395405  0.44567259  1  0.034975  0  0.09232  0.100512  0  0.992317  0
H  H50  1  0.36843975  0.33949436  0.30304234  1  0.004969  0  0.090178  0.093487  0  0.98722  0
H  H51  1  0.37978397  0.24385194  0.34043591  1  0.039232  0  0.092017  0.100804  0  0.997415  0
H  H52  1  0.50883717  0.21807273  0.30133031  1  0.379603  0  0.29116  0.245217  0  0.943747  0
H  H53  1  0.13915716  0.73483001  0.14684158  1  -0.008045  0  0.089141  0.0851  0  0.996338  0
H  H54  1  0.98912633  0.66888535  0.08408831  1  0.064257  0  0.096569  0.105691  0  0.988396  0
H  H55  1  0.14520911  0.63617002  0.25098108  1  0.025815  0  0.090359  0.088372  0  0.98619  0
H  H56  1  0.99508751  0.57218417  0.18465427  1  0.074172  0  0.09932  0.111297  0  0.981855  0
H  H57  1  0.26198571  0.77144868  0.38430499  1  0.028057  0  0.088505  0.088487  0  1.011706  0
H  H58  1  0.20590547  0.81810155  0.42582126  1  0.051367  0  0.093385  0.102527  0  0.992542  0
H  H59  1  0.25756459  0.87035994  0.28089469  1  0.036588  0  0.089478  0.091575  0  0.987566  0
H  H60  1  0.20222657  0.91539114  0.32496731  1  0.044376  0  0.092138  0.10064  0  0.995279  0
H  H61  1  0.00670418  0.77874110  0.28698112  1  0.388548  0  0.291687  0.248987  0  0.942152  0
C  C62  1  0.04082301  0.16599739  0.88353202  1  1.538814  0  0.237773  0.59974  0  4.069614  0
C  C63  1  0.08935149  0.25769942  0.86049269  1  0.302622  0  0.068425  0.122961  0  3.797313  0
C  C64  1  0.08751460  0.33906803  0.90180577  1  -0.036349  0  -0.157638  -0.195791  0  3.861232  0
C  C65  1  0.09395171  0.40081450  0.83478723  1  -0.037425  0  -0.155198  -0.19401  0  3.839883  0
C  C66  1  0.09665013  0.34375087  0.76425937  1  0.31479  0  0.070363  0.12448  0  3.798493  0
C  C67  1  0.21487119  0.35603327  0.81559345  1  -0.01606  0  -0.166741  -0.213438  0  3.891699  0
C  C68  1  0.21049768  0.29614180  0.88424041  1  -0.040893  0  -0.16605  -0.220133  0  3.867875  0
C  C69  1  0.05710691  0.36658096  0.67068041  1  1.553831  0  0.235635  0.595368  0  4.085688  0
C  C70  1  0.71790084  0.85170343  0.80465418  1  1.548947  0  0.242661  0.603856  0  4.070964  0
C  C71  1  0.60703842  0.79164155  0.70880527  1  0.302718  0  0.069475  0.12268  0  3.802833  0
C  C72  1  0.56867138  0.84546574  0.64019069  1  -0.023459  0  -0.158559  -0.194914  0  3.862155  0
C  C73  1  0.43980536  0.77278260  0.57277785  1  -0.016659  0  -0.156972  -0.196131  0  3.84398  0
C  C74  1  0.42382188  0.68941379  0.61542146  1  0.30042  0  0.069488  0.126246  0  3.788491  0
C  C75  1  0.47176502  0.63779728  0.59129726  1  -0.01982  0  -0.167378  -0.219166  0  3.891737  0
C  C76  1  0.60109662  0.71056484  0.65548851  1  -0.037884  0  -0.163831  -0.214916  0  3.865884  0
C  C77  1  0.30423937  0.62751614  0.59227817  1  1.556359  0  0.236978  0.596899  0  4.083028  0
C  C78  1  0.93955518  0.09180620  0.12556816  1  1.567863  0  0.241297  0.605594  0  4.073902  0
C  C79  1  0.90079575  0.10955675  0.18588251  1  0.289231  0  0.068967  0.123317  0  3.807308  0
C  C80  1  0.77728407  0.08273700  0.13414351  1  -0.044282  0  -0.1594  -0.19889  0  3.872713  0
C  C81  1  0.78203126  0.14382443  0.20751532  1  -0.036879  0  -0.158418  -0.195885  0  3.849489  0
C  C82  1  0.90900618  0.19984867  0.28784001  1  0.318855  0  0.068842  0.124211  0  3.792496  0
C  C83  1  0.93794839  0.13299579  0.34304651  1  -0.057445  0  -0.164555  -0.215458  0  3.883099  0
C  C84  1  0.92787716  0.06661220  0.26983121  1  -0.064505  0  -0.163776  -0.214188  0  3.860648  0
C  C85  1  0.95120639  0.29501252  0.34789834  1  1.56211  0  0.240374  0.601398  0  4.081281  0
C  C86  1  0.06846165  0.85676226  0.89727458  1  1.572047  0  0.23998  0.601966  0  4.079715  0
C  C87  1  0.10617702  0.79518707  0.87624804  1  0.305431  0  0.068103  0.121454  0  3.807352  0
C  C88  1  0.22696247  0.84613183  0.89937473  1  -0.022153  0  -0.157998  -0.192441  0  3.866001  0
C  C89  1  0.21903235  0.77296816  0.83466322  1  -0.028002  0  -0.157413  -0.19699  0  3.844247  0
C  C90  1  0.09320768  0.69257563  0.78193369  1  0.305633  0  0.069384  0.12661  0  3.790956  0
C  C91  1  0.07590091  0.63855048  0.85138477  1  -0.047438  0  -0.164884  -0.215326  0  3.878754  0
C  C92  1  0.08787848  0.71169043  0.91978696  1  -0.011074  0  -0.162999  -0.214461  0  3.85774  0
C  C93  1  0.04764237  0.63217276  0.68610121  1  1.575702  0  0.239653  0.600546  0  4.0796  0
C  C94  1  0.29551221  0.17136591  0.15722806  1  1.576984  0  0.239425  0.599819  0  4.076984  0
C  C95  1  0.40319756  0.26641684  0.22446917  1  0.304696  0  0.068912  0.126802  0  3.789805  0
C  C96  1  0.42676618  0.34635240  0.17878277  1  -0.027727  0  -0.15899  -0.198599  0  3.865181  0
C  C97  1  0.55603076  0.41545824  0.24896063  1  -0.056796  0  -0.157764  -0.195558  0  3.847428  0
C  C98  1  0.58727822  0.36296472  0.32258288  1  0.297896  0  0.069556  0.126637  0  3.786451  0
C  C99  1  0.54459575  0.36960250  0.38528087  1  -0.019265  0  -0.166888  -0.21925  0  3.888026  0
C  C100  1  0.41451545  0.30315988  0.31560061  1  -0.027996  0  -0.165623  -0.216616  0  3.873419  0
C  C101  1  0.71016696  0.38937781  0.37441896  1  1.555797  0  0.241543  0.601038  0  4.078832  0
C  C102  1  0.02571019  0.84011762  0.14247732  1  1.572855  0  0.24066  0.602465  0  4.077815  0
C  C103  1  0.07142454  0.78644840  0.20539388  1  0.308952  0  0.067256  0.123328  0  3.799319  0
C  C104  1  0.06766561  0.70656206  0.15468614  1  -0.026035  0  -0.159183  -0.195081  0  3.864244  0
C  C105  1  0.07122072  0.64315008  0.22085829  1  -0.018784  0  -0.159088  -0.19531  0  3.854656  0
C  C106  1  0.07554282  0.69614660  0.29891568  1  0.303731  0  0.068899  0.125942  0  3.790581  0
C  C107  1  0.19496450  0.78667759  0.36194497  1  -0.063155  0  -0.165592  -0.217905  0  3.875907  0
C  C108  1  0.19232982  0.85028695  0.29583441  1  -0.046209  0  -0.164763  -0.214331  0  3.873517  0
C  C109  1  0.03320276  0.63505371  0.35269899  1  1.570971  0  0.239629  0.599166  0  4.075795  0
N  N110  1  0.01984867  0.24548891  0.75714115  1  -0.952256  0  -0.462714  -0.422023  0  3.119761  0
N  N111  1  0.50916273  0.74221649  0.71834434  1  -0.926936  0  -0.463535  -0.426204  0  3.114924  0
N  N112  1  0.96072160  0.21281837  0.23220516  1  -0.94334  0  -0.466053  -0.432657  0  3.117341  0
N  N113  1  0.03948158  0.74856309  0.77244613  1  -0.951623  0  -0.465915  -0.431039  0  3.123056  0
N  N114  1  0.50710904  0.26264104  0.26000477  1  -0.920969  0  -0.461683  -0.425819  0  3.101241  0
N  N115  1  0.00120446  0.73218239  0.24193029  1  -0.949581  0  -0.46379  -0.430869  0  3.100463  0
O  O116  1  0.00539456  0.99032834  0.99830537  1  -1.233749  0  -0.577027  -1.036157  0  2.558854  0
O  O117  1  0.06312270  0.10532005  0.86768326  1  -1.178002  0  -0.325401  -0.561023  0  2.301059  0
O  O118  1  0.98199204  0.15600927  0.91715464  1  -1.149538  0  -0.302637  -0.523315  0  2.305806  0
O  O119  1  0.95906415  0.35519275  0.62519582  1  -1.174527  0  -0.318964  -0.546203  0  2.32066  0
O  O120  1  0.12789135  0.39864769  0.64691012  1  -1.161491  0  -0.312591  -0.539738  0  2.328048  0
O  O121  1  0.75551701  0.80637304  0.85783174  1  -1.181538  0  -0.321041  -0.553903  0  2.318297  0
O  O122  1  0.76455188  0.94100844  0.82447601  1  -1.146073  0  -0.300634  -0.52249  0  2.320162  0
O  O123  1  0.25929354  0.67019595  0.60138051  1  -1.175531  0  -0.312231  -0.541902  0  2.340915  0
O  O124  1  0.25859023  0.53803731  0.56478356  1  -1.167622  0  -0.312237  -0.538349  0  2.320329  0
O  O125  1  0.04017782  0.10789026  0.17123201  1  -1.187189  0  -0.325804  -0.563  0  2.326616  0
O  O126  1  0.87102357  0.06269534  0.03591006  1  -1.159263  0  -0.302195  -0.523777  0  2.305685  0
O  O127  1  0.89264223  0.33220895  0.31051126  1  -1.167793  0  -0.306252  -0.530548  0  2.356851  0
O  O128  1  0.04229956  0.32989256  0.43034635  1  -1.171727  0  -0.313951  -0.543808  0  2.323805  0
O  O129  1  0.96878890  0.81406345  0.87938790  1  -1.183826  0  -0.31956  -0.555314  0  2.312002  0
O  O130  1  0.13928871  0.94594736  0.93108501  1  -1.164128  0  -0.306451  -0.529274  0  2.327345  0
O  O131  1  0.08417047  0.67557218  0.63810294  1  -1.172233  0  -0.312045  -0.536442  0  2.350057  0
O  O132  1  0.97770763  0.54378549  0.66193908  1  -1.178079  0  -0.310217  -0.543207  0  2.32428  0
O  O133  1  0.25139102  0.11441760  0.19434072  1  -1.183041  0  -0.321798  -0.554859  0  2.325417  0
O  O134  1  0.25704194  0.15568694  0.06945790  1  -1.17288  0  -0.302643  -0.527395  0  2.325807  0
O  O135  1  0.75559747  0.41240155  0.32796727  1  -1.169269  0  -0.304544  -0.528143  0  2.359776  0
O  O136  1  0.75712324  0.38623871  0.45968638  1  -1.17578  0  -0.313052  -0.544136  0  2.319566  0
O  O137  1  0.05748929  0.92245732  0.18409143  1  -1.180248  0  -0.319321  -0.551326  0  2.330793  0
O  O138  1  0.96082786  0.79945698  0.05358960  1  -1.174527  0  -0.305625  -0.531603  0  2.345852  0
O  O139  1  0.96873755  0.54623879  0.31204903  1  -1.169991  0  -0.303959  -0.525541  0  2.341982  0
O  O140  1  0.06625300  0.67743022  0.43450710  1  -1.178558  0  -0.318357  -0.550381  0  2.31569  0
O  O141  1  0.00838271  0.48849115  0.50052026  1  -1.216575  0  -0.57533  -1.034684  0  2.554052  0
