# generated using pymatgen
data_ZnH9C11N3O2
_symmetry_space_group_name_H-M   'P 1'
_cell_length_a   9.44820854
_cell_length_b   9.60103098
_cell_length_c   14.40665559
_cell_angle_alpha   96.81184911
_cell_angle_beta   90.00071853
_cell_angle_gamma   90.00045508
_symmetry_Int_Tables_number   1
_chemical_formula_structural   ZnH9C11N3O2
_chemical_formula_sum   'Zn4 H36 C44 N12 O8'
_cell_volume   1297.63920808
_cell_formula_units_Z   4
loop_
 _symmetry_equiv_pos_site_id
 _symmetry_equiv_pos_as_xyz
  1  'x, y, z'
loop_
 _atom_site_type_symbol
 _atom_site_label
 _atom_site_symmetry_multiplicity
 _atom_site_fract_x
 _atom_site_fract_y
 _atom_site_fract_z
 _atom_site_occupancy
 _atom_site_hle17_bader_spin_density
 _atom_site_hle17_ddec_charge
 _atom_site_hle17_ddec_spin_density
 _atom_site_hle17_ddec_sum_bond_order
 _atom_site_hle17_magmom
 _atom_site_hse06_10hf_bader_spin_density
 _atom_site_hse06_10hf_ddec_charge
 _atom_site_hse06_10hf_ddec_spin_density
 _atom_site_hse06_10hf_ddec_sum_bond_order
 _atom_site_hse06_10hf_magmom
 _atom_site_hse06_bader_spin_density
 _atom_site_hse06_ddec_charge
 _atom_site_hse06_ddec_spin_density
 _atom_site_hse06_ddec_sum_bond_order
 _atom_site_hse06_magmom
 _atom_site_pbe_bader_spin_density
 _atom_site_pbe_cm5_charge
 _atom_site_pbe_ddec_charge
 _atom_site_pbe_ddec_spin_density
 _atom_site_pbe_ddec_sum_bond_order
 _atom_site_pbe_magmom
Zn  Zn0  1  0.94565434  0.39694145  0.59782347  1  0  0.906596  0  2.013878  0  0  0.704568  0  2.503191  0  0  0.747298  0  2.454509  0  0  0.717098  0.675056  0  2.53591  0
Zn  Zn1  1  0.44564643  0.10305538  0.40217739  1  0  0.906609  0  2.013793  0  0  0.704585  0  2.503093  0  0  0.747314  0  2.454407  0  0  0.717089  0.67508  0  2.535823  0
Zn  Zn2  1  0.05434994  0.60305498  0.40218025  1  0  0.906625  0  2.013886  0  0  0.704605  0  2.503216  0  0  0.747336  0  2.454527  0  0  0.717104  0.675098  0  2.535939  0
Zn  Zn3  1  0.55435573  0.89694183  0.59782151  1  0  0.906571  0  2.013824  0  0  0.704534  0  2.503125  0  0  0.747265  0  2.454442  0  0  0.717036  0.675027  0  2.535859  0
H  H4  1  0.31203959  0.38583799  0.33474362  1  0  0.111208  0  0.927291  0  0  0.123051  0  0.983245  0  0  0.125028  0  0.981206  0  0  0.146942  0.121467  0  0.984966  0
H  H5  1  0.81205708  0.11416369  0.66525291  1  0  0.111158  0  0.927309  0  0  0.122995  0  0.983277  0  0  0.124972  0  0.981238  0  0  0.146916  0.121412  0  0.984994  0
H  H6  1  0.68797421  0.61416825  0.66526759  1  0  0.111171  0  0.927245  0  0  0.123016  0  0.983209  0  0  0.124994  0  0.981167  0  0  0.146914  0.121432  0  0.984929  0
H  H7  1  0.18794613  0.88583236  0.33474384  1  0  0.111194  0  0.927313  0  0  0.12303  0  0.983277  0  0  0.125007  0  0.981237  0  0  0.146935  0.121446  0  0.984998  0
H  H8  1  0.19031095  0.17316566  0.56192298  1  0  0.118126  0  0.926549  0  0  0.129121  0  0.982482  0  0  0.131943  0  0.978983  0  0  0.144806  0.126935  0  0.985178  0
H  H9  1  0.69030570  0.32682653  0.43807270  1  0  0.118168  0  0.926546  0  0  0.129166  0  0.982462  0  0  0.131993  0  0.978964  0  0  0.1448  0.126975  0  0.985159  0
H  H10  1  0.80969332  0.82682751  0.43807847  1  0  0.118146  0  0.926547  0  0  0.129139  0  0.982471  0  0  0.131966  0  0.978972  0  0  0.144805  0.126954  0  0.98517  0
H  H11  1  0.30968799  0.67317930  0.56193085  1  0  0.11813  0  0.926544  0  0  0.129123  0  0.982464  0  0  0.131963  0  0.978966  0  0  0.144763  0.126936  0  0.985161  0
H  H12  1  0.00996027  0.39508536  0.90011374  1  0  0.107324  0  0.968214  0  0  0.115492  0  1.034114  0  0  0.119206  0  1.033184  0  0  0.098962  0.113045  0  1.034592  0
H  H13  1  0.50993932  0.10492090  0.09988189  1  0  0.107384  0  0.968303  0  0  0.115569  0  1.034171  0  0  0.119265  0  1.033262  0  0  0.099016  0.113123  0  1.034653  0
H  H14  1  0.99002813  0.60490886  0.09988778  1  0  0.107271  0  0.968351  0  0  0.115466  0  1.034226  0  0  0.119153  0  1.033324  0  0  0.098931  0.113017  0  1.034708  0
H  H15  1  0.49005225  0.89508043  0.90011585  1  0  0.107394  0  0.968199  0  0  0.115512  0  1.034143  0  0  0.119225  0  1.033218  0  0  0.098981  0.113066  0  1.034622  0
H  H16  1  0.12344248  0.09571389  0.84504578  1  0  0.096114  0  0.933588  0  0  0.107365  0  0.992605  0  0  0.11057  0  0.9899  0  0  0.105238  0.104993  0  0.994708  0
H  H17  1  0.62343560  0.40428310  0.15495307  1  0  0.096154  0  0.933495  0  0  0.107418  0  0.992512  0  0  0.110622  0  0.989807  0  0  0.10525  0.105039  0  0.994614  0
H  H18  1  0.87655439  0.90427921  0.15495428  1  0  0.096218  0  0.9336  0  0  0.107367  0  0.992707  0  0  0.110571  0  0.990003  0  0  0.105238  0.104991  0  0.994812  0
H  H19  1  0.37656233  0.59571609  0.84504386  1  0  0.096058  0  0.933585  0  0  0.107365  0  0.99256  0  0  0.110572  0  0.98985  0  0  0.10521  0.10499  0  0.994659  0
H  H20  1  0.22829149  0.98400365  0.96974129  1  0  0.089327  0  0.954763  0  0  0.09981  0  1.017995  0  0  0.102117  0  1.018153  0  0  0.099426  0.098062  0  1.018132  0
H  H21  1  0.72828754  0.51600824  0.03025929  1  0  0.089277  0  0.954715  0  0  0.099777  0  1.017957  0  0  0.102077  0  1.018122  0  0  0.099407  0.098031  0  1.018087  0
H  H22  1  0.77170009  0.01599469  0.03025906  1  0  0.089285  0  0.954749  0  0  0.099781  0  1.017974  0  0  0.102082  0  1.018138  0  0  0.099437  0.09805  0  1.018093  0
H  H23  1  0.27170827  0.48399104  0.96973903  1  0  0.089357  0  0.954621  0  0  0.09983  0  1.01788  0  0  0.102141  0  1.018034  0  0  0.099449  0.09808  0  1.018015  0
H  H24  1  0.25476039  0.95877141  0.13832077  1  0  0.08704  0  0.971428  0  0  0.096403  0  1.03482  0  0  0.098488  0  1.03542  0  0  0.096145  0.094575  0  1.035194  0
H  H25  1  0.75475142  0.54123435  0.86167830  1  0  0.087049  0  0.971427  0  0  0.096444  0  1.034789  0  0  0.098529  0  1.035387  0  0  0.09614  0.094613  0  1.035161  0
H  H26  1  0.74524389  0.04123419  0.86167859  1  0  0.087049  0  0.971384  0  0  0.09645  0  1.034742  0  0  0.098538  0  1.035336  0  0  0.096157  0.094622  0  1.035111  0
H  H27  1  0.24524545  0.45876073  0.13831979  1  0  0.087001  0  0.971426  0  0  0.096435  0  1.034751  0  0  0.098523  0  1.035343  0  0  0.096152  0.094603  0  1.035126  0
H  H28  1  0.13708083  0.12859799  0.25792843  1  0  0.074985  0  0.960591  0  0  0.085547  0  1.022484  0  0  0.088322  0  1.021531  0  0  0.091447  0.083492  0  1.023382  0
H  H29  1  0.63707119  0.37140736  0.74206822  1  0  0.07491  0  0.960661  0  0  0.085512  0  1.022526  0  0  0.088284  0  1.021573  0  0  0.09144  0.083453  0  1.023425  0
H  H30  1  0.86293191  0.87140974  0.74207175  1  0  0.074899  0  0.960658  0  0  0.085492  0  1.022533  0  0  0.088262  0  1.021578  0  0  0.091441  0.08344  0  1.023429  0
H  H31  1  0.36293097  0.62858768  0.25792917  1  0  0.074904  0  0.960672  0  0  0.085522  0  1.022515  0  0  0.088288  0  1.021568  0  0  0.09144  0.083464  0  1.023416  0
H  H32  1  0.99638480  0.32762452  0.20769729  1  0  0.098784  0  0.961785  0  0  0.107866  0  1.021729  0  0  0.111459  0  1.019506  0  0  0.09715  0.10518  0  1.023554  0
H  H33  1  0.49637965  0.17237664  0.79229799  1  0  0.098727  0  0.961749  0  0  0.107776  0  1.021772  0  0  0.111368  0  1.019551  0  0  0.097135  0.105092  0  1.0236  0
H  H34  1  0.00361736  0.67237793  0.79230190  1  0  0.098758  0  0.961812  0  0  0.107847  0  1.021759  0  0  0.111438  0  1.01954  0  0  0.097158  0.105177  0  1.02357  0
H  H35  1  0.50361616  0.82762147  0.20769818  1  0  0.098728  0  0.961881  0  0  0.107831  0  1.021818  0  0  0.111422  0  1.019598  0  0  0.097156  0.105156  0  1.023638  0
H  H36  1  0.97043658  0.35205396  0.04050116  1  0  0.083884  0  0.966452  0  0  0.095544  0  1.029821  0  0  0.098009  0  1.029075  0  0  0.0985  0.093775  0  1.030433  0
H  H37  1  0.47044078  0.14795212  0.95949278  1  0  0.083885  0  0.966646  0  0  0.095524  0  1.030025  0  0  0.098005  0  1.02926  0  0  0.09847  0.093753  0  1.030639  0
H  H38  1  0.02955817  0.64794643  0.95949861  1  0  0.083814  0  0.966604  0  0  0.095562  0  1.029863  0  0  0.097979  0  1.029169  0  0  0.098508  0.093794  0  1.03047  0
H  H39  1  0.52955714  0.85204817  0.04050490  1  0  0.083888  0  0.966609  0  0  0.095552  0  1.029962  0  0  0.098018  0  1.029215  0  0  0.09847  0.09378  0  1.030577  0
C  C40  1  0.25523245  0.35534867  0.39461964  1  0  0.232495  0  3.672029  0  0  0.174628  0  3.936672  0  0  0.18851  0  3.95006  0  0  0.161799  0.165459  0  3.927462  0
C  C41  1  0.75523951  0.14465155  0.60537841  1  0  0.232702  0  3.672184  0  0  0.174819  0  3.936825  0  0  0.188703  0  3.950211  0  0  0.161932  0.165648  0  3.927616  0
C  C42  1  0.74477712  0.64465626  0.60538663  1  0  0.232667  0  3.67179  0  0  0.174782  0  3.93645  0  0  0.188668  0  3.949837  0  0  0.161919  0.165613  0  3.927237  0
C  C43  1  0.24476053  0.85534773  0.39461991  1  0  0.232624  0  3.672196  0  0  0.174737  0  3.936841  0  0  0.188623  0  3.950222  0  0  0.161868  0.165568  0  3.927634  0
C  C44  1  0.19602505  0.24564022  0.50952727  1  0  0.219511  0  3.680974  0  0  0.161095  0  3.942176  0  0  0.174887  0  3.955663  0  0  0.15557  0.15213  0  3.93297  0
C  C45  1  0.69602128  0.25435525  0.49047003  1  0  0.219471  0  3.681147  0  0  0.161049  0  3.942337  0  0  0.174834  0  3.955831  0  0  0.155598  0.152097  0  3.933116  0
C  C46  1  0.80398028  0.75435614  0.49047506  1  0  0.219687  0  3.681144  0  0  0.161284  0  3.942333  0  0  0.175071  0  3.955825  0  0  0.155678  0.152319  0  3.933131  0
C  C47  1  0.30397453  0.74564627  0.50953119  1  0  0.219571  0  3.680994  0  0  0.161148  0  3.942156  0  0  0.174917  0  3.955665  0  0  0.155621  0.152186  0  3.932942  0
C  C48  1  0.02676169  0.30317157  0.75508244  1  0  0.666904  0  3.935576  0  0  0.628924  0  4.212857  0  0  0.663848  0  4.205924  0  0  0.185527  0.60512  0  4.216973  0
C  C49  1  0.52674533  0.19683769  0.24490794  1  0  0.666797  0  3.935756  0  0  0.628952  0  4.212889  0  0  0.663877  0  4.205949  0  0  0.185564  0.605153  0  4.217003  0
C  C50  1  0.97324470  0.69683197  0.24491750  1  0  0.666726  0  3.935853  0  0  0.62875  0  4.213141  0  0  0.663676  0  4.206202  0  0  0.185445  0.604946  0  4.217255  0
C  C51  1  0.47324836  0.80316465  0.75508916  1  0  0.666802  0  3.935732  0  0  0.628893  0  4.212925  0  0  0.663817  0  4.20599  0  0  0.185536  0.605092  0  4.217035  0
C  C52  1  0.04290539  0.30003697  0.85650203  1  0  -0.253552  0  3.706151  0  0  -0.265253  0  3.957918  0  0  -0.279264  0  3.977019  0  0  -0.108985  -0.255869  0  3.944603  0
C  C53  1  0.54288923  0.19996118  0.14349274  1  0  -0.253456  0  3.706562  0  0  -0.26519  0  3.958212  0  0  -0.279185  0  3.977323  0  0  -0.108955  -0.255813  0  3.944905  0
C  C54  1  0.95708724  0.69995819  0.14349746  1  0  -0.253493  0  3.706177  0  0  -0.2652  0  3.957849  0  0  -0.279185  0  3.976961  0  0  -0.108979  -0.255818  0  3.944538  0
C  C55  1  0.45710552  0.80003806  0.85650488  1  0  -0.253452  0  3.706507  0  0  -0.265112  0  3.958206  0  0  -0.279123  0  3.977308  0  0  -0.108952  -0.255727  0  3.944885  0
C  C56  1  0.09054712  0.18627654  0.89361222  1  0  -0.023855  0  3.731829  0  0  -0.049921  0  3.980267  0  0  -0.044443  0  3.998381  0  0  -0.067342  -0.053157  0  3.967219  0
C  C57  1  0.59053752  0.31371805  0.10638622  1  0  -0.023941  0  3.731781  0  0  -0.050014  0  3.980219  0  0  -0.044533  0  3.998326  0  0  -0.067383  -0.053242  0  3.967163  0
C  C58  1  0.90944445  0.81372075  0.10638807  1  0  -0.023933  0  3.731697  0  0  -0.049875  0  3.980137  0  0  -0.044391  0  3.998241  0  0  -0.067296  -0.053105  0  3.96708  0
C  C59  1  0.40945829  0.68627905  0.89361059  1  0  -0.023962  0  3.731725  0  0  -0.050072  0  3.980154  0  0  -0.044591  0  3.998267  0  0  -0.067389  -0.053307  0  3.967102  0
C  C60  1  0.10200205  0.17280207  0.99304127  1  0  0.068255  0  3.823157  0  0  0.090793  0  4.050309  0  0  0.088773  0  4.076001  0  0  -0.013286  0.09226  0  4.032639  0
C  C61  1  0.60199700  0.32720086  0.00695495  1  0  0.068168  0  3.823052  0  0  0.090682  0  4.050248  0  0  0.08866  0  4.075944  0  0  -0.013241  0.092148  0  4.032569  0
C  C62  1  0.89799482  0.82719736  0.00695983  1  0  0.068431  0  3.823301  0  0  0.090857  0  4.050592  0  0  0.088836  0  4.076276  0  0  -0.013232  0.092325  0  4.032916  0
C  C63  1  0.39799564  0.67279523  0.99304250  1  0  0.068402  0  3.823146  0  0  0.09091  0  4.050332  0  0  0.088888  0  4.076029  0  0  -0.013095  0.092375  0  4.032654  0
C  C64  1  0.17961229  0.06053525  0.02228289  1  0  -0.105729  0  3.717485  0  0  -0.12446  0  3.960624  0  0  -0.127451  0  3.983292  0  0  -0.08313  -0.12241  0  3.945151  0
C  C65  1  0.67960983  0.43946612  0.97771043  1  0  -0.105652  0  3.717679  0  0  -0.1244  0  3.960832  0  0  -0.127385  0  3.983509  0  0  -0.083131  -0.122358  0  3.945354  0
C  C66  1  0.82038458  0.93945901  0.97771933  1  0  -0.105733  0  3.717533  0  0  -0.124448  0  3.960723  0  0  -0.127433  0  3.983401  0  0  -0.083183  -0.122422  0  3.945247  0
C  C67  1  0.32039232  0.56053304  0.02228580  1  0  -0.105811  0  3.71769  0  0  -0.124547  0  3.960879  0  0  -0.127541  0  3.983551  0  0  -0.083227  -0.122501  0  3.945401  0
C  C68  1  0.19313951  0.04534129  0.11690712  1  0  -0.065742  0  3.782288  0  0  -0.078513  0  4.033042  0  0  -0.080622  0  4.056293  0  0  -0.093373  -0.077081  0  4.01742  0
C  C69  1  0.69313430  0.45466789  0.88309300  1  0  -0.065725  0  3.782404  0  0  -0.07853  0  4.033155  0  0  -0.080641  0  4.056406  0  0  -0.093332  -0.077086  0  4.017513  0
C  C70  1  0.80686371  0.95466660  0.88309585  1  0  -0.065803  0  3.782004  0  0  -0.078607  0  4.032762  0  0  -0.080718  0  4.056011  0  0  -0.093351  -0.077163  0  4.017129  0
C  C71  1  0.30686362  0.54532921  0.11690381  1  0  -0.065716  0  3.782251  0  0  -0.078543  0  4.033006  0  0  -0.080653  0  4.056254  0  0  -0.093351  -0.077098  0  4.017367  0
C  C72  1  0.12746777  0.14104836  0.18393025  1  0  -0.068905  0  3.774075  0  0  -0.084143  0  4.025084  0  0  -0.086714  0  4.047775  0  0  -0.094368  -0.082038  0  4.009654  0
C  C73  1  0.62746686  0.35895586  0.81606626  1  0  -0.068827  0  3.77377  0  0  -0.084078  0  4.024787  0  0  -0.086645  0  4.047475  0  0  -0.094379  -0.08197  0  4.009355  0
C  C74  1  0.87253545  0.85895619  0.81606906  1  0  -0.068759  0  3.773654  0  0  -0.084018  0  4.024676  0  0  -0.086579  0  4.047361  0  0  -0.094363  -0.08192  0  4.009258  0
C  C75  1  0.37253530  0.64103818  0.18393177  1  0  -0.068785  0  3.773635  0  0  -0.084066  0  4.024671  0  0  -0.086624  0  4.047364  0  0  -0.094375  -0.081959  0  4.009243  0
C  C76  1  0.04773749  0.25179452  0.15617126  1  0  -0.082315  0  3.792762  0  0  -0.09333  0  4.039953  0  0  -0.095803  0  4.061919  0  0  -0.096149  -0.091576  0  4.025047  0
C  C77  1  0.54773304  0.24820472  0.84382361  1  0  -0.082225  0  3.792371  0  0  -0.093255  0  4.039645  0  0  -0.09573  0  4.061614  0  0  -0.096132  -0.091513  0  4.024756  0
C  C78  1  0.95226678  0.74820696  0.84382927  1  0  -0.082194  0  3.792322  0  0  -0.093223  0  4.039549  0  0  -0.095692  0  4.061497  0  0  -0.096119  -0.091493  0  4.024655  0
C  C79  1  0.45226594  0.75179354  0.15617535  1  0  -0.082234  0  3.792313  0  0  -0.093294  0  4.039552  0  0  -0.095767  0  4.061514  0  0  -0.096152  -0.091559  0  4.024654  0
C  C80  1  0.03531842  0.26731920  0.06169031  1  0  -0.099322  0  3.712835  0  0  -0.11669  0  3.950963  0  0  -0.119161  0  3.972959  0  0  -0.084758  -0.115076  0  3.936022  0
C  C81  1  0.53531777  0.23267494  0.93830903  1  0  -0.099366  0  3.712901  0  0  -0.116695  0  3.95102  0  0  -0.119175  0  3.973008  0  0  -0.084785  -0.115074  0  3.936077  0
C  C82  1  0.96467527  0.73268041  0.93831428  1  0  -0.099486  0  3.712897  0  0  -0.1169  0  3.951099  0  0  -0.11933  0  3.973112  0  0  -0.08486  -0.115282  0  3.936157  0
C  C83  1  0.46468121  0.76731901  0.06168761  1  0  -0.099411  0  3.712936  0  0  -0.116761  0  3.95107  0  0  -0.119231  0  3.973064  0  0  -0.084798  -0.11514  0  3.936129  0
N  N84  1  0.10722982  0.35317717  0.50932612  1  0  -0.2682  0  3.250407  0  0  -0.195231  0  3.549578  0  0  -0.211609  0  3.561997  0  0  -0.256055  -0.184395  0  3.54088  0
N  N85  1  0.60722623  0.14681975  0.49067399  1  0  -0.268242  0  3.250603  0  0  -0.195271  0  3.549744  0  0  -0.211649  0  3.562166  0  0  -0.256138  -0.184441  0  3.541054  0
N  N86  1  0.89277446  0.64682004  0.49067279  1  0  -0.268455  0  3.250527  0  0  -0.195507  0  3.549714  0  0  -0.211885  0  3.562131  0  0  -0.256241  -0.184675  0  3.54102  0
N  N87  1  0.39277487  0.85317956  0.50932503  1  0  -0.268327  0  3.250423  0  0  -0.195337  0  3.549562  0  0  -0.211717  0  3.561987  0  0  -0.256143  -0.184499  0  3.540868  0
N  N88  1  0.14466506  0.42329952  0.43536266  1  0  -0.272778  0  3.220775  0  0  -0.202281  0  3.517375  0  0  -0.218508  0  3.530408  0  0  -0.253201  -0.191308  0  3.508439  0
N  N89  1  0.64466974  0.07670085  0.56463726  1  0  -0.272936  0  3.221111  0  0  -0.202401  0  3.517658  0  0  -0.218629  0  3.53069  0  0  -0.253275  -0.191434  0  3.508739  0
N  N90  1  0.85534027  0.57670207  0.56463996  1  0  -0.272742  0  3.220641  0  0  -0.202199  0  3.517201  0  0  -0.21843  0  3.530241  0  0  -0.25315  -0.191224  0  3.508259  0
N  N91  1  0.35533136  0.92329834  0.43535967  1  0  -0.272866  0  3.220985  0  0  -0.202338  0  3.517528  0  0  -0.218565  0  3.530556  0  0  -0.253228  -0.191371  0  3.508604  0
N  N92  1  0.29028456  0.24330938  0.43870595  1  0  -0.417203  0  3.280598  0  0  -0.332962  0  3.583967  0  0  -0.355517  0  3.59396  0  0  -0.357672  -0.317615  0  3.57666  0
N  N93  1  0.79028957  0.25669109  0.56129103  1  0  -0.417163  0  3.280646  0  0  -0.332921  0  3.584031  0  0  -0.355476  0  3.594027  0  0  -0.357618  -0.317574  0  3.576718  0
N  N94  1  0.70972395  0.75669544  0.56129824  1  0  -0.417309  0  3.280691  0  0  -0.333073  0  3.584079  0  0  -0.35563  0  3.594073  0  0  -0.357674  -0.317725  0  3.576776  0
N  N95  1  0.20971047  0.74331043  0.43871019  1  0  -0.417185  0  3.28061  0  0  -0.332937  0  3.583983  0  0  -0.355492  0  3.593981  0  0  -0.35761  -0.317586  0  3.576668  0
O  O96  1  0.98186153  0.42359479  0.73126961  1  0  -0.652798  0  2.011143  0  0  -0.573725  0  2.275731  0  0  -0.602851  0  2.260603  0  0  -0.345817  -0.553276  0  2.285329  0
O  O97  1  0.48184661  0.07642428  0.26873071  1  0  -0.652757  0  2.011277  0  0  -0.573741  0  2.275841  0  0  -0.602872  0  2.260719  0  0  -0.345833  -0.553297  0  2.285446  0
O  O98  1  0.01815333  0.57641201  0.26873260  1  0  -0.652759  0  2.01119  0  0  -0.573693  0  2.275801  0  0  -0.602825  0  2.260675  0  0  -0.34577  -0.553246  0  2.285401  0
O  O99  1  0.51815660  0.92357926  0.73126924  1  0  -0.652738  0  2.011178  0  0  -0.573692  0  2.275745  0  0  -0.60282  0  2.260616  0  0  -0.345803  -0.553249  0  2.285346  0
O  O100  1  0.04986561  0.19860569  0.69561673  1  0  -0.650154  0  1.876912  0  0  -0.603701  0  2.086626  0  0  -0.626517  0  2.07581  0  0  -0.344475  -0.587753  0  2.09386  0
O  O101  1  0.54986076  0.30140169  0.30437374  1  0  -0.650174  0  1.876825  0  0  -0.603789  0  2.086515  0  0  -0.626605  0  2.0757  0  0  -0.344567  -0.587835  0  2.093736  0
O  O102  1  0.95013867  0.80139676  0.30438246  1  0  -0.650047  0  1.877059  0  0  -0.6036  0  2.086774  0  0  -0.626417  0  2.075961  0  0  -0.344436  -0.587649  0  2.093998  0
O  O103  1  0.45012976  0.69860263  0.69562139  1  0  -0.650166  0  1.876719  0  0  -0.603753  0  2.086422  0  0  -0.626575  0  2.075612  0  0  -0.344562  -0.587803  0  2.093647  0
