# generated using pymatgen
data_CoH19C25N3O4
_symmetry_space_group_name_H-M   'P 1'
_cell_length_a   9.99947395
_cell_length_b   11.29959164
_cell_length_c   26.26828929
_cell_angle_alpha   83.76952840
_cell_angle_beta   75.74891113
_cell_angle_gamma   63.74624251
_symmetry_Int_Tables_number   1
_chemical_formula_structural   CoH19C25N3O4
_chemical_formula_sum   'Co4 H76 C100 N12 O16'
_cell_volume   2579.96367802
_cell_formula_units_Z   4
loop_
 _symmetry_equiv_pos_site_id
 _symmetry_equiv_pos_as_xyz
  1  'x, y, z'
loop_
 _atom_site_type_symbol
 _atom_site_label
 _atom_site_symmetry_multiplicity
 _atom_site_fract_x
 _atom_site_fract_y
 _atom_site_fract_z
 _atom_site_occupancy
 _atom_site_pbe_bader_charge
 _atom_site_pbe_bader_spin_density
 _atom_site_pbe_cm5_charge
 _atom_site_pbe_ddec_charge
 _atom_site_pbe_ddec_spin_density
 _atom_site_pbe_ddec_sum_bond_order
 _atom_site_pbe_magmom
Co  Co0  1  0.64922226  0.32463076  0.07749538  1  1.113266  -0.973729  0.668772  0.585456  -1.06726  2.967782  -0.964
Co  Co1  1  0.22393687  0.17558811  0.57739501  1  1.113818  -0.973548  0.669447  0.585186  -1.066946  2.968827  -0.964
Co  Co2  1  0.03633500  0.67947659  0.92390407  1  1.231031  -2.582456  0.658161  0.74143  -2.841985  2.49019  -2.557
Co  Co3  1  0.96537545  0.82022478  0.42384850  1  1.227661  -2.582249  0.659065  0.742323  -2.841198  2.49108  -2.556
H  H4  1  0.52838164  0.97226290  0.07307502  1  0.072862  -0.000367  0.099962  0.098851  -0.000178  1.044867  0.0
H  H5  1  0.11248827  0.32451874  0.07808836  1  0.122651  -0.000447  0.105375  0.112269  -0.000241  1.036152  0.0
H  H6  1  0.10897653  0.95007076  0.06900328  1  0.060891  -0.000152  0.102681  0.1019  -6.6e-05  1.038845  0.0
H  H7  1  0.69696687  0.52899799  0.10885106  1  0.125373  -0.000363  0.120098  0.102311  0.000105  1.012988  -0.001
H  H8  1  0.58619292  0.77256920  0.10811307  1  0.056214  -0.000246  0.104535  0.111241  -0.000127  1.018648  0.0
H  H9  1  0.25316260  0.76923404  0.03036229  1  0.087956  5.5e-05  0.108019  0.119705  8.2e-05  1.012802  0.0
H  H10  1  0.37389925  0.52603761  0.03670724  1  0.17392  -0.000376  0.122272  0.108517  0.000106  1.02512  0.0
H  H11  1  0.79407043  0.17398160  0.82284653  1  0.04016  0.00037  0.098398  0.099138  0.00026  0.973671  0.0
H  H12  1  0.81820590  0.32153423  0.81429054  1  0.013379  5.7e-05  0.094951  0.093667  1.2e-05  0.978001  0.0
H  H13  1  0.73044574  0.11072247  0.01285856  1  0.139871  0.000304  0.122925  0.100466  0.000358  1.035805  0.0
H  H14  1  0.81742296  0.05542488  0.91755116  1  0.114649  -8e-06  0.111923  0.138158  3.8e-05  1.008885  0.0
H  H15  1  0.75857846  0.45883616  0.88853922  1  0.09346  -1.1e-05  0.107395  0.119588  -3e-05  1.009367  0.0
H  H16  1  0.68337048  0.49371257  0.98327164  1  0.13131  0.000137  0.123079  0.097406  0.000225  1.023025  0.0
H  H17  1  0.05351391  0.04452878  0.83657108  1  0.071822  0.000332  0.102587  0.115343  0.000246  0.982555  0.0
H  H18  1  0.07927395  0.18819541  0.84037372  1  0.031211  3.9e-05  0.094933  0.097631  1.6e-05  0.988706  0.0
H  H19  1  0.05665144  0.05636679  0.64638782  1  0.154408  0.000371  0.121731  0.098354  0.000515  1.033868  0.0
H  H20  1  0.97515246  0.03164945  0.74305767  1  0.06516  0.000113  0.10858  0.115792  3.2e-05  0.995378  0.0
H  H21  1  0.21021241  0.25820895  0.76398933  1  0.069356  0.000166  0.106924  0.114845  8.9e-05  1.003471  0.0
H  H22  1  0.28798844  0.26807052  0.66703863  1  0.117427  0.000361  0.121616  0.092816  0.000461  1.015638  0.0
H  H23  1  0.75075048  0.52812609  0.57295980  1  0.059548  -0.000368  0.099663  0.098288  -0.000176  1.045253  0.0
H  H24  1  0.68687334  0.17585917  0.57824965  1  0.123897  -0.000445  0.105357  0.112306  -0.00024  1.035298  0.0
H  H25  1  0.30914048  0.55029173  0.56894816  1  0.115484  -0.000152  0.10287  0.102392  -6.6e-05  1.038398  0.0
H  H26  1  0.47634238  0.97150693  0.60859930  1  0.134079  -0.000366  0.12038  0.10217  0.000108  1.014045  -0.001
H  H27  1  0.60909669  0.72790964  0.60787702  1  0.065421  -0.000246  0.103942  0.110914  -0.000128  1.017604  0.0
H  H28  1  0.27276951  0.73099942  0.53017433  1  0.082678  5.5e-05  0.108154  0.119082  8.2e-05  1.013593  0.0
H  H29  1  0.15016536  0.97426205  0.53661612  1  0.169637  -0.000375  0.122996  0.108951  0.000107  1.024842  0.0
H  H30  1  0.21738116  0.32647784  0.32284523  1  0.027494  0.000369  0.098731  0.099429  0.000258  0.973743  0.0
H  H31  1  0.38866944  0.17863570  0.31415239  1  0.018946  5.7e-05  0.095148  0.094041  1.3e-05  0.977697  0.0
H  H32  1  0.09112117  0.38941951  0.51283382  1  0.161713  0.000284  0.122565  0.099315  0.00036  1.037176  0.0
H  H33  1  0.12229192  0.44457275  0.41754527  1  0.124542  -5e-06  0.11205  0.138274  3.7e-05  1.00972  0.0
H  H34  1  0.46667992  0.04114398  0.38836461  1  0.086383  -1.2e-05  0.107875  0.119859  -3.1e-05  1.007986  0.0
H  H35  1  0.42682546  0.00637939  0.48309906  1  0.124997  0.000136  0.122846  0.096929  0.000222  1.022704  0.0
H  H36  1  0.34810121  0.45510084  0.33676340  1  0.082604  0.000331  0.102591  0.115333  0.000249  0.982891  0.0
H  H37  1  0.51720292  0.31106665  0.34048152  1  0.04084  3.7e-05  0.09452  0.097  1.6e-05  0.988884  0.0
H  H38  1  0.36257687  0.44381463  0.14659422  1  0.175604  0.000351  0.121431  0.097249  0.000519  1.032511  0.0
H  H39  1  0.25656089  0.46803561  0.24328587  1  0.095182  0.000117  0.108439  0.115316  3.2e-05  0.99583  0.0
H  H40  1  0.71832534  0.24188989  0.26402355  1  0.084397  0.000166  0.107231  0.114906  8.8e-05  1.003397  0.0
H  H41  1  0.80578737  0.23232668  0.16705167  1  0.151502  0.000326  0.121345  0.09215  0.000463  1.015877  0.0
H  H42  1  0.57480467  0.02705315  0.92710975  1  0.069823  -0.000567  0.10255  0.102701  -0.00029  1.036957  0.0
H  H43  1  0.53452121  0.66560876  0.92284626  1  0.070069  -0.000563  0.104016  0.107757  -0.000295  1.033291  0.0
H  H44  1  0.14061689  0.03487515  0.92341840  1  0.07582  -0.000592  0.102921  0.103175  -0.000338  1.041568  0.0
H  H45  1  0.35273563  0.46360180  0.89018235  1  0.120883  -0.001488  0.117833  0.098124  -0.000271  1.008511  -0.001
H  H46  1  0.48330505  0.21821374  0.88669759  1  0.070582  -0.000917  0.103739  0.109692  -0.000417  1.017718  0.0
H  H47  1  0.05059155  0.21927994  0.96801109  1  0.092384  -0.000929  0.106866  0.116331  -0.000351  1.018025  0.0
H  H48  1  0.94050939  0.46340177  0.96882177  1  0.161083  -0.001844  0.119763  0.100571  -0.000556  1.028199  -0.001
H  H49  1  0.77706877  0.84008970  0.18790523  1  0.035441  0.000191  0.098016  0.098673  0.000135  0.973745  0.0
H  H50  1  0.93777341  0.68788295  0.19117389  1  0.029  -2.5e-05  0.095143  0.093454  -1.5e-05  0.977545  0.0
H  H51  1  0.82548887  0.90039642  0.99806015  1  0.086231  -0.001365  0.117355  0.090124  -0.000296  1.026341  -0.001
H  H52  1  0.77022731  0.95594828  0.09278663  1  0.12187  -0.000882  0.110406  0.134286  -0.000419  1.009567  0.0
H  H53  1  0.08179944  0.54888187  0.11493981  1  0.100719  -0.000891  0.10713  0.124394  -0.000434  1.01365  0.0
H  H54  1  0.12837830  0.51532921  0.02064061  1  0.107012  -0.001659  0.119168  0.091697  -0.00039  1.018939  -0.001
H  H55  1  0.93946855  0.95739566  0.16042340  1  0.058255  0.000414  0.100144  0.110064  0.000314  0.987188  0.0
H  H56  1  0.10839499  0.80755387  0.15324104  1  0.042555  -6e-06  0.094479  0.097787  -1e-05  0.994764  0.0
H  H57  1  0.75831847  0.97582624  0.35302920  1  0.118965  -0.001545  0.114034  0.084239  -0.000268  1.028442  -0.001
H  H58  1  0.75231059  0.99514420  0.25796218  1  0.069267  -0.000939  0.103555  0.108679  -0.000461  1.009657  0.0
H  H59  1  0.23220284  0.72632293  0.22537696  1  0.057096  -0.000899  0.104106  0.111344  -0.000427  1.009586  0.0
H  H60  1  0.21666004  0.71680857  0.32219988  1  0.125508  -0.00133  0.116195  0.088449  -0.000176  1.010322  -0.001
H  H61  1  0.85144275  0.47235665  0.42689537  1  0.052057  -0.000557  0.102581  0.103092  -0.000293  1.036322  0.0
H  H62  1  0.45006947  0.83408442  0.42273615  1  0.073952  -0.000563  0.103713  0.107284  -0.000297  1.03305  0.0
H  H63  1  0.42483410  0.46502961  0.42321922  1  0.108055  -0.0006  0.102739  0.102757  -0.000339  1.041042  0.0
H  H64  1  0.06558912  0.03609310  0.38999254  1  0.119624  -0.001495  0.117895  0.097834  -0.000272  1.011  -0.001
H  H65  1  0.95064499  0.28148415  0.38632672  1  0.07572  -0.000913  0.103795  0.109804  -0.000417  1.017544  0.0
H  H66  1  0.51917443  0.28051382  0.46795739  1  0.096872  -0.00093  0.106791  0.116006  -0.000352  1.018345  0.0
H  H67  1  0.65333465  0.03636886  0.46888866  1  0.16468  -0.001843  0.119892  0.100629  -0.000554  1.02853  -0.001
H  H68  1  0.86862319  0.65957616  0.68763042  1  0.018252  0.000195  0.097808  0.098489  0.000136  0.972074  0.0
H  H69  1  0.87663603  0.81204181  0.69098198  1  0.031947  -2.3e-05  0.095496  0.094057  -1.3e-05  0.976474  0.0
H  H70  1  0.97609779  0.59931662  0.49793427  1  0.0799  -0.001369  0.117328  0.089995  -0.000298  1.026211  -0.001
H  H71  1  0.97690862  0.54389565  0.59263431  1  0.121  -0.000887  0.110322  0.13444  -0.000419  1.010097  0.0
H  H72  1  0.88238492  0.95086976  0.61463804  1  0.08966  -0.000897  0.106852  0.124659  -0.000434  1.013755  0.0
H  H73  1  0.89484959  0.98423855  0.52038260  1  0.111946  -0.001675  0.119043  0.091619  -0.000395  1.017763  -0.001
H  H74  1  0.14834703  0.54285724  0.66012646  1  0.052557  0.00041  0.099879  0.109697  0.00031  0.98775  0.0
H  H75  1  0.16696718  0.69286359  0.65310356  1  0.024983  -5e-06  0.094511  0.098148  -1e-05  0.994451  0.0
H  H76  1  0.98488440  0.52415529  0.85273958  1  0.10898  -0.001533  0.113621  0.084467  -0.000269  1.027189  -0.001
H  H77  1  0.99799420  0.50533221  0.75765169  1  0.057887  -0.000943  0.103636  0.109029  -0.000457  1.010921  0.0
H  H78  1  0.20984702  0.77357419  0.72531483  1  0.035924  -0.000911  0.104179  0.111735  -0.000425  1.009589  0.0
H  H79  1  0.18465233  0.78295273  0.82216074  1  0.105683  -0.001317  0.115822  0.087831  -0.000176  1.009084  -0.001
C  C80  1  0.32962225  0.94172908  0.07062962  1  0.02481  -0.001322  -0.011564  0.053499  -0.000297  3.998786  -0.002
C  C81  1  0.40652694  0.01888657  0.07352631  1  -0.063745  0.004363  -0.077392  -0.126262  0.004508  3.895011  0.003
C  C82  1  0.32868435  0.15685912  0.07618330  1  0.004414  -0.00489  -0.019437  -0.023837  -0.002529  3.968892  -0.004
C  C83  1  0.17334302  0.21757084  0.07608538  1  0.022191  0.00325  -0.078648  -0.102385  0.003499  3.944387  0.002
C  C84  1  0.09548033  0.14293798  0.07353254  1  -0.034211  -0.000875  -0.02513  -0.039294  -0.000229  4.049872  0.0
C  C85  1  0.17317132  0.00584050  0.07046772  1  -0.050707  0.003148  -0.07975  -0.134068  0.003308  3.935718  0.002
C  C86  1  0.59631305  0.58690471  0.09285483  1  0.516529  0.007247  0.036343  0.071165  0.00706  3.935662  0.004
C  C87  1  0.53426757  0.72343627  0.09151166  1  -0.088504  -0.003165  -0.089194  -0.173211  -0.001187  3.961049  -0.003
C  C88  1  0.40563895  0.79619357  0.06988086  1  -0.069835  0.012145  0.00662  0.104061  0.012401  3.98582  0.008
C  C89  1  0.34962203  0.72181649  0.04923108  1  -0.06633  -0.002351  -0.085895  -0.175432  -0.000741  3.949815  -0.002
C  C90  1  0.41733503  0.58507960  0.05158661  1  0.473577  0.009436  0.043629  0.075271  0.010199  3.92868  0.006
C  C91  1  0.40074960  0.24824995  0.07928865  1  1.584063  0.001693  0.195664  0.552334  0.002315  4.247455  0.002
C  C92  1  0.92935387  0.21398681  0.07499669  1  1.50332  0.001697  0.187843  0.518457  0.00278  4.233907  0.003
C  C93  1  0.84905279  0.22740829  0.83578921  1  0.009251  0.00075  -0.151281  -0.18638  0.001022  3.942174  0.0
C  C94  1  0.73880504  0.18372717  0.98339596  1  0.401428  0.009283  0.042517  0.085306  0.009707  3.901947  0.006
C  C95  1  0.78495092  0.15545594  0.93007612  1  -0.007021  -0.001734  -0.086633  -0.191269  -0.000354  3.93317  -0.001
C  C96  1  0.79232903  0.25415582  0.89374060  1  -0.048541  0.011568  0.002831  0.149423  0.011742  3.974744  0.007
C  C97  1  0.75296887  0.37749922  0.91400742  1  -0.016213  -0.001891  -0.088168  -0.190965  -0.000426  3.961136  -0.002
C  C98  1  0.70922691  0.39878427  0.96784995  1  0.443971  0.009115  0.047802  0.088498  0.009411  3.915134  0.006
C  C99  1  0.02503005  0.14530829  0.82101376  1  -0.011459  0.000729  -0.153102  -0.197098  0.001023  3.913918  0.0
C  C100  1  0.09097333  0.09620913  0.67425669  1  0.422444  0.008271  0.042732  0.076989  0.008591  3.91925  0.005
C  C101  1  0.04447912  0.08544339  0.72814440  1  -0.039766  -0.001593  -0.088856  -0.188935  -0.000379  3.96331  -0.001
C  C102  1  0.08430290  0.14451283  0.76263935  1  -0.001781  0.011437  0.005976  0.158475  0.01162  3.971658  0.007
C  C103  1  0.17453594  0.21023714  0.73959106  1  -0.014968  -0.001662  -0.091232  -0.20051  -0.000275  3.982829  -0.002
C  C104  1  0.21898018  0.21632402  0.68524547  1  0.41218  0.009695  0.045755  0.08719  0.010146  3.92795  0.006
C  C105  1  0.52145116  0.55865329  0.57059607  1  0.064469  -0.001343  -0.011856  0.052342  -0.000297  4.000245  -0.002
C  C106  1  0.67547761  0.48147910  0.57351089  1  -0.09363  0.004377  -0.077967  -0.126059  0.004516  3.895198  0.003
C  C107  1  0.73548363  0.34352621  0.57626563  1  0.026965  -0.004857  -0.019322  -0.023904  -0.002522  3.969613  -0.004
C  C108  1  0.64078821  0.28282451  0.57623101  1  -0.009185  0.003258  -0.077623  -0.101079  0.003514  3.943137  0.002
C  C109  1  0.48834575  0.35746188  0.57362391  1  -0.022753  -0.000871  -0.02594  -0.039794  -0.000235  4.047264  0.0
C  C110  1  0.42903232  0.49456496  0.57049483  1  -0.091946  0.003145  -0.079263  -0.133787  0.003308  3.934295  0.002
C  C111  1  0.43353626  0.91353014  0.59265429  1  0.417334  0.007281  0.036704  0.072951  0.0071  3.933881  0.004
C  C112  1  0.50801144  0.77699293  0.59130042  1  -0.008812  -0.003168  -0.089141  -0.174427  -0.00119  3.959617  -0.003
C  C113  1  0.45207735  0.70416858  0.56972275  1  -0.067997  0.012199  0.006874  0.105165  0.012445  3.987221  0.008
C  C114  1  0.32172046  0.77847561  0.54906825  1  0.037053  -0.002411  -0.086194  -0.174504  -0.000743  3.950499  -0.002
C  C115  1  0.25269041  0.91521701  0.55144165  1  0.367782  0.009515  0.042767  0.073859  0.010225  3.931669  0.006
C  C116  1  0.89893892  0.25217418  0.57933231  1  1.566176  0.001664  0.19482  0.550337  0.002304  4.249738  0.002
C  C117  1  0.39325798  0.28640930  0.57501937  1  1.475964  0.001805  0.187494  0.51736  0.002785  4.234393  0.003
C  C118  1  0.32574417  0.27266417  0.33574453  1  0.01529  0.000749  -0.151301  -0.186561  0.001023  3.943866  0.0
C  C119  1  0.17229762  0.31639010  0.48333985  1  0.38758  0.009321  0.043718  0.087947  0.009723  3.901014  0.006
C  C120  1  0.18993581  0.34457749  0.43002771  1  -0.015338  -0.001741  -0.087063  -0.19127  -0.000355  3.934092  -0.001
C  C121  1  0.29581773  0.24582753  0.39365940  1  -0.047965  0.011603  0.002196  0.14774  0.011777  3.978465  0.007
C  C122  1  0.37987989  0.12251038  0.41388902  1  -0.020199  -0.001892  -0.088163  -0.190305  -0.000431  3.960666  -0.002
C  C123  1  0.35765230  0.10132935  0.46773019  1  0.452122  0.00912  0.047482  0.08891  0.009432  3.91565  0.006
C  C124  1  0.42012202  0.35434520  0.32110678  1  -0.039865  0.000744  -0.152723  -0.195825  0.001027  3.914065  0.0
C  C125  1  0.43686998  0.40388266  0.17440381  1  0.433669  0.008289  0.042836  0.078628  0.008625  3.915922  0.005
C  C126  1  0.37968588  0.41444124  0.22829026  1  -0.119452  -0.001554  -0.088451  -0.188167  -0.000379  3.96545  -0.001
C  C127  1  0.47864315  0.35541082  0.26274546  1  0.023576  0.011484  0.005748  0.156833  0.011684  3.972829  0.007
C  C128  1  0.63461512  0.28984301  0.23966355  1  -0.061439  -0.001625  -0.091428  -0.199896  -0.000276  3.981162  -0.002
C  C129  1  0.68506659  0.28395235  0.18531650  1  0.437751  0.00969  0.045757  0.087871  0.01018  3.925568  0.006
C  C130  1  0.34855533  0.05043533  0.92525184  1  0.027682  -0.001964  -0.012313  0.054796  -0.000555  4.021788  -0.002
C  C131  1  0.50419656  0.97761706  0.92512174  1  -0.116978  0.005465  -0.076733  -0.125351  0.005712  3.914685  0.003
C  C132  1  0.57222183  0.83969804  0.92400134  1  0.011445  -0.005008  -0.019746  -0.02535  -0.0025  3.983322  -0.004
C  C133  1  0.48357574  0.77300232  0.92304234  1  0.050492  0.004962  -0.075168  -0.103687  0.005281  3.919671  0.003
C  C134  1  0.32827239  0.84439309  0.92255536  1  0.020665  -0.00478  -0.021421  -0.031979  -0.00254  4.004383  -0.004
C  C135  1  0.26160827  0.98220871  0.92390360  1  -0.108903  0.005003  -0.078938  -0.133115  0.005253  3.927594  0.003
C  C136  1  0.29058932  0.40470026  0.90644262  1  0.383955  0.008558  0.042046  0.092323  0.009232  3.945157  0.005
C  C137  1  0.36204896  0.26798819  0.90509348  1  0.057699  -0.006593  -0.09041  -0.182713  -0.003014  3.961367  -0.005
C  C138  1  0.27773048  0.19553331  0.92653645  1  -0.108511  0.014418  0.008567  0.108666  0.01482  3.995988  0.009
C  C139  1  0.12250916  0.26834328  0.94943768  1  -0.047781  -0.006856  -0.086116  -0.173362  -0.003138  3.950675  -0.006
C  C140  1  0.05959765  0.40496679  0.95029952  1  0.527659  0.007971  0.043672  0.085615  0.008088  3.943295  0.004
C  C141  1  0.73918876  0.76577657  0.92402522  1  1.565622  0.003991  0.193497  0.54758  0.004805  4.225783  0.005
C  C142  1  0.23105264  0.77573680  0.92118066  1  1.542606  0.005347  0.19003  0.531524  0.006717  4.235088  0.006
C  C143  1  0.89856123  0.78203805  0.16981142  1  -0.007219  0.000873  -0.151521  -0.184245  0.001127  3.945107  0.0
C  C144  1  0.87885852  0.82658158  0.02598205  1  0.437902  0.007125  0.04086  0.092328  0.007511  3.943497  0.005
C  C145  1  0.84747836  0.85552258  0.07893313  1  0.00481  -0.005075  -0.09054  -0.197939  -0.002446  3.943074  -0.004
C  C146  1  0.91924327  0.75576060  0.11297649  1  -0.08951  0.010319  0.002379  0.148598  0.010538  3.977496  0.007
C  C147  1  0.01968236  0.63125277  0.09134955  1  0.003274  -0.004693  -0.088036  -0.186882  -0.002218  3.940307  -0.004
C  C148  1  0.04647632  0.61098032  0.03784543  1  0.482236  0.007332  0.048747  0.108808  0.007711  3.929175  0.005
C  C149  1  0.99063559  0.85713196  0.17646761  1  -0.008215  0.000659  -0.154681  -0.197885  0.00102  3.918873  0.0
C  C150  1  0.86105324  0.92306807  0.32320539  1  0.498352  0.00888  0.038818  0.088824  0.009273  3.966794  0.006
C  C151  1  0.85877889  0.93264613  0.27026500  1  -0.125743  -0.004991  -0.093238  -0.196445  -0.002317  3.970924  -0.004
C  C152  1  0.99233163  0.86035688  0.23321522  1  -0.032076  0.013922  0.006455  0.163305  0.014237  3.971848  0.009
C  C153  1  0.12412556  0.78357606  0.25230685  1  -0.00782  -0.005447  -0.093672  -0.203003  -0.002471  3.973413  -0.004
C  C154  1  0.11699897  0.77841482  0.30604661  1  0.478417  0.010009  0.044418  0.099384  0.010444  3.956413  0.006
C  C155  1  0.64841884  0.44925852  0.42505331  1  -0.051396  -0.00195  -0.011687  0.056303  -0.000557  4.018545  -0.002
C  C156  1  0.73141512  0.52194422  0.42492419  1  0.006327  0.005414  -0.077723  -0.126918  0.005682  3.914494  0.003
C  C157  1  0.66172105  0.65986487  0.42383647  1  -0.020731  -0.004979  -0.020157  -0.027446  -0.002498  3.985869  -0.004
C  C158  1  0.50639335  0.72668646  0.42289711  1  0.00144  0.004927  -0.074906  -0.102186  0.005261  3.920259  0.003
C  C159  1  0.42234430  0.65541246  0.42237514  1  -0.070654  -0.004778  -0.020559  -0.031425  -0.002544  4.004325  -0.004
C  C160  1  0.49328773  0.51759466  0.42371337  1  0.039379  0.004981  -0.078819  -0.13224  0.005229  3.922384  0.003
C  C161  1  0.94457233  0.09502606  0.40629560  1  0.381547  0.008503  0.041337  0.093319  0.009177  3.951539  0.005
C  C162  1  0.87926745  0.23171425  0.40484388  1  0.118029  -0.00658  -0.089876  -0.182681  -0.003013  3.963005  -0.005
C  C163  1  0.72253661  0.30418192  0.42636323  1  -0.124349  0.014356  0.008342  0.107511  0.014751  3.996325  0.009
C  C164  1  0.64015258  0.23142310  0.44936342  1  -0.026521  -0.00683  -0.086077  -0.172587  -0.003139  3.951338  -0.006
C  C165  1  0.71393808  0.09479732  0.45030682  1  0.45949  0.007881  0.0442  0.086947  0.008065  3.944349  0.004
C  C166  1  0.75501668  0.73350561  0.42397245  1  1.557008  0.004005  0.193977  0.548325  0.004854  4.227998  0.005
C  C167  1  0.25650253  0.72415052  0.42098960  1  1.526931  0.005259  0.189088  0.530297  0.006679  4.238757  0.006
C  C168  1  0.93187209  0.71785014  0.66957349  1  0.003672  0.000859  -0.152169  -0.185632  0.001114  3.943286  0.0
C  C169  1  0.95594293  0.67313642  0.52582451  1  0.452805  0.007201  0.040342  0.092006  0.007588  3.943988  0.005
C  C170  1  0.95387567  0.64424618  0.57873948  1  -0.002632  -0.005079  -0.089431  -0.196776  -0.002455  3.942958  -0.004
C  C171  1  0.92623835  0.74407629  0.61272596  1  0.02749  0.01037  0.002054  0.148931  0.010624  3.975844  0.007
C  C172  1  0.90233659  0.86851644  0.59108889  1  -0.088393  -0.004662  -0.08795  -0.188342  -0.002223  3.940904  -0.004
C  C173  1  0.90850019  0.88869803  0.53762482  1  0.475733  0.007377  0.048019  0.107914  0.007774  3.929821  0.005
C  C174  1  0.09900486  0.64306588  0.67624604  1  0.022653  0.000659  -0.154998  -0.198553  0.001021  3.919344  0.0
C  C175  1  0.03488350  0.57701219  0.82296925  1  0.48961  0.008722  0.039474  0.088948  0.009118  3.964814  0.006
C  C176  1  0.04219233  0.56762038  0.76999803  1  -0.107281  -0.00495  -0.09329  -0.197483  -0.002303  3.9718  -0.004
C  C177  1  0.10366927  0.63982343  0.73300352  1  -0.024161  0.013704  0.006789  0.165094  0.014014  3.968553  0.009
C  C178  1  0.15881969  0.71637359  0.75218824  1  -0.001776  -0.005373  -0.093371  -0.203929  -0.002454  3.970748  -0.004
C  C179  1  0.14644873  0.72144922  0.80596209  1  0.506604  0.009855  0.045013  0.100852  0.010318  3.950331  0.006
N  N180  1  0.53895561  0.51670553  0.07366185  1  -1.200786  -0.003607  -0.340273  -0.211641  -0.001122  3.676504  -0.004
N  N181  1  0.70052425  0.30391187  0.00273914  1  -1.176747  0.015006  -0.339654  -0.177314  0.014219  3.634108  0.01
N  N182  1  0.17737747  0.16130924  0.65246564  1  -1.169492  0.015087  -0.337531  -0.171739  0.014266  3.652828  0.01
N  N183  1  0.30593628  0.98363239  0.57350737  1  -1.198324  -0.003634  -0.340509  -0.211913  -0.0011  3.68092  -0.004
N  N184  1  0.25426763  0.19625872  0.50266232  1  -1.186223  0.014974  -0.339933  -0.178854  0.014205  3.63633  0.01
N  N185  1  0.58839512  0.33892314  0.15257125  1  -1.192112  0.015139  -0.33757  -0.172615  0.014296  3.648576  0.01
N  N186  1  0.14081554  0.47353619  0.92847536  1  -1.231747  -0.071432  -0.330633  -0.244032  -0.039442  3.598991  -0.057
N  N187  1  0.97737254  0.70660064  0.00513210  1  -1.213746  -0.050743  -0.331088  -0.246653  -0.027483  3.596354  -0.047
N  N188  1  0.98736323  0.84557009  0.34148358  1  -1.223833  -0.04576  -0.324045  -0.239285  -0.024103  3.586968  -0.045
N  N189  1  0.86371917  0.02623582  0.42846472  1  -1.241466  -0.071389  -0.330587  -0.246509  -0.039534  3.604993  -0.057
N  N190  1  0.93452610  0.79306547  0.50498728  1  -1.229206  -0.050633  -0.330553  -0.245225  -0.027461  3.598267  -0.046
N  N191  1  0.08391347  0.65425328  0.84135841  1  -1.213088  -0.045695  -0.32384  -0.240151  -0.024118  3.580606  -0.045
O  O192  1  0.54060756  0.19537779  0.08350387  1  -1.145069  -0.055549  -0.314326  -0.539654  -0.028993  2.313204  -0.048
O  O193  1  0.31793936  0.37032929  0.07782941  1  -1.188737  0.000824  -0.325203  -0.576346  0.001223  2.215398  0.0
O  O194  1  0.84774080  0.14985581  0.08037223  1  -1.11942  -0.016131  -0.302576  -0.50563  -0.008431  2.261276  -0.014
O  O195  1  0.86867326  0.33927779  0.07206416  1  -1.156795  -0.067561  -0.306553  -0.527806  -0.035179  2.234266  -0.059
O  O196  1  0.98596586  0.30502369  0.58353892  1  -1.143606  -0.055361  -0.313971  -0.538664  -0.028935  2.31331  -0.048
O  O197  1  0.93827063  0.13008555  0.57781560  1  -1.184514  0.000811  -0.324606  -0.574908  0.00121  2.215801  0.0
O  O198  1  0.24755283  0.35051433  0.58034235  1  -1.132022  -0.016164  -0.302825  -0.50516  -0.008413  2.258566  -0.014
O  O199  1  0.45785924  0.16111823  0.57200207  1  -1.112292  -0.067921  -0.305888  -0.527376  -0.03517  2.237341  -0.059
O  O200  1  0.81793459  0.83212163  0.91836352  1  -1.140826  -0.087079  -0.315247  -0.534075  -0.045599  2.280991  -0.074
O  O201  1  0.79896052  0.64149638  0.92937208  1  -1.166126  -0.049707  -0.312703  -0.563614  -0.025331  2.201647  -0.042
O  O202  1  0.09802312  0.84338974  0.91145578  1  -1.143333  -0.089027  -0.312679  -0.531956  -0.046407  2.245981  -0.077
O  O203  1  0.27897082  0.65262913  0.92998414  1  -1.164267  -0.076199  -0.308881  -0.537062  -0.039131  2.192254  -0.067
O  O204  1  0.90006251  0.66698564  0.41832941  1  -1.154421  -0.086949  -0.314474  -0.533206  -0.045567  2.281073  -0.074
O  O205  1  0.69076836  0.85779741  0.42939087  1  -1.156389  -0.050456  -0.313373  -0.564096  -0.025694  2.201798  -0.043
O  O206  1  0.19111680  0.65646950  0.41126587  1  -1.148403  -0.089165  -0.312373  -0.532223  -0.046465  2.250281  -0.077
O  O207  1  0.18138727  0.84728204  0.42976105  1  -1.165187  -0.076045  -0.308964  -0.537144  -0.039042  2.192445  -0.067
