# generated using pymatgen
data_ZnH6C4N3Cl
_symmetry_space_group_name_H-M   'P 1'
_cell_length_a   7.55323384
_cell_length_b   9.23095145
_cell_length_c   9.85201826
_cell_angle_alpha   90.00063294
_cell_angle_beta   100.35293896
_cell_angle_gamma   90.00073388
_symmetry_Int_Tables_number   1
_chemical_formula_structural   ZnH6C4N3Cl
_chemical_formula_sum   'Zn4 H24 C16 N12 Cl4'
_cell_volume   675.73411704
_cell_formula_units_Z   4
loop_
 _symmetry_equiv_pos_site_id
 _symmetry_equiv_pos_as_xyz
  1  'x, y, z'
loop_
 _atom_site_type_symbol
 _atom_site_label
 _atom_site_symmetry_multiplicity
 _atom_site_fract_x
 _atom_site_fract_y
 _atom_site_fract_z
 _atom_site_occupancy
 _atom_site_pbe_bader_spin_density
 _atom_site_pbe_cm5_charge
 _atom_site_pbe_ddec_charge
 _atom_site_pbe_ddec_spin_density
 _atom_site_pbe_ddec_sum_bond_order
 _atom_site_pbe_magmom
Zn  Zn0  1  0.69307706  0.94395560  0.63945740  1  0  0.64971  0.654179  0  2.575056  0
Zn  Zn1  1  0.30691901  0.44395018  0.86054339  1  0  0.649645  0.654091  0  2.574885  0
Zn  Zn2  1  0.30692280  0.05605322  0.36054476  1  0  0.64965  0.654147  0  2.57486  0
Zn  Zn3  1  0.69306605  0.55605647  0.13945573  1  0  0.64968  0.6541  0  2.575019  0
H  H4  1  0.94725174  0.74402054  0.05426747  1  0  0.089121  0.143428  0  1.051617  0
H  H5  1  0.05273804  0.24401573  0.44576143  1  0  0.089134  0.143497  0  1.051701  0
H  H6  1  0.05275348  0.25594603  0.94570802  1  0  0.089172  0.143408  0  1.051713  0
H  H7  1  0.94726321  0.75599525  0.55427949  1  0  0.089077  0.143403  0  1.05154  0
H  H8  1  0.85073740  0.91911884  0.02651778  1  0  0.092468  0.150603  0  1.006236  0
H  H9  1  0.14925570  0.41909910  0.47349508  1  0  0.092571  0.1508  0  1.00616  0
H  H10  1  0.14929744  0.08087373  0.97347295  1  0  0.092445  0.150522  0  1.006359  0
H  H11  1  0.85073478  0.58088480  0.52654031  1  0  0.092475  0.150602  0  1.006002  0
H  H12  1  0.97161057  0.84535556  0.90351006  1  0  0.088652  0.150863  0  1.035791  0
H  H13  1  0.02841189  0.34534952  0.59650046  1  0  0.088677  0.15087  0  1.036121  0
H  H14  1  0.02840272  0.15461318  0.09646451  1  0  0.088655  0.15089  0  1.035743  0
H  H15  1  0.97162701  0.65464196  0.40351112  1  0  0.088629  0.150885  0  1.035679  0
H  H16  1  0.29733849  0.81213696  0.58872979  1  0  0.10111  0.154173  0  1.005155  0
H  H17  1  0.70266582  0.31212860  0.91126472  1  0  0.101192  0.154299  0  1.005342  0
H  H18  1  0.70263041  0.18788702  0.41126509  1  0  0.101116  0.154212  0  1.005355  0
H  H19  1  0.29733941  0.68783905  0.08872601  1  0  0.101065  0.154177  0  1.005038  0
H  H20  1  0.39165136  0.65255440  0.53025906  1  0  0.101148  0.156253  0  0.976531  0
H  H21  1  0.60836066  0.15255879  0.96972779  1  0  0.101162  0.156308  0  0.976665  0
H  H22  1  0.60832828  0.34746633  0.46971090  1  0  0.101138  0.156297  0  0.97656  0
H  H23  1  0.39167955  0.84744895  0.03025860  1  0  0.10117  0.156365  0  0.976114  0
H  H24  1  0.22362827  0.64012752  0.63634206  1  0  0.095591  0.149078  0  1.039471  0
H  H25  1  0.77635527  0.14013991  0.86365192  1  0  0.095593  0.149075  0  1.03967  0
H  H26  1  0.77634062  0.35987588  0.36363860  1  0  0.095601  0.149104  0  1.039732  0
H  H27  1  0.22360960  0.85987324  0.13634037  1  0  0.095586  0.149153  0  1.039005  0
C  C28  1  0.71480972  0.75142458  0.89851776  1  0  0.226289  0.413568  0  3.978217  0
C  C29  1  0.28517594  0.25141796  0.60147256  1  0  0.226365  0.413634  0  3.978113  0
C  C30  1  0.28516724  0.24856799  0.10145386  1  0  0.226333  0.413365  0  3.978712  0
C  C31  1  0.71478893  0.74858002  0.39852075  1  0  0.22655  0.414068  0  3.978447  0
C  C32  1  0.48093468  0.70057288  0.74456620  1  0  0.222439  0.397562  0  3.98673  0
C  C33  1  0.51909175  0.20056617  0.75544544  1  0  0.222575  0.397776  0  3.986705  0
C  C34  1  0.51907192  0.29943594  0.25543790  1  0  0.222516  0.397618  0  3.986329  0
C  C35  1  0.48095390  0.79942315  0.24459346  1  0  0.222484  0.397748  0  3.986805  0
C  C36  1  0.88062344  0.81881980  0.97493309  1  0  -0.248717  -0.49618  0  3.950248  0
C  C37  1  0.11936218  0.31881816  0.52507821  1  0  -0.248871  -0.496412  0  3.950874  0
C  C38  1  0.11936698  0.18115110  0.02504241  1  0  -0.248693  -0.495936  0  3.950414  0
C  C39  1  0.88060270  0.68119824  0.47492728  1  0  -0.248731  -0.49642  0  3.950016  0
C  C40  1  0.34128254  0.70127555  0.61778212  1  0  -0.235254  -0.473303  0  3.920737  0
C  C41  1  0.65873448  0.20128264  0.88222722  1  0  -0.235295  -0.473413  0  3.921319  0
C  C42  1  0.65872405  0.29873543  0.38222300  1  0  -0.235244  -0.47335  0  3.921086  0
C  C43  1  0.34132733  0.79871535  0.11781795  1  0  -0.23521  -0.473701  0  3.920278  0
N  N44  1  0.62567477  0.79079307  0.77116185  1  0  -0.355661  -0.420541  0  3.407247  0
N  N45  1  0.37434125  0.29077049  0.72883506  1  0  -0.355653  -0.420569  0  3.406528  0
N  N46  1  0.37433449  0.20922008  0.22881623  1  0  -0.355665  -0.42048  0  3.406981  0
N  N47  1  0.62567745  0.70919499  0.27116868  1  0  -0.355741  -0.420517  0  3.407596  0
N  N48  1  0.62904086  0.64235334  0.94800613  1  0  -0.264671  -0.255185  0  3.492972  0
N  N49  1  0.37095484  0.14235134  0.55199766  1  0  -0.264791  -0.255388  0  3.493032  0
N  N50  1  0.37094554  0.35763922  0.05198810  1  0  -0.264739  -0.255147  0  3.492994  0
N  N51  1  0.62902215  0.85765315  0.44800848  1  0  -0.264798  -0.25544  0  3.493601  0
N  N52  1  0.48035332  0.60984830  0.85003596  1  0  -0.261508  -0.255026  0  3.498291  0
N  N53  1  0.51966061  0.10985224  0.64996797  1  0  -0.261583  -0.255096  0  3.498432  0
N  N54  1  0.51963847  0.39016160  0.14996307  1  0  -0.261576  -0.255119  0  3.498027  0
N  N55  1  0.48035139  0.89016416  0.35005108  1  0  -0.261594  -0.255117  0  3.498348  0
Cl  Cl56  1  0.97885042  0.01338265  0.69161483  1  0  -0.300702  -0.469455  0  1.224392  0
Cl  Cl57  1  0.02114686  0.51338762  0.80839093  1  0  -0.300691  -0.469431  0  1.224342  0
Cl  Cl58  1  0.02114809  0.98664242  0.30837904  1  0  -0.300691  -0.469445  0  1.224377  0
Cl  Cl59  1  0.97884897  0.48663203  0.19161779  1  0  -0.300702  -0.469449  0  1.224229  0
