# generated using pymatgen
data_ZnH7C8N5O2
_symmetry_space_group_name_H-M   'P 1'
_cell_length_a   9.84947215
_cell_length_b   12.01140466
_cell_length_c   12.01142002
_cell_angle_alpha   88.24881449
_cell_angle_beta   69.26570760
_cell_angle_gamma   69.26593111
_symmetry_Int_Tables_number   1
_chemical_formula_structural   ZnH7C8N5O2
_chemical_formula_sum   'Zn4 H28 C32 N20 O8'
_cell_volume   1235.59414961
_cell_formula_units_Z   4
loop_
 _symmetry_equiv_pos_site_id
 _symmetry_equiv_pos_as_xyz
  1  'x, y, z'
loop_
 _atom_site_type_symbol
 _atom_site_label
 _atom_site_symmetry_multiplicity
 _atom_site_fract_x
 _atom_site_fract_y
 _atom_site_fract_z
 _atom_site_occupancy
 _atom_site_hle17_bader_spin_density
 _atom_site_hle17_ddec_charge
 _atom_site_hle17_ddec_spin_density
 _atom_site_hle17_ddec_sum_bond_order
 _atom_site_hle17_magmom
 _atom_site_hse06_10hf_bader_spin_density
 _atom_site_hse06_10hf_ddec_charge
 _atom_site_hse06_10hf_ddec_spin_density
 _atom_site_hse06_10hf_ddec_sum_bond_order
 _atom_site_hse06_10hf_magmom
 _atom_site_hse06_bader_spin_density
 _atom_site_hse06_ddec_charge
 _atom_site_hse06_ddec_spin_density
 _atom_site_hse06_ddec_sum_bond_order
 _atom_site_hse06_magmom
 _atom_site_pbe_bader_spin_density
 _atom_site_pbe_cm5_charge
 _atom_site_pbe_ddec_charge
 _atom_site_pbe_ddec_spin_density
 _atom_site_pbe_ddec_sum_bond_order
 _atom_site_pbe_magmom
Zn  Zn0  1  0.85491715  0.84198046  0.62661270  1  0  0.930193  0  1.943223  0  0  0.727216  0  2.4269  0  0  0.770682  0  2.377867  0  0  0.727299  0.697074  0  2.460636  0
Zn  Zn1  1  0.64508394  0.37339128  0.15802178  1  0  0.930094  0  1.943379  0  0  0.727089  0  2.427071  0  0  0.770552  0  2.378056  0  0  0.727212  0.696951  0  2.460809  0
Zn  Zn2  1  0.14508283  0.15802175  0.37338895  1  0  0.930115  0  1.943329  0  0  0.72712  0  2.427021  0  0  0.770581  0  2.378006  0  0  0.727235  0.696977  0  2.460751  0
Zn  Zn3  1  0.35491631  0.62661271  0.84198223  1  0  0.930093  0  1.943405  0  0  0.727115  0  2.4271  0  0  0.77058  0  2.378083  0  0  0.727238  0.696978  0  2.460836  0
H  H4  1  0.70527197  0.72090049  0.50948286  1  0  0.136143  0  0.945866  0  0  0.156384  0  1.002294  0  0  0.158314  0  1.001592  0  0  0.101834  0.154968  0  1.00284  0
H  H5  1  0.79472780  0.49051960  0.27909883  1  0  0.136152  0  0.945839  0  0  0.156377  0  1.002281  0  0  0.158308  0  1.001577  0  0  0.101823  0.154958  0  1.002828  0
H  H6  1  0.29472691  0.27910172  0.49051745  1  0  0.136126  0  0.945892  0  0  0.156362  0  1.002325  0  0  0.158293  0  1.001621  0  0  0.101833  0.154956  0  1.00286  0
H  H7  1  0.20527777  0.50947993  0.72089791  1  0  0.13612  0  0.945923  0  0  0.156365  0  1.002345  0  0  0.158294  0  1.001643  0  0  0.101818  0.154952  0  1.002888  0
H  H8  1  0.50052257  0.75122964  0.57059971  1  0  0.132701  0  0.940231  0  0  0.150599  0  1.001985  0  0  0.151909  0  1.0023  0  0  0.100396  0.149702  0  1.00174  0
H  H9  1  0.99947872  0.42940331  0.24877059  1  0  0.132708  0  0.940219  0  0  0.150617  0  1.001946  0  0  0.151927  0  1.002258  0  0  0.100401  0.149719  0  1.0017  0
H  H10  1  0.49947828  0.24877077  0.42940257  1  0  0.1327  0  0.940231  0  0  0.150587  0  1.001995  0  0  0.151896  0  1.002308  0  0  0.100383  0.149689  0  1.00175  0
H  H11  1  0.00052687  0.57059174  0.75122878  1  0  0.13273  0  0.940176  0  0  0.150601  0  1.001954  0  0  0.15191  0  1.002268  0  0  0.100389  0.149703  0  1.00171  0
H  H12  1  0.63268241  0.60329710  0.55935835  1  0  0.165112  0  0.943094  0  0  0.183688  0  0.999709  0  0  0.186464  0  0.997986  0  0  0.110361  0.181715  0  1.000938  0
H  H13  1  0.86731557  0.44064415  0.39670490  1  0  0.165171  0  0.943019  0  0  0.183701  0  0.999692  0  0  0.186478  0  0.997966  0  0  0.110352  0.18172  0  1.000931  0
H  H14  1  0.36731905  0.39670423  0.44063956  1  0  0.165116  0  0.943083  0  0  0.183692  0  0.999703  0  0  0.186468  0  0.997978  0  0  0.110355  0.181711  0  1.000943  0
H  H15  1  0.13268571  0.55935985  0.60329547  1  0  0.165096  0  0.943123  0  0  0.183668  0  0.999751  0  0  0.186445  0  0.998028  0  0  0.110336  0.181695  0  1.00098  0
H  H16  1  0.64798108  0.01889755  0.84520348  1  0  0.08481  0  0.927367  0  0  0.091852  0  0.989986  0  0  0.09471  0  0.987507  0  0  0.121335  0.089669  0  0.991929  0
H  H17  1  0.85201472  0.15479574  0.98111203  1  0  0.084811  0  0.927323  0  0  0.091847  0  0.989952  0  0  0.094704  0  0.987475  0  0  0.121338  0.089661  0  0.991899  0
H  H18  1  0.35200105  0.98111004  0.15479663  1  0  0.084817  0  0.92729  0  0  0.091902  0  0.989881  0  0  0.09476  0  0.987403  0  0  0.121345  0.089714  0  0.991833  0
H  H19  1  0.14799335  0.84520108  0.01889404  1  0  0.084812  0  0.927367  0  0  0.091871  0  0.98997  0  0  0.094729  0  0.987492  0  0  0.121329  0.089687  0  0.991916  0
H  H20  1  0.50740505  0.24166342  0.89048687  1  0  0.120912  0  0.969497  0  0  0.119902  0  1.046505  0  0  0.124369  0  1.043399  0  0  0.108537  0.116684  0  1.048812  0
H  H21  1  0.99258767  0.10950474  0.75834510  1  0  0.120882  0  0.969546  0  0  0.119915  0  1.046535  0  0  0.124381  0  1.043418  0  0  0.108533  0.116697  0  1.048841  0
H  H22  1  0.49258180  0.75834329  0.10950688  1  0  0.120898  0  0.969564  0  0  0.119918  0  1.046556  0  0  0.124382  0  1.043438  0  0  0.108517  0.116702  0  1.048865  0
H  H23  1  0.00742127  0.89049029  0.24166077  1  0  0.120854  0  0.969599  0  0  0.119876  0  1.046582  0  0  0.124338  0  1.043469  0  0  0.108525  0.11666  0  1.04889  0
H  H24  1  0.68888967  0.26881811  0.51188518  1  0  0.119912  0  0.947022  0  0  0.127297  0  1.008685  0  0  0.130607  0  1.008051  0  0  0.114252  0.124861  0  1.009361  0
H  H25  1  0.81110324  0.48810318  0.73117701  1  0  0.119886  0  0.947077  0  0  0.127321  0  1.008675  0  0  0.130596  0  1.008086  0  0  0.114231  0.12489  0  1.009344  0
H  H26  1  0.31111017  0.73117965  0.48810665  1  0  0.119906  0  0.946946  0  0  0.12729  0  1.008614  0  0  0.130593  0  1.008006  0  0  0.114219  0.124854  0  1.009287  0
H  H27  1  0.18889627  0.51189096  0.26882420  1  0  0.119911  0  0.947076  0  0  0.127337  0  1.008695  0  0  0.13061  0  1.008129  0  0  0.114225  0.124901  0  1.009369  0
H  H28  1  0.82405979  0.04276179  0.48011787  1  0  0.092444  0  0.956924  0  0  0.09559  0  1.027792  0  0  0.098995  0  1.02445  0  0  0.117539  0.093025  0  1.030369  0
H  H29  1  0.67593522  0.51987842  0.95723433  1  0  0.092387  0  0.957005  0  0  0.095587  0  1.027806  0  0  0.098994  0  1.024461  0  0  0.117527  0.093018  0  1.03039  0
H  H30  1  0.17593883  0.95723864  0.51988007  1  0  0.09241  0  0.956908  0  0  0.09556  0  1.027785  0  0  0.098968  0  1.024438  0  0  0.117535  0.092994  0  1.030363  0
H  H31  1  0.32407168  0.48011842  0.04276543  1  0  0.09241  0  0.95705  0  0  0.095651  0  1.027797  0  0  0.099059  0  1.02445  0  0  0.117567  0.093082  0  1.03038  0
C  C32  1  0.61075456  0.72191526  0.69816996  1  0  0.423044  0  3.719091  0  0  0.401296  0  3.98246  0  0  0.4164  0  3.997758  0  0  0.237039  0.391225  0  3.971914  0
C  C33  1  0.88924733  0.30183085  0.27808503  1  0  0.422903  0  3.719334  0  0  0.401261  0  3.982518  0  0  0.416365  0  3.997814  0  0  0.236994  0.391191  0  3.971969  0
C  C34  1  0.38924994  0.27808428  0.30182792  1  0  0.422972  0  3.719191  0  0  0.401349  0  3.98236  0  0  0.416456  0  3.997649  0  0  0.236971  0.391282  0  3.971815  0
C  C35  1  0.11075139  0.69816955  0.72192038  1  0  0.422931  0  3.719205  0  0  0.40132  0  3.982368  0  0  0.416424  0  3.997665  0  0  0.236986  0.391249  0  3.971822  0
C  C36  1  0.61339028  0.69783253  0.57703050  1  0  -0.399101  0  3.678792  0  0  -0.475086  0  3.906573  0  0  -0.479069  0  3.911617  0  0  -0.22847  -0.4722  0  3.903068  0
C  C37  1  0.88660954  0.42297454  0.30216882  1  0  -0.399119  0  3.678716  0  0  -0.475104  0  3.906473  0  0  -0.479085  0  3.911512  0  0  -0.22845  -0.472211  0  3.902977  0
C  C38  1  0.38661101  0.30216699  0.42297168  1  0  -0.399048  0  3.678738  0  0  -0.475066  0  3.906474  0  0  -0.479046  0  3.911515  0  0  -0.228444  -0.472183  0  3.902967  0
C  C39  1  0.11339391  0.57702498  0.69783188  1  0  -0.39906  0  3.678811  0  0  -0.475066  0  3.906568  0  0  -0.479047  0  3.911612  0  0  -0.228432  -0.472184  0  3.903061  0
C  C40  1  0.65287825  0.07759593  0.77389615  1  0  0.12569  0  3.689654  0  0  0.095655  0  3.936912  0  0  0.101071  0  3.956266  0  0  0.051011  0.092184  0  3.923699  0
C  C41  1  0.84711520  0.22610021  0.92241140  1  0  0.125766  0  3.68955  0  0  0.09578  0  3.936828  0  0  0.101202  0  3.95618  0  0  0.051044  0.092306  0  3.923615  0
C  C42  1  0.34711061  0.92241346  0.22610109  1  0  0.125861  0  3.689366  0  0  0.095831  0  3.936647  0  0  0.101252  0  3.955999  0  0  0.051103  0.092358  0  3.923435  0
C  C43  1  0.15289091  0.77389840  0.07759353  1  0  0.125731  0  3.689576  0  0  0.09571  0  3.936856  0  0  0.101129  0  3.956208  0  0  0.051057  0.092237  0  3.923645  0
C  C44  1  0.57405797  0.20082822  0.79837200  1  0  -0.115158  0  3.693  0  0  -0.134511  0  3.935932  0  0  -0.140311  0  3.957591  0  0  -0.073804  -0.130699  0  3.921379  0
C  C45  1  0.92593465  0.20161888  0.79917920  1  0  -0.115146  0  3.692836  0  0  -0.134561  0  3.935848  0  0  -0.140348  0  3.957496  0  0  -0.073777  -0.130748  0  3.921292  0
C  C46  1  0.42593209  0.79917850  0.20161830  1  0  -0.115216  0  3.692667  0  0  -0.134597  0  3.935698  0  0  -0.140382  0  3.957343  0  0  -0.073766  -0.130791  0  3.921147  0
C  C47  1  0.07406797  0.79837794  0.20082599  1  0  -0.115074  0  3.693029  0  0  -0.134478  0  3.935995  0  0  -0.140264  0  3.957644  0  0  -0.073781  -0.13067  0  3.921443  0
C  C48  1  0.58624136  0.27084781  0.70272187  1  0  0.002739  0  3.716361  0  0  0.023566  0  3.941403  0  0  0.021364  0  3.962513  0  0  0.008126  0.025093  0  3.927166  0
C  C49  1  0.91374666  0.29726772  0.72915523  1  0  0.002792  0  3.716232  0  0  0.023511  0  3.941438  0  0  0.021306  0  3.962546  0  0  0.008082  0.025039  0  3.9272  0
C  C50  1  0.41375372  0.72915533  0.29727038  1  0  0.002767  0  3.716304  0  0  0.023447  0  3.941528  0  0  0.021239  0  3.962642  0  0  0.008049  0.024978  0  3.927292  0
C  C51  1  0.08625136  0.70272731  0.27084889  1  0  0.002679  0  3.716659  0  0  0.023494  0  3.941747  0  0  0.021285  0  3.962861  0  0  0.008129  0.025024  0  3.927508  0
C  C52  1  0.67700497  0.21458573  0.58648638  1  0  -0.117469  0  3.705829  0  0  -0.139166  0  3.952428  0  0  -0.145111  0  3.974277  0  0  -0.073307  -0.135368  0  3.937894  0
C  C53  1  0.82299189  0.41350222  0.78541265  1  0  -0.117487  0  3.705939  0  0  -0.139191  0  3.95253  0  0  -0.145108  0  3.9744  0  0  -0.073289  -0.135398  0  3.937997  0
C  C54  1  0.32299773  0.78541740  0.41350527  1  0  -0.117577  0  3.705882  0  0  -0.139217  0  3.952505  0  0  -0.145168  0  3.974354  0  0  -0.073323  -0.13542  0  3.937972  0
C  C55  1  0.17701197  0.58649193  0.21458809  1  0  -0.117469  0  3.705908  0  0  -0.139224  0  3.952545  0  0  -0.145154  0  3.974402  0  0  -0.073296  -0.135426  0  3.938011  0
C  C56  1  0.75207590  0.09102934  0.56895867  1  0  0.127367  0  3.673559  0  0  0.098043  0  3.920026  0  0  0.104138  0  3.937601  0  0  0.048786  0.094078  0  3.908195  0
C  C57  1  0.74791973  0.43103627  0.90897046  1  0  0.127506  0  3.673463  0  0  0.098179  0  3.919886  0  0  0.104278  0  3.93745  0  0  0.048848  0.09421  0  3.908055  0
C  C58  1  0.24792010  0.90897199  0.43103835  1  0  0.127574  0  3.673389  0  0  0.098256  0  3.919857  0  0  0.104356  0  3.937428  0  0  0.048893  0.094289  0  3.908023  0
C  C59  1  0.25208829  0.56896056  0.09103063  1  0  0.127434  0  3.673485  0  0  0.098084  0  3.919923  0  0  0.104184  0  3.937486  0  0  0.048802  0.094117  0  3.90809  0
C  C60  1  0.50888581  0.40528044  0.72119946  1  0  0.616284  0  3.947898  0  0  0.569195  0  4.238824  0  0  0.601636  0  4.232437  0  0  0.199611  0.547185  0  4.242407  0
C  C61  1  0.99110729  0.27878510  0.59472583  1  0  0.616196  0  3.947408  0  0  0.569159  0  4.238302  0  0  0.601601  0  4.231916  0  0  0.199585  0.547148  0  4.241883  0
C  C62  1  0.49110909  0.59473435  0.27879082  1  0  0.616486  0  3.947073  0  0  0.569505  0  4.237914  0  0  0.601949  0  4.23152  0  0  0.199694  0.547491  0  4.241498  0
C  C63  1  0.00889261  0.72120816  0.40527195  1  0  0.616443  0  3.947357  0  0  0.569416  0  4.238204  0  0  0.601863  0  4.231812  0  0  0.199713  0.547403  0  4.241787  0
N  N64  1  0.69795180  0.77386314  0.72388938  1  0  -0.367718  0  3.227032  0  0  -0.292969  0  3.533163  0  0  -0.313051  0  3.543353  0  0  -0.251091  -0.279499  0  3.526065  0
N  N65  1  0.80205105  0.27611348  0.22613608  1  0  -0.367647  0  3.227184  0  0  -0.292911  0  3.533241  0  0  -0.312995  0  3.543439  0  0  -0.251038  -0.27944  0  3.526145  0
N  N66  1  0.30205165  0.22613639  0.27611132  1  0  -0.367714  0  3.227057  0  0  -0.293  0  3.533139  0  0  -0.313082  0  3.543328  0  0  -0.251037  -0.279528  0  3.526041  0
N  N67  1  0.19794724  0.72388782  0.77386942  1  0  -0.367701  0  3.22714  0  0  -0.292978  0  3.533226  0  0  -0.313058  0  3.543411  0  0  -0.251032  -0.279509  0  3.526132  0
N  N68  1  0.66030802  0.78069268  0.84466056  1  0  -0.093767  0  2.951546  0  0  -0.096783  0  3.245488  0  0  -0.094765  0  3.255878  0  0  -0.106698  -0.097912  0  3.23839  0
N  N69  1  0.83969605  0.15534124  0.21930258  1  0  -0.093695  0  2.95167  0  0  -0.096719  0  3.245615  0  0  -0.094701  0  3.256003  0  0  -0.106715  -0.097847  0  3.238515  0
N  N70  1  0.33969521  0.21930505  0.15534026  1  0  -0.093674  0  2.951591  0  0  -0.096689  0  3.245547  0  0  -0.094668  0  3.255934  0  0  -0.106705  -0.097817  0  3.238447  0
N  N71  1  0.16030480  0.84465917  0.78069969  1  0  -0.093703  0  2.951463  0  0  -0.096726  0  3.245415  0  0  -0.094706  0  3.255804  0  0  -0.106724  -0.097854  0  3.238318  0
N  N72  1  0.55456021  0.73426541  0.89110538  1  0  -0.071702  0  2.97934  0  0  -0.06564  0  3.278345  0  0  -0.064481  0  3.289129  0  0  -0.088819  -0.066234  0  3.271025  0
N  N73  1  0.94544373  0.10889651  0.26573020  1  0  -0.071779  0  2.97946  0  0  -0.065727  0  3.278454  0  0  -0.064569  0  3.289238  0  0  -0.088815  -0.066323  0  3.271136  0
N  N74  1  0.44544366  0.26573322  0.10889521  1  0  -0.071785  0  2.97934  0  0  -0.065749  0  3.278352  0  0  -0.064591  0  3.289137  0  0  -0.088816  -0.066341  0  3.271036  0
N  N75  1  0.05455820  0.89110391  0.73427009  1  0  -0.071798  0  2.979197  0  0  -0.065733  0  3.278202  0  0  -0.064577  0  3.288986  0  0  -0.08882  -0.066328  0  3.270882  0
N  N76  1  0.52127804  0.69635364  0.80170691  1  0  -0.368315  0  3.203351  0  0  -0.297201  0  3.514878  0  0  -0.317129  0  3.524621  0  0  -0.249304  -0.283711  0  3.508158  0
N  N77  1  0.97872343  0.19829574  0.30364490  1  0  -0.368271  0  3.203499  0  0  -0.297156  0  3.514937  0  0  -0.317085  0  3.524683  0  0  -0.249281  -0.283665  0  3.508214  0
N  N78  1  0.47872541  0.30364588  0.19829379  1  0  -0.368265  0  3.20344  0  0  -0.297146  0  3.514864  0  0  -0.317073  0  3.524605  0  0  -0.24927  -0.283667  0  3.508155  0
N  N79  1  0.02127786  0.80170377  0.69635727  1  0  -0.368224  0  3.203248  0  0  -0.297144  0  3.514705  0  0  -0.317073  0  3.524452  0  0  -0.24927  -0.283651  0  3.50798  0
N  N80  1  0.73990427  0.02372794  0.66141648  1  0  -0.31968  0  3.308782  0  0  -0.233727  0  3.583561  0  0  -0.251292  0  3.598191  0  0  -0.33087  -0.221829  0  3.573505  0
N  N81  1  0.76009109  0.33858054  0.97627388  1  0  -0.319757  0  3.308799  0  0  -0.233875  0  3.58364  0  0  -0.251446  0  3.598271  0  0  -0.330922  -0.221965  0  3.573572  0
N  N82  1  0.26008761  0.97627517  0.33858088  1  0  -0.319802  0  3.308795  0  0  -0.233923  0  3.583681  0  0  -0.251492  0  3.59831  0  0  -0.330953  -0.222011  0  3.573609  0
N  N83  1  0.23991347  0.66141897  0.02372899  1  0  -0.319689  0  3.308796  0  0  -0.233808  0  3.58366  0  0  -0.251378  0  3.598292  0  0  -0.330921  -0.221899  0  3.573593  0
O  O84  1  0.42367966  0.45108655  0.83151289  1  0  -0.643901  0  2.054173  0  0  -0.569882  0  2.325066  0  0  -0.598525  0  2.310776  0  0  -0.337667  -0.549721  0  2.334138  0
O  O85  1  0.07632411  0.16847643  0.54891630  1  0  -0.643856  0  2.054178  0  0  -0.569784  0  2.324975  0  0  -0.598431  0  2.310696  0  0  -0.337612  -0.549629  0  2.334045  0
O  O86  1  0.57632330  0.54891837  0.16848113  1  0  -0.643956  0  2.054116  0  0  -0.569914  0  2.324926  0  0  -0.598561  0  2.310648  0  0  -0.337662  -0.549755  0  2.334004  0
O  O87  1  0.92368718  0.83151591  0.45108729  1  0  -0.643903  0  2.054201  0  0  -0.569891  0  2.325076  0  0  -0.598522  0  2.310754  0  0  -0.33768  -0.549733  0  2.334148  0
O  O88  1  0.52969767  0.46433308  0.63387943  1  0  -0.580475  0  1.908019  0  0  -0.535266  0  2.121967  0  0  -0.556872  0  2.114076  0  0  -0.306066  -0.520246  0  2.126929  0
O  O89  1  0.97028080  0.36610824  0.53566661  1  0  -0.580515  0  1.907561  0  0  -0.53531  0  2.121476  0  0  -0.556925  0  2.113599  0  0  -0.306088  -0.520271  0  2.126402  0
O  O90  1  0.47029184  0.53566823  0.36612036  1  0  -0.580707  0  1.907215  0  0  -0.535526  0  2.12113  0  0  -0.557136  0  2.113243  0  0  -0.306141  -0.520492  0  2.126074  0
O  O91  1  0.02969973  0.63387784  0.46433548  1  0  -0.580675  0  1.907291  0  0  -0.535509  0  2.121247  0  0  -0.557119  0  2.113353  0  0  -0.306187  -0.520479  0  2.126199  0
