# generated using pymatgen
data_AgH5(CN3)2
_symmetry_space_group_name_H-M   'P 1'
_cell_length_a   6.99316545
_cell_length_b   6.35982368
_cell_length_c   14.39451876
_cell_angle_alpha   90.00110351
_cell_angle_beta   89.99665348
_cell_angle_gamma   117.93061616
_symmetry_Int_Tables_number   1
_chemical_formula_structural   AgH5(CN3)2
_chemical_formula_sum   'Ag4 H20 C8 N24'
_cell_volume   565.62706680
_cell_formula_units_Z   4
loop_
 _symmetry_equiv_pos_site_id
 _symmetry_equiv_pos_as_xyz
  1  'x, y, z'
loop_
 _atom_site_type_symbol
 _atom_site_label
 _atom_site_symmetry_multiplicity
 _atom_site_fract_x
 _atom_site_fract_y
 _atom_site_fract_z
 _atom_site_occupancy
 _atom_site_hle17_bader_spin_density
 _atom_site_hle17_ddec_charge
 _atom_site_hle17_ddec_spin_density
 _atom_site_hle17_ddec_sum_bond_order
 _atom_site_hle17_magmom
 _atom_site_hse06_10hf_bader_spin_density
 _atom_site_hse06_10hf_ddec_charge
 _atom_site_hse06_10hf_ddec_spin_density
 _atom_site_hse06_10hf_ddec_sum_bond_order
 _atom_site_hse06_10hf_magmom
 _atom_site_hse06_bader_spin_density
 _atom_site_hse06_ddec_charge
 _atom_site_hse06_ddec_spin_density
 _atom_site_hse06_ddec_sum_bond_order
 _atom_site_hse06_magmom
 _atom_site_pbe_bader_spin_density
 _atom_site_pbe_cm5_charge
 _atom_site_pbe_ddec_charge
 _atom_site_pbe_ddec_spin_density
 _atom_site_pbe_ddec_sum_bond_order
 _atom_site_pbe_magmom
Ag  Ag0  1  0.56742489  0.96679487  0.72633950  1  0  0.423231  0  1.630214  0  0  0.273467  0  2.118794  0  0  0.30485  0  2.065944  0  0  0.462904  0.251054  0  2.156739  0
Ag  Ag1  1  0.43254662  0.53317442  0.22633214  1  0  0.423337  0  1.630013  0  0  0.273573  0  2.118549  0  0  0.304948  0  2.065713  0  0  0.462924  0.251163  0  2.156497  0
Ag  Ag2  1  0.43261192  0.03320388  0.27366520  1  0  0.423378  0  1.629959  0  0  0.273671  0  2.118505  0  0  0.305018  0  2.065727  0  0  0.462994  0.251259  0  2.156443  0
Ag  Ag3  1  0.56746116  0.46683527  0.77366074  1  0  0.423212  0  1.630049  0  0  0.273478  0  2.118578  0  0  0.304833  0  2.065768  0  0  0.462812  0.251062  0  2.156527  0
H  H4  1  0.85271522  0.19981750  0.54840659  1  0  0.284526  0  0.920451  0  0  0.265487  0  0.998404  0  0  0.270934  0  0.993443  0  0  0.299397  0.261513  0  1.00208  0
H  H5  1  0.14737644  0.30026359  0.04837633  1  0  0.284429  0  0.920541  0  0  0.265247  0  0.998583  0  0  0.270689  0  0.993645  0  0  0.299274  0.261273  0  1.002249  0
H  H6  1  0.14730452  0.80021732  0.45160784  1  0  0.284524  0  0.92029  0  0  0.265464  0  0.998284  0  0  0.270919  0  0.993318  0  0  0.299321  0.261488  0  1.001958  0
H  H7  1  0.85262046  0.69972794  0.95162420  1  0  0.284533  0  0.920465  0  0  0.265327  0  0.998547  0  0  0.27077  0  0.993605  0  0  0.299282  0.261353  0  1.002214  0
H  H8  1  0.85975535  0.94630186  0.57162603  1  0  0.264981  0  0.935704  0  0  0.253655  0  1.002592  0  0  0.257867  0  0.999915  0  0  0.292805  0.250544  0  1.004706  0
H  H9  1  0.14033490  0.55373936  0.07161325  1  0  0.2651  0  0.935661  0  0  0.253652  0  1.002672  0  0  0.257872  0  0.999976  0  0  0.292836  0.250538  0  1.004787  0
H  H10  1  0.14024468  0.05373794  0.42836894  1  0  0.264996  0  0.935757  0  0  0.253698  0  1.002599  0  0  0.257914  0  0.999922  0  0  0.292827  0.250587  0  1.004705  0
H  H11  1  0.85969449  0.44625868  0.92837339  1  0  0.265108  0  0.935746  0  0  0.253719  0  1.002639  0  0  0.257932  0  0.999958  0  0  0.292886  0.25061  0  1.004747  0
H  H12  1  0.38827492  0.48756419  0.62590291  1  0  0.084594  0  0.988354  0  0  0.10275  0  1.065296  0  0  0.104392  0  1.062004  0  0  0.087222  0.101485  0  1.06773  0
H  H13  1  0.61173941  0.01242960  0.12586677  1  0  0.084629  0  0.988107  0  0  0.102765  0  1.06506  0  0  0.104394  0  1.06179  0  0  0.08722  0.101489  0  1.067501  0
H  H14  1  0.61171744  0.51246631  0.37410387  1  0  0.084509  0  0.988399  0  0  0.102613  0  1.065399  0  0  0.104243  0  1.062123  0  0  0.08717  0.101345  0  1.067833  0
H  H15  1  0.38821650  0.98754776  0.87411569  1  0  0.084569  0  0.988189  0  0  0.102744  0  1.065098  0  0  0.104373  0  1.061825  0  0  0.08725  0.101468  0  1.067539  0
H  H16  1  0.23026453  0.37748059  0.52378630  1  0  0.104316  0  0.983256  0  0  0.116149  0  1.057098  0  0  0.118011  0  1.05599  0  0  0.103882  0.1147  0  1.057998  0
H  H17  1  0.76971350  0.12256766  0.02376607  1  0  0.104261  0  0.983328  0  0  0.116122  0  1.057177  0  0  0.117992  0  1.056055  0  0  0.103857  0.114669  0  1.058075  0
H  H18  1  0.76972454  0.62251705  0.47622743  1  0  0.10422  0  0.983267  0  0  0.116098  0  1.057068  0  0  0.117965  0  1.055954  0  0  0.103842  0.114647  0  1.057967  0
H  H19  1  0.23021861  0.87739544  0.97621015  1  0  0.104292  0  0.983589  0  0  0.116131  0  1.057421  0  0  0.117998  0  1.0563  0  0  0.103911  0.11468  0  1.058316  0
H  H20  1  0.33029460  0.19874492  0.58316878  1  0  0.090381  0  0.955458  0  0  0.107119  0  1.024379  0  0  0.108262  0  1.023112  0  0  0.092111  0.106179  0  1.02541  0
H  H21  1  0.66971716  0.30129239  0.08318020  1  0  0.090355  0  0.95523  0  0  0.107071  0  1.024229  0  0  0.108217  0  1.022963  0  0  0.092091  0.106129  0  1.025254  0
H  H22  1  0.66966781  0.80121078  0.41683453  1  0  0.090227  0  0.955249  0  0  0.106894  0  1.024287  0  0  0.108031  0  1.023025  0  0  0.092076  0.105957  0  1.025322  0
H  H23  1  0.33027436  0.69873974  0.91680852  1  0  0.090374  0  0.95556  0  0  0.107045  0  1.02458  0  0  0.108187  0  1.023313  0  0  0.092074  0.106102  0  1.025609  0
C  C24  1  0.06162133  0.21467902  0.73999487  1  0  0.407696  0  3.829142  0  0  0.350184  0  4.106463  0  0  0.371809  0  4.121927  0  0  0.322042  0.335584  0  4.09583  0
C  C25  1  0.93836971  0.28531524  0.24002490  1  0  0.407628  0  3.829023  0  0  0.349963  0  4.106601  0  0  0.371566  0  4.122079  0  0  0.321862  0.335383  0  4.095956  0
C  C26  1  0.93835160  0.78531365  0.25997440  1  0  0.407899  0  3.828788  0  0  0.350012  0  4.106578  0  0  0.371611  0  4.122064  0  0  0.321961  0.335426  0  4.095935  0
C  C27  1  0.06165862  0.71468784  0.76000759  1  0  0.407664  0  3.829116  0  0  0.350193  0  4.106429  0  0  0.371802  0  4.121905  0  0  0.321992  0.33561  0  4.095786  0
C  C28  1  0.26569032  0.32583962  0.59179275  1  0  -0.192021  0  3.674757  0  0  -0.291428  0  3.919434  0  0  -0.288574  0  3.929216  0  0  -0.149721  -0.292949  0  3.912592  0
C  C29  1  0.73439196  0.17422958  0.09180376  1  0  -0.192229  0  3.674743  0  0  -0.291697  0  3.919767  0  0  -0.28885  0  3.929558  0  0  -0.149827  -0.29322  0  3.912964  0
C  C30  1  0.73436841  0.67418005  0.40820222  1  0  -0.19195  0  3.675145  0  0  -0.291323  0  3.92006  0  0  -0.288468  0  3.929854  0  0  -0.149747  -0.292847  0  3.913231  0
C  C31  1  0.26561341  0.82575761  0.90819886  1  0  -0.192061  0  3.675123  0  0  -0.291509  0  3.920111  0  0  -0.288652  0  3.929893  0  0  -0.149785  -0.293041  0  3.913328  0
N  N32  1  0.87719933  0.11792647  0.79029677  1  0  -0.355954  0  3.278999  0  0  -0.285942  0  3.601195  0  0  -0.308027  0  3.612437  0  0  -0.288077  -0.270747  0  3.593446  0
N  N33  1  0.12274562  0.38202220  0.29029670  1  0  -0.355861  0  3.27931  0  0  -0.285815  0  3.601602  0  0  -0.307874  0  3.612825  0  0  -0.288023  -0.27065  0  3.593876  0
N  N34  1  0.12278528  0.88207074  0.20970515  1  0  -0.355997  0  3.278944  0  0  -0.285946  0  3.601298  0  0  -0.308013  0  3.612526  0  0  -0.288049  -0.270765  0  3.593561  0
N  N35  1  0.87726914  0.61798302  0.70972190  1  0  -0.35562  0  3.279123  0  0  -0.285649  0  3.601363  0  0  -0.30772  0  3.612604  0  0  -0.287909  -0.270477  0  3.593632  0
N  N36  1  0.93779608  0.14886515  0.88087102  1  0  -0.096716  0  3.039942  0  0  -0.078106  0  3.327902  0  0  -0.07629  0  3.339077  0  0  -0.102547  -0.079057  0  3.320187  0
N  N37  1  0.06213825  0.35105324  0.38089002  1  0  -0.09726  0  3.039404  0  0  -0.078704  0  3.32745  0  0  -0.07691  0  3.33861  0  0  -0.102788  -0.079639  0  3.319749  0
N  N38  1  0.06219054  0.85109799  0.11913507  1  0  -0.096738  0  3.04011  0  0  -0.078086  0  3.328025  0  0  -0.076267  0  3.33919  0  0  -0.102529  -0.079035  0  3.320314  0
N  N39  1  0.93783451  0.64895484  0.61912857  1  0  -0.097369  0  3.039612  0  0  -0.078757  0  3.32758  0  0  -0.076962  0  3.338753  0  0  -0.102815  -0.079694  0  3.319878  0
N  N40  1  0.14779064  0.25714877  0.88636332  1  0  -0.105952  0  3.003178  0  0  -0.093388  0  3.293114  0  0  -0.09173  0  3.304453  0  0  -0.10949  -0.094192  0  3.285313  0
N  N41  1  0.85213992  0.24278482  0.38636509  1  0  -0.105462  0  3.004002  0  0  -0.092846  0  3.293895  0  0  -0.091167  0  3.305225  0  0  -0.10932  -0.093667  0  3.286101  0
N  N42  1  0.85220048  0.74282679  0.11363096  1  0  -0.106019  0  3.003247  0  0  -0.093477  0  3.293142  0  0  -0.091823  0  3.304474  0  0  -0.109546  -0.094282  0  3.285345  0
N  N43  1  0.14783707  0.75721509  0.61364100  1  0  -0.105537  0  3.004252  0  0  -0.092986  0  3.294164  0  0  -0.091316  0  3.305501  0  0  -0.109448  -0.093805  0  3.28637  0
N  N44  1  0.23301732  0.30081184  0.79863978  1  0  -0.366437  0  3.280754  0  0  -0.285915  0  3.597155  0  0  -0.309136  0  3.610011  0  0  -0.290236  -0.269995  0  3.58822  0
N  N45  1  0.76694989  0.19915377  0.29867394  1  0  -0.366248  0  3.281841  0  0  -0.285716  0  3.598288  0  0  -0.308929  0  3.611149  0  0  -0.290139  -0.269808  0  3.589362  0
N  N46  1  0.76694249  0.69918815  0.20135241  1  0  -0.366376  0  3.280761  0  0  -0.285666  0  3.597176  0  0  -0.308873  0  3.610027  0  0  -0.29018  -0.269759  0  3.588251  0
N  N47  1  0.23305701  0.80084556  0.70133007  1  0  -0.36643  0  3.281455  0  0  -0.285859  0  3.597803  0  0  -0.309079  0  3.610669  0  0  -0.290129  -0.269949  0  3.58888  0
N  N48  1  0.06683182  0.22588344  0.64586850  1  0  -0.030866  0  3.453861  0  0  0.055815  0  3.684486  0  0  0.038403  0  3.71078  0  0  -0.207319  0.067708  0  3.666197  0
N  N49  1  0.93325001  0.27419376  0.14587682  1  0  -0.030572  0  3.453018  0  0  0.056185  0  3.68359  0  0  0.038791  0  3.709881  0  0  -0.207092  0.068064  0  3.665292  0
N  N50  1  0.93320185  0.77413042  0.35412439  1  0  -0.030823  0  3.453556  0  0  0.056022  0  3.684198  0  0  0.038634  0  3.710493  0  0  -0.207197  0.067905  0  3.665901  0
N  N51  1  0.06676953  0.72578108  0.85412718  1  0  -0.030528  0  3.453977  0  0  0.056117  0  3.684558  0  0  0.038722  0  3.710839  0  0  -0.207219  0.067999  0  3.666266  0
N  N52  1  0.86625734  0.09723193  0.60038184  1  0  -0.511824  0  3.048357  0  0  -0.489913  0  3.299171  0  0  -0.500822  0  3.29881  0  0  -0.5129  -0.481866  0  3.29943  0
N  N53  1  0.13383359  0.40281702  0.10037607  1  0  -0.512059  0  3.048111  0  0  -0.48978  0  3.299096  0  0  -0.500704  0  3.298744  0  0  -0.512928  -0.481719  0  3.299342  0
N  N54  1  0.13376939  0.90279841  0.39961730  1  0  -0.511908  0  3.048197  0  0  -0.490021  0  3.299037  0  0  -0.500951  0  3.298673  0  0  -0.512887  -0.481963  0  3.299296  0
N  N55  1  0.86617053  0.59717862  0.89962516  1  0  -0.51215  0  3.04803  0  0  -0.489901  0  3.299024  0  0  -0.500816  0  3.298663  0  0  -0.512976  -0.481847  0  3.299282  0
