# generated using pymatgen
data_ZnH5C12(N2O)2
_symmetry_space_group_name_H-M   'P 1'
_cell_length_a   15.63813306
_cell_length_b   15.97056048
_cell_length_c   18.41997091
_cell_angle_alpha   106.32429748
_cell_angle_beta   105.79403517
_cell_angle_gamma   113.20132344
_symmetry_Int_Tables_number   1
_chemical_formula_structural   ZnH5C12(N2O)2
_chemical_formula_sum   'Zn4 H20 C48 N16 O8'
_cell_volume   3655.58312694
_cell_formula_units_Z   4
loop_
 _symmetry_equiv_pos_site_id
 _symmetry_equiv_pos_as_xyz
  1  'x, y, z'
loop_
 _atom_site_type_symbol
 _atom_site_label
 _atom_site_symmetry_multiplicity
 _atom_site_fract_x
 _atom_site_fract_y
 _atom_site_fract_z
 _atom_site_occupancy
 _atom_site_pbe_bader_charge
 _atom_site_pbe_bader_spin_density
 _atom_site_pbe_cm5_charge
 _atom_site_pbe_ddec_charge
 _atom_site_pbe_ddec_spin_density
 _atom_site_pbe_ddec_sum_bond_order
 _atom_site_pbe_magmom
Zn  Zn0  1  0.85664736  0.85311671  0.48512546  1  1.230769  0  0.733198  0.636523  0  2.474113  0
Zn  Zn1  1  0.14042672  0.14010387  0.50633491  1  1.229962  0  0.738941  0.667035  0  2.32533  0
Zn  Zn2  1  0.11168996  0.99891649  0.61874849  1  1.223376  0  0.738597  0.637778  0  2.441967  0
Zn  Zn3  1  0.88778956  0.99805435  0.37772942  1  1.192806  0  0.756617  0.62087  0  2.444914  0
H  H4  1  0.77007233  0.81746349  0.63082647  1  0.110701  0  0.126965  0.119628  0  0.981882  0
H  H5  1  0.09629156  0.14585943  0.76818130  1  0.095611  0  0.120497  0.110174  0  1.016475  0
H  H6  1  0.83045848  0.15191021  0.47262855  1  0.129181  0  0.123553  0.115752  0  0.992054  0
H  H7  1  0.15657046  0.33341113  0.63724558  1  0.094136  0  0.122276  0.11189  0  0.997615  0
H  H8  1  0.78910520  0.97099250  0.61076355  1  0.126132  0  0.121057  0.110462  0  1.012813  0
H  H9  1  0.85381047  0.15348873  0.29643251  1  0.093866  0  0.122197  0.113689  0  0.98732  0
H  H10  1  0.31478587  0.27436914  0.44707142  1  0.614448  0  0.356585  0.39536  0  0.834149  0
H  H11  1  0.30792136  0.41629398  0.02714636  1  0.09359  0  0.119122  0.128131  0  0.957807  0
H  H12  1  0.84157767  0.09056156  0.08482258  1  0.619042  0  0.344348  0.37911  0  0.857496  0
H  H13  1  0.16309778  0.35897134  0.49689005  1  0.081887  0  0.122372  0.11192  0  0.985142  0
H  H14  1  0.26706541  0.08013122  0.82750614  1  0.614354  0  0.354367  0.396712  0  0.836203  0
H  H15  1  0.36455228  0.17046468  0.51895374  1  0.103567  0  0.116238  0.108654  0  1.021042  0
H  H16  1  0.69477695  0.63200707  0.45279366  1  0.626972  0  0.355879  0.400001  0  0.831814  0
H  H17  1  0.18484305  0.84919283  0.53378181  1  0.137073  0  0.124398  0.116001  0  0.993877  0
H  H18  1  0.88231013  0.85496830  0.21817200  1  0.118523  0  0.127051  0.122764  0  0.984024  0
H  H19  1  0.85787619  0.66581916  0.36512176  1  0.12448  0  0.122817  0.115325  0  0.989928  0
H  H20  1  0.66571649  0.83124023  0.19428327  1  0.118886  0  0.12779  0.120414  0  0.979998  0
H  H21  1  0.35351037  0.04051725  0.69544303  1  0.113899  0  0.121898  0.114359  0  0.988983  0
H  H22  1  0.35397575  0.58569596  0.96813198  1  0.084261  0  0.113592  0.115338  0  0.966241  0
H  H23  1  0.03466289  0.94192255  0.99073975  1  0.121321  0  0.12743  0.135361  0  0.945716  0
C  C24  1  0.85385247  0.85847389  0.65754872  1  0.419391  0  0.017945  -0.060861  0  3.948066  0
C  C25  1  0.93544272  0.72503677  0.41193414  1  0.419236  0  0.018679  -0.036982  0  3.931604  0
C  C26  1  0.67584061  0.80290093  0.24118344  1  0.41059  0  0.021904  -0.057463  0  3.928732  0
C  C27  1  0.08771928  0.29442049  0.45080468  1  0.448734  0  0.016572  -0.044329  0  3.967872  0
C  C28  1  0.34044802  0.07212999  0.65128450  1  0.424509  0  0.014327  -0.053475  0  3.960084  0
C  C29  1  0.61030919  0.70845536  0.23628779  1  0.123792  0  -0.006213  0.056764  0  4.155159  0
C  C30  1  0.40256498  0.11038016  0.61226167  1  0.128075  0  -0.029948  0.032636  0  4.216572  0
C  C31  1  0.02632915  0.71984448  0.43523645  1  0.093226  0  -0.026776  0.033803  0  4.19665  0
C  C32  1  0.03645177  0.98324108  0.24824872  1  0.152246  0  -0.003058  0.050765  0  4.137169  0
C  C33  1  0.72251293  0.11042654  0.58286952  1  -0.058855  0  -0.036801  -0.082321  0  4.088189  0
C  C34  1  0.65511540  0.11962174  0.60000560  1  -0.062996  0  -0.04963  -0.04507  0  4.328424  0
C  C35  1  0.00802672  0.29294986  0.39032609  1  0.146816  0  -0.029819  0.035024  0  4.214234  0
C  C36  1  0.57463818  0.12219790  0.61186779  1  -0.353077  0  -0.052015  -0.051622  0  4.334201  0
C  C37  1  0.49620828  0.11715997  0.61699942  1  0.046825  0  -0.037844  -0.080528  0  4.103304  0
C  C38  1  0.00985564  0.37784717  0.38129993  1  -0.403688  0  -0.040306  -0.08741  0  4.102687  0
C  C39  1  0.10738280  0.17654651  0.72376695  1  0.459474  0  0.022383  -0.030643  0  3.914515  0
C  C40  1  0.01881307  0.45882594  0.38415560  1  0.208397  0  -0.051716  -0.047398  0  4.335034  0
C  C41  1  0.02617839  0.54874037  0.39392095  1  0.140955  0  -0.052191  -0.052541  0  4.331301  0
C  C42  1  0.03163582  0.63125226  0.40995843  1  -0.340322  0  -0.034964  -0.075263  0  4.089422  0
C  C43  1  0.18485496  0.36185300  0.81213856  1  -0.340457  0  -0.044955  -0.09397  0  4.133392  0
C  C44  1  0.31448491  0.50878523  0.96252331  1  0.070207  0  -0.071742  -0.046077  0  4.089164  0
C  C45  1  0.34775572  0.49237670  0.03129165  1  0.154445  0  -0.07778  -0.071894  0  4.08321  0
C  C46  1  0.14030835  0.27717092  0.73515772  1  0.125894  0  -0.025196  0.043702  0  4.184235  0
C  C47  1  0.43547511  0.56752551  0.10560291  1  -0.294151  0  -0.038897  -0.039507  0  4.182648  0
C  C48  1  0.23884835  0.43134971  0.88322026  1  -0.028457  0  -0.054467  -0.076399  0  4.196904  0
C  C49  1  0.51610592  0.63110139  0.16855573  1  -0.082813  0  -0.051804  -0.114036  0  4.151206  0
C  C50  1  0.02990331  0.98097161  0.17024507  1  -0.406092  0  -0.022659  -0.058527  0  4.070852  0
C  C51  1  0.82830815  0.09981511  0.50031149  1  0.412358  0  0.019384  -0.038268  0  3.910727  0
C  C52  1  0.99155621  0.96843751  0.01911732  1  0.080076  0  -0.041935  -0.032228  0  3.97648  0
C  C53  1  0.92155337  0.98264112  0.96774846  1  0.130451  0  0.004948  -0.009805  0  4.017133  0
C  C54  1  0.90956299  0.95662036  0.88428876  1  -0.19564  0  -0.032007  -0.061147  0  4.127168  0
C  C55  1  0.01151288  0.97917074  0.10068985  1  0.170994  0  -0.030849  -0.032349  0  4.142106  0
C  C56  1  0.91072120  0.93101013  0.81575522  1  -0.077097  0  -0.041105  -0.087495  0  4.126071  0
C  C57  1  0.78578939  0.07994027  0.55617347  1  0.090501  0  -0.024362  0.0415  0  4.192251  0
C  C58  1  0.13820018  0.27321473  0.65710197  1  0.426733  0  0.020005  -0.039394  0  3.927004  0
C  C59  1  0.80718150  0.00650274  0.57052043  1  0.429283  0  0.020776  -0.032681  0  3.91843  0
C  C60  1  0.92960563  0.18991581  0.34802585  1  0.401759  0  0.014988  -0.052904  0  3.95635  0
C  C61  1  0.02231583  0.94801679  0.73863148  1  0.515714  0  0.083859  -0.018806  0  3.991111  0
C  C62  1  0.92571659  0.91177746  0.74256421  1  0.082892  0  -0.007873  0.051553  0  4.150103  0
C  C63  1  0.20909428  0.14848007  0.35274289  1  1.466035  0  0.233132  0.557546  0  4.131016  0
C  C64  1  0.85881282  0.02492508  0.99259873  1  1.514975  0  0.226848  0.568199  0  4.127969  0
C  C65  1  0.12602783  0.01019909  0.80756176  1  1.421244  0  0.225344  0.54482  0  4.167938  0
C  C66  1  0.63807646  0.64155269  0.35022214  1  1.43607  0  0.2281  0.550666  0  4.140316  0
C  C67  1  0.66342910  0.71444583  0.31540792  1  0.524618  0  0.084376  -0.015888  0  3.981815  0
C  C68  1  0.34565402  0.13874330  0.56101610  1  0.4409  0  0.01252  -0.040184  0  3.959978  0
C  C69  1  0.10297756  0.81873168  0.49811911  1  0.390493  0  0.021454  -0.033022  0  3.911653  0
C  C70  1  0.95772540  0.92021443  0.26330376  1  0.363113  0  0.017814  -0.054591  0  3.914915  0
C  C71  1  0.11554015  0.05533629  0.33007589  1  0.477935  0  0.089876  -0.005  0  3.958518  0
N  N72  1  0.90370937  0.86439196  0.60797488  1  -0.754735  0  -0.246138  -0.154289  0  3.511642  0
N  N73  1  0.09112683  0.11932878  0.64679117  1  -0.782213  0  -0.275759  -0.181713  0  3.59724  0
N  N74  1  0.86864012  0.04041433  0.48204096  1  -0.806332  0  -0.281667  -0.186705  0  3.633131  0
N  N75  1  0.10999077  0.17881991  0.60578285  1  -0.783182  0  -0.27551  -0.186644  0  3.624091  0
N  N76  1  0.85544984  0.98318235  0.52505158  1  -0.778874  0  -0.279356  -0.187732  0  3.637693  0
N  N77  1  0.96105945  0.13619414  0.38132389  1  -0.792874  0  -0.275004  -0.183247  0  3.58836  0
N  N78  1  0.00673397  0.91956601  0.65745992  1  -0.720515  0  -0.249898  -0.180655  0  3.500481  0
N  N79  1  0.75195759  0.80548689  0.36186858  1  -0.72058  0  -0.24747  -0.183384  0  3.498582  0
N  N80  1  0.25817160  0.11967380  0.56926520  1  -0.79332  0  -0.266688  -0.191745  0  3.544387  0
N  N81  1  0.05958606  0.87604206  0.51170470  1  -0.782015  0  -0.275317  -0.186144  0  3.594658  0
N  N82  1  0.98662291  0.95350243  0.34734766  1  -0.706284  0  -0.266293  -0.182559  0  3.489251  0
N  N83  1  0.08351785  0.03479335  0.38755318  1  -0.741233  0  -0.257169  -0.176558  0  3.557423  0
N  N84  1  0.95668328  0.81819640  0.45887326  1  -0.794482  0  -0.282311  -0.187548  0  3.657595  0
N  N85  1  0.75917807  0.85901410  0.31645185  1  -0.780683  0  -0.252733  -0.142711  0  3.592955  0
N  N86  1  0.25482859  0.07820571  0.62527839  1  -0.785703  0  -0.272407  -0.179591  0  3.557959  0
N  N87  1  0.05905020  0.20125273  0.44511456  1  -0.778027  0  -0.260573  -0.19328  0  3.526892  0
O  O88  1  0.24243165  0.17308583  0.30508588  1  -1.102713  0  -0.272755  -0.443981  0  2.049031  0
O  O89  1  0.25667146  0.21207695  0.43831279  1  -1.116361  0  -0.332178  -0.501344  0  2.310737  0
O  O90  1  0.79254801  0.02998701  0.94354484  1  -1.11473  0  -0.300262  -0.484748  0  2.038965  0
O  O91  1  0.88414892  0.06061616  0.07647647  1  -1.124733  0  -0.333857  -0.481493  0  2.242789  0
O  O92  1  0.14815258  0.04126575  0.88238488  1  -1.096664  0  -0.279211  -0.453675  0  2.059091  0
O  O93  1  0.20067704  0.03358645  0.77785363  1  -1.110972  0  -0.338265  -0.505679  0  2.269717  0
O  O94  1  0.56661275  0.55463702  0.31612162  1  -1.11287  0  -0.275065  -0.442765  0  2.048888  0
O  O95  1  0.71122287  0.68520296  0.43366710  1  -1.124056  0  -0.340223  -0.511959  0  2.308389  0
