# generated using pymatgen
data_CdP2H34C22S4(NO)4
_symmetry_space_group_name_H-M   'P 1'
_cell_length_a   8.89477232
_cell_length_b   9.34655040
_cell_length_c   10.37286510
_cell_angle_alpha   66.05010349
_cell_angle_beta   76.65561186
_cell_angle_gamma   72.30644693
_symmetry_Int_Tables_number   1
_chemical_formula_structural   CdP2H34C22S4(NO)4
_chemical_formula_sum   'Cd1 P2 H34 C22 S4 N4 O4'
_cell_volume   745.08677820
_cell_formula_units_Z   1
loop_
 _symmetry_equiv_pos_site_id
 _symmetry_equiv_pos_as_xyz
  1  'x, y, z'
loop_
 _atom_site_type_symbol
 _atom_site_label
 _atom_site_symmetry_multiplicity
 _atom_site_fract_x
 _atom_site_fract_y
 _atom_site_fract_z
 _atom_site_occupancy
 _atom_site_hle17_bader_spin_density
 _atom_site_hle17_ddec_charge
 _atom_site_hle17_ddec_spin_density
 _atom_site_hle17_ddec_sum_bond_order
 _atom_site_hle17_magmom
 _atom_site_hse06_10hf_bader_spin_density
 _atom_site_hse06_10hf_ddec_charge
 _atom_site_hse06_10hf_ddec_spin_density
 _atom_site_hse06_10hf_ddec_sum_bond_order
 _atom_site_hse06_10hf_magmom
 _atom_site_hse06_bader_spin_density
 _atom_site_hse06_ddec_charge
 _atom_site_hse06_ddec_spin_density
 _atom_site_hse06_ddec_sum_bond_order
 _atom_site_hse06_magmom
 _atom_site_pbe_bader_spin_density
 _atom_site_pbe_cm5_charge
 _atom_site_pbe_ddec_charge
 _atom_site_pbe_ddec_spin_density
 _atom_site_pbe_ddec_sum_bond_order
 _atom_site_pbe_magmom
Cd  Cd0  1  0.50000035  0.99999945  0.49999904  1  0  0.806941  0  2.103411  0  0  0.653385  0  2.543069  0  0  0.69256  0  2.516668  0  0  0.615286  0.626631  0  2.559721  0
P  P1  1  0.63522870  0.63041916  0.69035953  1  0  0.992063  0  4.86803  0  0  0.875447  0  5.380265  0  0  0.920277  0  5.35673  0  0  0.243719  0.844436  0  5.395439  0
P  P2  1  0.36476985  0.36958240  0.30963885  1  0  0.992069  0  4.867996  0  0  0.87544  0  5.380254  0  0  0.920281  0  5.356702  0  0  0.243697  0.844433  0  5.395427  0
H  H3  1  0.18140047  0.16318882  0.30707286  1  0  0.092961  0  0.978897  0  0  0.095417  0  1.056141  0  0  0.098603  0  1.051969  0  0  0.125976  0.093276  0  1.058778  0
H  H4  1  0.81860120  0.83680913  0.69292723  1  0  0.092989  0  0.978902  0  0  0.095429  0  1.056162  0  0  0.098616  0  1.051985  0  0  0.125971  0.093288  0  1.058797  0
H  H5  1  0.34941414  0.67039923  0.54496061  1  0  0.111022  0  0.954236  0  0  0.1185  0  1.01709  0  0  0.121373  0  1.015106  0  0  0.115285  0.116448  0  1.018613  0
H  H6  1  0.65059558  0.32958901  0.45503768  1  0  0.111023  0  0.954488  0  0  0.11855  0  1.01727  0  0  0.12142  0  1.015289  0  0  0.115286  0.116494  0  1.018808  0
H  H7  1  0.07009316  0.71087167  0.44160817  1  0  0.111163  0  0.973692  0  0  0.118589  0  1.042945  0  0  0.121305  0  1.041615  0  0  0.114714  0.116808  0  1.043883  0
H  H8  1  0.92990331  0.28911903  0.55838979  1  0  0.111149  0  0.974067  0  0  0.118593  0  1.043261  0  0  0.121297  0  1.041944  0  0  0.114667  0.116812  0  1.044197  0
H  H9  1  0.91456930  0.16309603  0.26162098  1  0  0.085749  0  0.928121  0  0  0.100772  0  0.991492  0  0  0.101386  0  0.991497  0  0  0.11244  0.10024  0  0.991415  0
H  H10  1  0.08543090  0.83690315  0.73838182  1  0  0.085785  0  0.928023  0  0  0.10079  0  0.991398  0  0  0.101405  0  0.991403  0  0  0.112468  0.100258  0  0.991322  0
H  H11  1  0.84883399  0.98302469  0.34259088  1  0  0.082193  0  0.96834  0  0  0.092924  0  1.041488  0  0  0.093683  0  1.041543  0  0  0.100625  0.092437  0  1.041325  0
H  H12  1  0.15116858  0.01697444  0.65740764  1  0  0.082179  0  0.96838  0  0  0.092912  0  1.041511  0  0  0.093671  0  1.041566  0  0  0.100603  0.092425  0  1.041348  0
H  H13  1  0.75477341  0.94904008  0.16522265  1  0  0.099047  0  0.955308  0  0  0.114061  0  1.011452  0  0  0.116143  0  1.011279  0  0  0.097163  0.112365  0  1.011994  0
H  H14  1  0.24522544  0.05096511  0.83477627  1  0  0.09904  0  0.955326  0  0  0.114053  0  1.011465  0  0  0.116135  0  1.011292  0  0  0.097178  0.112357  0  1.012006  0
H  H15  1  0.20344182  0.07904239  0.06870349  1  0  0.0882  0  0.966239  0  0  0.099891  0  1.028349  0  0  0.102537  0  1.027236  0  0  0.101974  0.097808  0  1.029348  0
H  H16  1  0.79656106  0.92096036  0.93129459  1  0  0.0882  0  0.966336  0  0  0.0999  0  1.028429  0  0  0.102545  0  1.027317  0  0  0.10198  0.097818  0  1.029429  0
H  H17  1  0.89388341  0.32811784  0.82446867  1  0  0.049596  0  0.931156  0  0  0.063815  0  0.994917  0  0  0.063434  0  0.996474  0  0  0.09817  0.06388  0  0.993998  0
H  H18  1  0.10611565  0.67188133  0.17553243  1  0  0.049602  0  0.931151  0  0  0.063796  0  0.994941  0  0  0.063413  0  0.996504  0  0  0.09817  0.063864  0  0.994025  0
H  H19  1  0.93949572  0.46682730  0.64990768  1  0  0.03344  0  0.963675  0  0  0.044344  0  1.039916  0  0  0.044926  0  1.038614  0  0  0.08743  0.043513  0  1.041713  0
H  H20  1  0.06050076  0.53317308  0.35009346  1  0  0.033437  0  0.963662  0  0  0.044353  0  1.039899  0  0  0.044936  0  1.038592  0  0  0.087433  0.043522  0  1.041698  0
H  H21  1  0.16481646  0.37806858  0.78935969  1  0  0.107141  0  0.97539  0  0  0.129713  0  1.036694  0  0  0.130056  0  1.038585  0  0  0.08949  0.129465  0  1.035132  0
H  H22  1  0.83518208  0.62193299  0.21063869  1  0  0.107181  0  0.975335  0  0  0.129777  0  1.036614  0  0  0.130115  0  1.038509  0  0  0.08952  0.129529  0  1.035049  0
H  H23  1  0.03949675  0.44680413  0.92323562  1  0  0.104309  0  0.957443  0  0  0.126043  0  1.015285  0  0  0.127573  0  1.015031  0  0  0.088762  0.124545  0  1.016148  0
H  H24  1  0.96050090  0.55319624  0.07676434  1  0  0.10434  0  0.957416  0  0  0.126076  0  1.01526  0  0  0.127608  0  1.014999  0  0  0.088783  0.124576  0  1.016124  0
H  H25  1  0.08085594  0.58700838  0.74810461  1  0  0.09821  0  0.964142  0  0  0.118066  0  1.02936  0  0  0.119039  0  1.030138  0  0  0.085492  0.117023  0  1.029131  0
H  H26  1  0.91914031  0.41299319  0.25189324  1  0  0.098243  0  0.964137  0  0  0.118099  0  1.029364  0  0  0.119072  0  1.030142  0  0  0.085516  0.117057  0  1.029133  0
H  H27  1  0.40036269  0.45915489  0.88644837  1  0  0.047403  0  0.925049  0  0  0.062494  0  0.988314  0  0  0.063302  0  0.987184  0  0  0.094175  0.062446  0  0.988258  0
H  H28  1  0.59963466  0.54084670  0.11355312  1  0  0.047384  0  0.924957  0  0  0.062477  0  0.988232  0  0  0.063287  0  0.987099  0  0  0.094164  0.06243  0  0.988175  0
H  H29  1  0.59412395  0.35344089  0.93477370  1  0  0.047835  0  0.948676  0  0  0.059466  0  1.018508  0  0  0.060258  0  1.017801  0  0  0.090748  0.05933  0  1.018187  0
H  H30  1  0.40587374  0.64656430  0.06522543  1  0  0.047808  0  0.94863  0  0  0.059443  0  1.018476  0  0  0.060234  0  1.01777  0  0  0.090731  0.059307  0  1.018155  0
H  H31  1  0.43534664  0.16175357  0.95993472  1  0  0.101757  0  0.958582  0  0  0.124454  0  1.019407  0  0  0.125021  0  1.020355  0  0  0.088664  0.123982  0  1.019021  0
H  H32  1  0.56465299  0.83824803  0.04006826  1  0  0.101741  0  0.958626  0  0  0.124432  0  1.019455  0  0  0.124999  0  1.020403  0  0  0.088665  0.12396  0  1.019069  0
H  H33  1  0.60235967  0.15339726  0.82767899  1  0  0.104889  0  0.967289  0  0  0.122563  0  1.033901  0  0  0.123526  0  1.035308  0  0  0.085452  0.121733  0  1.033007  0
H  H34  1  0.39763880  0.84660434  0.17232421  1  0  0.104909  0  0.967242  0  0  0.12257  0  1.033871  0  0  0.12353  0  1.035281  0  0  0.085449  0.121739  0  1.032977  0
H  H35  1  0.41134575  0.25851515  0.77461728  1  0  0.104435  0  0.969443  0  0  0.123828  0  1.035096  0  0  0.125298  0  1.034938  0  0  0.082827  0.122909  0  1.03498  0
H  H36  1  0.58865212  0.74148405  0.22538692  1  0  0.104416  0  0.969484  0  0  0.123809  0  1.035137  0  0  0.12528  0  1.034978  0  0  0.082814  0.122892  0  1.035019  0
C  C37  1  0.19160272  0.03437436  0.35854818  1  0  0.141663  0  3.681311  0  0  0.079963  0  3.952795  0  0  0.09343  0  3.965811  0  0  0.130038  0.071552  0  3.943383  0
C  C38  1  0.80839923  0.96562238  0.64145230  1  0  0.141684  0  3.681783  0  0  0.079996  0  3.953249  0  0  0.093464  0  3.966268  0  0  0.130108  0.071586  0  3.943834  0
C  C39  1  0.27252820  0.77902632  0.48140030  1  0  0.012436  0  3.735815  0  0  -0.022525  0  4.005589  0  0  -0.019505  0  4.024386  0  0  -0.001802  -0.02466  0  3.993007  0
C  C40  1  0.72746417  0.22097758  0.51858777  1  0  0.012349  0  3.735349  0  0  -0.022657  0  4.005135  0  0  -0.019627  0  4.023916  0  0  -0.001851  -0.024797  0  3.992551  0
C  C41  1  0.13626404  0.79626564  0.43002106  1  0  -0.060691  0  3.650397  0  0  -0.102235  0  3.914552  0  0  -0.101038  0  3.932821  0  0  -0.001874  -0.103007  0  3.901401  0
C  C42  1  0.86375326  0.20373950  0.56997824  1  0  -0.060592  0  3.649926  0  0  -0.102154  0  3.914082  0  0  -0.100938  0  3.932336  0  0  -0.001731  -0.102924  0  3.90093  0
C  C43  1  0.94777151  0.03508801  0.27501018  1  0  -0.042585  0  3.658844  0  0  -0.108188  0  3.901642  0  0  -0.104015  0  3.912948  0  0  -0.050202  -0.110842  0  3.893565  0
C  C44  1  0.05223107  0.96491597  0.72498944  1  0  -0.042621  0  3.658898  0  0  -0.108214  0  3.901717  0  0  -0.104045  0  3.913024  0  0  -0.050242  -0.110868  0  3.893639  0
C  C45  1  0.97622269  0.01582661  0.13307556  1  0  0.066838  0  3.752043  0  0  0.085431  0  3.992056  0  0  0.084619  0  4.01627  0  0  -0.013541  0.085874  0  3.975489  0
C  C46  1  0.02378215  0.98417254  0.86692541  1  0  0.06682  0  3.752186  0  0  0.085426  0  3.992159  0  0  0.084617  0  4.016372  0  0  -0.013507  0.08587  0  3.975592  0
C  C47  1  0.86238362  0.97194311  0.09254379  1  0  -0.108124  0  3.739734  0  0  -0.123317  0  3.981257  0  0  -0.126007  0  4.003447  0  0  -0.089712  -0.121783  0  3.966472  0
C  C48  1  0.13761719  0.02805846  0.90745704  1  0  -0.108076  0  3.739843  0  0  -0.123267  0  3.981351  0  0  -0.125958  0  4.003539  0  0  -0.089707  -0.121733  0  3.966564  0
C  C49  1  0.11396127  0.04390049  0.03906303  1  0  -0.11197  0  3.755796  0  0  -0.132595  0  4.00407  0  0  -0.13487  0  4.025732  0  0  -0.090482  -0.130635  0  3.989391  0
C  C50  1  0.88603897  0.95609867  0.96093688  1  0  -0.111931  0  3.75585  0  0  -0.132572  0  4.00413  0  0  -0.134847  0  4.025793  0  0  -0.090468  -0.130616  0  3.989453  0
C  C51  1  0.91825919  0.44797069  0.76393505  1  0  0.177856  0  3.599862  0  0  0.123178  0  3.868899  0  0  0.13242  0  3.873925  0  0  -0.069211  0.116906  0  3.865585  0
C  C52  1  0.08173845  0.55202968  0.23606587  1  0  0.17792  0  3.599669  0  0  0.12324  0  3.868725  0  0  0.132484  0  3.87375  0  0  -0.069192  0.116964  0  3.865419  0
C  C53  1  0.05823539  0.46681217  0.80951387  1  0  -0.318115  0  3.707059  0  0  -0.393876  0  3.94638  0  0  -0.397239  0  3.956396  0  0  -0.248702  -0.391411  0  3.940068  0
C  C54  1  0.94176313  0.53318941  0.19048644  1  0  -0.318229  0  3.706987  0  0  -0.394023  0  3.946318  0  0  -0.39738  0  3.956333  0  0  -0.248788  -0.391555  0  3.940006  0
C  C55  1  0.51279882  0.38122322  0.85806251  1  0  0.17809  0  3.589306  0  0  0.123273  0  3.85853  0  0  0.1322  0  3.863672  0  0  -0.068492  0.117321  0  3.854062  0
C  C56  1  0.48720029  0.61878077  0.14193776  1  0  0.178201  0  3.589165  0  0  0.123369  0  3.858398  0  0  0.132294  0  3.863538  0  0  -0.068432  0.117416  0  3.853931  0
C  C57  1  0.48881438  0.22979680  0.85451867  1  0  -0.315473  0  3.694341  0  0  -0.391598  0  3.937765  0  0  -0.394714  0  3.947513  0  0  -0.250103  -0.389466  0  3.931202  0
C  C58  1  0.51118555  0.77020359  0.14548375  1  0  -0.315467  0  3.694468  0  0  -0.391581  0  3.937917  0  0  -0.394693  0  3.947667  0  0  -0.250093  -0.389446  0  3.931351  0
S  S59  1  0.46701896  0.78207466  0.76748164  1  0  -0.556627  0  1.958542  0  0  -0.514517  0  2.301194  0  0  -0.532898  0  2.289177  0  0  -0.200809  -0.502618  0  2.308858  0
S  S60  1  0.53297957  0.21792691  0.23251771  1  0  -0.556624  0  1.958539  0  0  -0.51451  0  2.301189  0  0  -0.532891  0  2.28917  0  0  -0.200807  -0.502609  0  2.308852  0
S  S61  1  0.71456492  0.71405269  0.48400257  1  0  -0.569877  0  1.891923  0  0  -0.526914  0  2.225656  0  0  -0.544374  0  2.212814  0  0  -0.208014  -0.515414  0  2.233756  0
S  S62  1  0.28543417  0.28594646  0.51599660  1  0  -0.569833  0  1.891856  0  0  -0.526875  0  2.225603  0  0  -0.544334  0  2.212751  0  0  -0.207991  -0.515375  0  2.233703  0
N  N63  1  0.30525578  0.92840900  0.43639515  1  0  -0.383522  0  3.310655  0  0  -0.305982  0  3.580675  0  0  -0.327463  0  3.603197  0  0  -0.361184  -0.291075  0  3.564932  0
N  N64  1  0.69474846  0.07158290  0.56360476  1  0  -0.383488  0  3.310838  0  0  -0.305949  0  3.580901  0  0  -0.327436  0  3.60343  0  0  -0.361197  -0.291041  0  3.56515  0
N  N65  1  0.08624152  0.95892716  0.35266890  1  0  -0.062129  0  3.578435  0  0  0.033396  0  3.794517  0  0  0.018725  0  3.821164  0  0  -0.245746  0.043457  0  3.775572  0
N  N66  1  0.91375834  0.04106357  0.64733420  1  0  -0.062186  0  3.578611  0  0  0.033332  0  3.794691  0  0  0.018663  0  3.821334  0  0  -0.245817  0.043392  0  3.775746  0
O  O67  1  0.77724450  0.56817904  0.78882909  1  0  -0.461006  0  2.242993  0  0  -0.374929  0  2.487821  0  0  -0.39572  0  2.481839  0  0  -0.224602  -0.3604  0  2.491604  0
O  O68  1  0.22275318  0.43182131  0.21116893  1  0  -0.461078  0  2.242893  0  0  -0.374982  0  2.487722  0  0  -0.395783  0  2.481745  0  0  -0.224622  -0.360449  0  2.491497  0
O  O69  1  0.58040987  0.47105212  0.71563147  1  0  -0.451701  0  2.268151  0  0  -0.365685  0  2.514811  0  0  -0.387622  0  2.511702  0  0  -0.21635  -0.349802  0  2.515801  0
O  O70  1  0.41958606  0.52895067  0.28436888  1  0  -0.451762  0  2.26818  0  0  -0.365727  0  2.514832  0  0  -0.387662  0  2.511723  0  0  -0.216364  -0.349847  0  2.51583  0
