# generated using pymatgen
data_CuH12C12N5ClO4
_symmetry_space_group_name_H-M   'P 1'
_cell_length_a   7.54171405
_cell_length_b   9.52645286
_cell_length_c   10.05781404
_cell_angle_alpha   87.66764456
_cell_angle_beta   88.58493329
_cell_angle_gamma   84.93837665
_symmetry_Int_Tables_number   1
_chemical_formula_structural   CuH12C12N5ClO4
_chemical_formula_sum   'Cu2 H24 C24 N10 Cl2 O8'
_cell_volume   719.03561563
_cell_formula_units_Z   2
loop_
 _symmetry_equiv_pos_site_id
 _symmetry_equiv_pos_as_xyz
  1  'x, y, z'
loop_
 _atom_site_type_symbol
 _atom_site_label
 _atom_site_symmetry_multiplicity
 _atom_site_fract_x
 _atom_site_fract_y
 _atom_site_fract_z
 _atom_site_occupancy
 _atom_site_hle17_ddec_charge
 _atom_site_hle17_ddec_spin_density
 _atom_site_hle17_ddec_sum_bond_order
 _atom_site_hle17_magmom
 _atom_site_hse06_10hf_bader_charge
 _atom_site_hse06_10hf_bader_spin_density
 _atom_site_hse06_10hf_ddec_charge
 _atom_site_hse06_10hf_ddec_spin_density
 _atom_site_hse06_10hf_ddec_sum_bond_order
 _atom_site_hse06_10hf_magmom
 _atom_site_hse06_ddec_charge
 _atom_site_hse06_ddec_spin_density
 _atom_site_hse06_ddec_sum_bond_order
 _atom_site_hse06_magmom
 _atom_site_pbe_cm5_charge
 _atom_site_pbe_ddec_charge
 _atom_site_pbe_ddec_spin_density
 _atom_site_pbe_ddec_sum_bond_order
 _atom_site_pbe_magmom
Cu  Cu0  1  0.84159671  0.30867804  0.20275786  1  0.791718  0.606351  1.879274  0.44  1.071004  0.600598  0.791987  0.762304  2.275433  0.598  0.906745  0.876398  2.193895  0.719  0.656872  0.719589  0.659659  2.335797  0.508
Cu  Cu1  1  0.15840709  0.69130891  0.79723066  1  0.791857  -0.606335  1.87909  -0.44  1.071112  -0.600573  0.792015  -0.762285  2.275258  -0.598  0.906863  -0.876387  2.193611  -0.719  0.656887  0.719645  -0.659669  2.335565  -0.508
H  H2  1  0.34390320  0.27547935  0.54064847  1  0.323883  0.000563  0.833255  0.001  0.529583  0.000878  0.31753  0.000535  0.871997  0.001  0.325067  0.000419  0.866527  0.001  0.34828  0.311432  0.000618  0.876964  0.001
H  H3  1  0.65609900  0.72456144  0.45934333  1  0.32399  -0.000562  0.833129  -0.001  0.529657  -0.000878  0.317634  -0.000535  0.871907  -0.001  0.325163  -0.000419  0.86643  -0.001  0.348308  0.311531  -0.000617  0.876872  -0.001
H  H4  1  0.21000768  0.30560791  0.04059290  1  0.321681  0.000486  0.905661  0.0  0.545364  0.000564  0.301356  0.000568  0.967069  0.0  0.310905  0.00032  0.960244  0.0  0.316021  0.294614  0.000687  0.971921  0.001
H  H5  1  0.78999562  0.69437073  0.95940501  1  0.321778  -0.000487  0.905525  0.0  0.545195  -0.000565  0.301412  -0.000568  0.966992  0.0  0.310968  -0.00032  0.96016  0.0  0.315998  0.29466  -0.000688  0.971851  -0.001
H  H6  1  0.59400267  0.04646296  0.26974984  1  0.308241  -0.000115  0.875142  0.0  0.559534  -4.4e-05  0.286481  -9.6e-05  0.945602  0.0  0.295465  -6.7e-05  0.938384  0.0  0.314451  0.279891  -0.000176  0.950737  0.0
H  H7  1  0.40599876  0.95353286  0.73027009  1  0.308182  0.000115  0.875095  0.0  0.559524  4.4e-05  0.286461  9.6e-05  0.945563  0.0  0.295434  6.6e-05  0.938332  0.0  0.314384  0.279872  0.000176  0.95069  0.0
H  H8  1  0.41448737  0.04066836  0.37768159  1  0.300503  5.7e-05  0.905334  0.0  0.548754  4.7e-05  0.277239  4.8e-05  0.974001  0.0  0.286935  2.6e-05  0.966975  0.0  0.304047  0.270279  6.8e-05  0.97884  0.0
H  H9  1  0.58549965  0.95933900  0.62232906  1  0.300335  -5.7e-05  0.90531  0.0  0.54898  -4.7e-05  0.277135  -4.8e-05  0.973937  0.0  0.286817  -2.6e-05  0.966919  0.0  0.303988  0.270175  -6.8e-05  0.978767  0.0
H  H10  1  0.40703866  0.88142528  0.19747737  1  0.101625  -2.1e-05  0.952801  0.0  0.095693  -2.5e-05  0.12158  -9e-06  1.016703  0.0  0.122071  -1.7e-05  1.017177  0.0  0.105296  0.120833  4e-06  1.0172  0.0
H  H11  1  0.59295294  0.11856315  0.80253912  1  0.101562  2.3e-05  0.952758  0.0  0.095881  2.4e-05  0.121513  9e-06  1.016655  0.0  0.122005  1.8e-05  1.017136  0.0  0.105267  0.120766  -3e-06  1.017169  0.0
H  H12  1  0.40486960  0.02735236  0.08125305  1  0.106529  -3.1e-05  0.949588  0.0  0.08634  -3.1e-05  0.125532  -2.9e-05  1.012546  0.0  0.127152  -1.8e-05  1.01226  0.0  0.107531  0.124289  -2.6e-05  1.012747  0.0
H  H13  1  0.59513045  0.97264442  0.91875890  1  0.106594  3.2e-05  0.949657  0.0  0.086013  3e-05  0.125532  2.9e-05  1.012676  0.0  0.127167  1.8e-05  1.012365  0.0  0.107547  0.124326  2.6e-05  1.012837  0.0
H  H14  1  0.22258641  0.01421707  0.19821150  1  0.106148  6.7e-05  0.978459  0.0  0.098382  2.6e-05  0.126007  4.6e-05  1.039357  0.0  0.127061  2.4e-05  1.040485  0.0  0.10706  0.12471  6.7e-05  1.039059  0.0
H  H15  1  0.77741286  0.98578712  0.80180208  1  0.106135  -6.6e-05  0.978574  0.0  0.098396  -2.5e-05  0.125983  -4.5e-05  1.039448  0.0  0.127034  -2.4e-05  1.040583  0.0  0.10707  0.124695  -6.6e-05  1.039148  0.0
H  H16  1  0.27379666  0.25239769  0.28709138  1  0.123912  -0.000148  0.93287  0.0  0.216845  -0.000194  0.126724  -9.8e-05  0.999596  0.0  0.131703  -0.000105  0.995826  0.0  0.128789  0.123065  -7.7e-05  1.002194  0.0
H  H17  1  0.72621429  0.74759674  0.71290659  1  0.123862  0.000146  0.932812  0.0  0.216743  0.000194  0.126744  9.8e-05  0.999541  0.0  0.131724  0.000105  0.995774  0.0  0.128774  0.123088  7.7e-05  1.002123  0.0
H  H18  1  0.58463504  0.36881918  0.68080022  1  0.106169  0.000345  0.973706  0.0  0.151864  0.000827  0.120162  0.000388  1.030952  0.0  0.122023  0.00032  1.030393  0.0  0.123158  0.117957  0.000385  1.033341  0.0
H  H19  1  0.41538134  0.63123917  0.31916859  1  0.106248  -0.000346  0.973447  0.0  0.151481  -0.000827  0.120171  -0.000388  1.030795  0.0  0.122033  -0.00032  1.030231  0.0  0.123111  0.117966  -0.000385  1.033187  0.0
H  H20  1  0.86342744  0.40777839  0.50281854  1  0.113449  0.000226  0.962596  0.0  0.148232  0.000962  0.118522  0.000388  1.027987  0.001  0.121803  0.000311  1.025225  0.001  0.110666  0.115529  0.0004  1.030928  0.001
H  H21  1  0.13658366  0.59225451  0.49713872  1  0.113472  -0.000225  0.962702  0.0  0.148283  -0.000962  0.118544  -0.000388  1.028098  -0.001  0.121827  -0.000311  1.025332  -0.001  0.110631  0.115549  -0.000401  1.031036  -0.001
H  H22  1  0.73043184  0.37523082  0.89474980  1  0.117046  -0.000425  0.967558  0.0  0.159905  0.000214  0.122969  -0.000167  1.033122  0.0  0.12677  -0.000127  1.030011  0.0  0.108439  0.120082  -0.000245  1.035574  0.0
H  H23  1  0.26956624  0.62473413  0.10524789  1  0.117039  0.000426  0.967616  0.0  0.159908  -0.000214  0.123075  0.000168  1.033052  0.0  0.126878  0.000127  1.029942  0.0  0.108502  0.120186  0.000245  1.035507  0.0
H  H24  1  0.36523965  0.38559247  0.83065100  1  0.108341  0.000585  0.959369  0.001  0.14732  0.001074  0.112117  0.000665  1.031075  0.001  0.114962  0.000547  1.028469  0.001  0.11832  0.109485  0.000675  1.03429  0.001
H  H25  1  0.63475695  0.61438714  0.16933901  1  0.108292  -0.000584  0.95952  -0.001  0.14737  -0.001073  0.112058  -0.000665  1.031209  -0.001  0.114906  -0.000547  1.028605  -0.001  0.118335  0.109428  -0.000676  1.034422  -0.001
C  C26  1  0.36603077  0.99376581  0.18223405  1  -0.133451  4.1e-05  3.55354  0.0  0.206856  5.7e-05  -0.236079  4.9e-05  3.802113  0.0  -0.232729  -0.0  3.80886  0.0  -0.145673  -0.237983  6e-05  3.798168  0.0
C  C27  1  0.63397244  0.00622577  0.81778508  1  -0.133336  -4.8e-05  3.55349  0.0  0.206345  -5.7e-05  -0.235919  -5e-05  3.802124  0.0  -0.232598  -1e-06  3.80886  0.0  -0.145687  -0.237869  -5.8e-05  3.79816  0.0
C  C28  1  0.41831942  0.23200439  0.26858338  1  -0.02815  -5.3e-05  3.597501  0.001  0.259845  0.000516  -0.054804  0.000136  3.826008  0.001  -0.054748  0.000131  3.832869  0.001  0.03248  -0.054958  0.000172  3.822135  0.001
C  C29  1  0.58168645  0.76798794  0.73141380  1  -0.028005  6.5e-05  3.597167  -0.001  0.260103  -0.000515  -0.0549  -0.000136  3.826178  -0.001  -0.054863  -0.000128  3.833043  -0.001  0.032505  -0.055063  -0.000172  3.822326  -0.001
C  C30  1  0.51937793  0.29332924  0.37483567  1  0.314048  -0.004138  3.688695  -0.004  1.044331  -0.002359  0.288047  -0.000937  3.965117  -0.001  0.305947  -0.001817  3.97797  -0.002  0.218407  0.275813  -0.000339  3.958089  0.0
C  C31  1  0.48062459  0.70668299  0.62515061  1  0.314233  0.004135  3.688653  0.004  1.044768  0.002363  0.288293  0.00094  3.965071  0.001  0.306155  0.001812  3.977963  0.002  0.218474  0.276064  0.00034  3.958037  0.0
C  C32  1  0.59749266  0.35013237  0.57566912  1  0.014082  0.003999  3.664192  0.004  0.300766  0.00372  -0.025806  0.002399  3.924807  0.003  -0.022377  0.002295  3.940237  0.003  0.008346  -0.028404  0.002269  3.916009  0.002
C  C33  1  0.40251341  0.64992292  0.42430399  1  0.014231  -0.003998  3.663819  -0.004  0.300787  -0.003721  -0.025582  -0.0024  3.924462  -0.003  -0.022166  -0.002295  3.939873  -0.003  0.008567  -0.028185  -0.00227  3.915667  -0.002
C  C34  1  0.73490391  0.36957466  0.48651244  1  0.016475  -0.001753  3.721967  -0.002  0.48093  -0.000364  -0.014663  0.000312  3.99354  0.0  -0.010808  -0.000227  4.013289  -0.001  0.002242  -0.016649  0.0006  3.9806  0.0
C  C35  1  0.26510614  0.63045523  0.51345592  1  0.016414  0.001751  3.722567  0.002  0.480696  0.000362  -0.014746  -0.000313  3.994083  0.0  -0.010898  0.000225  4.013853  0.001  0.002154  -0.016732  -0.000602  3.981145  0.0
C  C36  1  0.46446841  0.28663828  0.13237770  1  0.304161  -0.004262  3.700465  -0.004  1.045612  -0.002964  0.282018  -0.001686  3.965931  -0.002  0.297747  -0.002232  3.981297  -0.003  0.211084  0.27155  -0.001195  3.957136  -0.001
C  C37  1  0.53553260  0.71333711  0.86761345  1  0.304527  0.004256  3.700001  0.004  1.045933  0.002965  0.282273  0.001687  3.965737  0.002  0.298006  0.002229  3.981103  0.003  0.211262  0.271787  0.001195  3.956967  0.001
C  C38  1  0.61448153  0.34786167  0.95359627  1  -0.005029  -6.3e-05  3.710894  0.0  0.411946  0.000756  -0.031435  0.001267  3.979866  0.001  -0.027808  0.000757  3.998574  0.001  -0.003744  -0.033117  0.001341  3.968193  0.001
C  C39  1  0.38552054  0.65210323  0.04639936  1  -0.005305  7.9e-05  3.711028  0.0  0.412233  -0.000755  -0.031818  -0.001268  3.98002  -0.001  -0.028195  -0.000758  3.998737  -0.001  -0.003949  -0.033497  -0.001342  3.968343  -0.001
C  C40  1  0.43720933  0.35385920  0.92055158  1  0.008334  0.003518  3.675069  0.003  0.314329  0.003738  -0.032076  0.00254  3.942204  0.003  -0.029073  0.002234  3.957502  0.002  0.008419  -0.033975  0.002432  3.932987  0.002
C  C41  1  0.56278866  0.64611947  0.07944740  1  0.008588  -0.003538  3.675149  -0.003  0.314116  -0.003738  -0.031748  -0.00254  3.942184  -0.003  -0.028748  -0.002234  3.957494  -0.002  0.008511  -0.033655  -0.002431  3.932963  -0.002
C  C42  1  0.99791863  0.10553559  0.02338235  1  0.185465  -0.003745  3.795627  -0.008  0.743782  -0.001727  0.161603  -0.000146  4.078404  -0.004  0.175688  0.000485  4.097845  -0.002  0.099506  0.15287  -0.000607  4.065596  -0.005
C  C43  1  0.00211260  0.89444200  0.97662410  1  0.185032  0.003735  3.795999  0.008  0.744356  0.001725  0.161095  0.000144  4.078809  0.004  0.175176  -0.000486  4.098267  0.002  0.099305  0.152375  0.000606  4.065974  0.005
C  C44  1  0.89598868  0.98564856  0.07112617  1  0.193396  -0.005488  3.914888  -0.005  0.909364  -0.006269  0.171417  -0.00473  4.217468  -0.005  0.178652  -0.003277  4.239768  -0.004  0.096909  0.166593  -0.005113  4.199613  -0.005
C  C45  1  0.10403904  0.01432395  0.92889352  1  0.193485  0.005493  3.915301  0.005  0.908063  0.006267  0.171582  0.004729  4.217753  0.005  0.178812  0.003277  4.240061  0.004  0.09712  0.166757  0.005112  4.199899  0.005
C  C46  1  0.00530495  0.07120262  0.41815650  1  0.185686  -0.001948  3.885505  -0.003  0.815403  -0.001498  0.168769  -0.00057  4.170697  -0.002  0.183448  -0.00037  4.187018  -0.001  0.088622  0.159826  -0.000458  4.156613  -0.002
C  C47  1  0.99466184  0.92881991  0.58187758  1  0.185522  0.001947  3.88555  0.003  0.817161  0.001499  0.168695  0.000569  4.170592  0.002  0.183375  0.000373  4.18691  0.001  0.088705  0.159751  0.000459  4.156509  0.002
C  C48  1  0.86226590  0.00125879  0.49059417  1  0.186048  -0.002041  3.876015  -0.002  0.832239  -0.002475  0.160968  -0.001796  4.164  -0.002  0.170239  -0.001055  4.18022  -0.001  0.088818  0.155572  -0.002434  4.149812  -0.003
C  C49  1  0.13769837  0.99877533  0.50943837  1  0.186687  0.00204  3.875002  0.002  0.833016  0.002476  0.161552  0.001799  4.162986  0.002  0.170829  0.001047  4.179191  0.001  0.0891  0.156149  0.002436  4.148816  0.003
N  N50  1  0.46329771  0.30277776  0.50375164  1  -0.299829  0.001114  3.424009  0.001  -1.300359  0.002412  -0.241756  0.001481  3.657505  0.002  -0.254773  0.001095  3.666518  0.001  -0.369305  -0.233726  0.001591  3.653349  0.002
N  N51  1  0.53671199  0.69725458  0.49624146  1  -0.300175  -0.001113  3.424174  -0.001  -1.300414  -0.002412  -0.242157  -0.001481  3.657772  -0.002  -0.255117  -0.001092  3.666736  -0.001  -0.369514  -0.234121  -0.00159  3.653608  -0.002
N  N52  1  0.68435456  0.33373263  0.36257409  1  -0.395549  0.05884  3.334101  0.073  -1.241049  0.077333  -0.35821  0.052311  3.646291  0.068  -0.39276  0.046759  3.667448  0.064  -0.372765  -0.339518  0.050121  3.636651  0.063
N  N53  1  0.31563995  0.66628052  0.63739935  1  -0.395796  -0.058828  3.334464  -0.073  -1.241073  -0.077322  -0.358326  -0.052304  3.646495  -0.068  -0.39289  -0.046752  3.667667  -0.064  -0.372722  -0.339638  -0.050114  3.636846  -0.063
N  N54  1  0.62897171  0.30538889  0.08599355  1  -0.405018  0.045967  3.310515  0.058  -1.22139  0.066715  -0.367767  0.045195  3.625864  0.061  -0.398549  0.04018  3.643141  0.057  -0.372601  -0.351767  0.042869  3.619372  0.055
N  N55  1  0.37103251  0.69458117  0.91399483  1  -0.40508  -0.04597  3.310192  -0.058  -1.221923  -0.06671  -0.367789  -0.045194  3.625643  -0.061  -0.39859  -0.040181  3.642926  -0.057  -0.372669  -0.351788  -0.042867  3.619145  -0.055
N  N56  1  0.34599774  0.31519132  0.03371426  1  -0.300581  0.001196  3.431423  0.002  -1.302915  0.002447  -0.233183  0.001568  3.654634  0.002  -0.247185  0.001005  3.666056  0.001  -0.366548  -0.224364  0.001679  3.647585  0.002
N  N57  1  0.65399959  0.68479367  0.96628342  1  -0.300924  -0.001188  3.431334  -0.002  -1.302763  -0.002449  -0.233477  -0.00157  3.654592  -0.002  -0.247488  -0.001003  3.666003  -0.001  -0.366657  -0.224643  -0.001679  3.647545  -0.002
N  N58  1  0.45748266  0.07206470  0.28007791  1  -0.271082  -0.000535  3.317558  -0.001  -1.171158  -0.000506  -0.204599  -0.000314  3.535273  0.0  -0.217123  -0.000369  3.539663  0.0  -0.476364  -0.196736  -0.000399  3.533371  -0.001
N  N59  1  0.54251681  0.92792471  0.71993542  1  -0.271  0.000532  3.317392  0.001  -1.170776  0.000503  -0.204522  0.000312  3.535013  0.0  -0.216973  0.00037  3.539326  0.001  -0.476231  -0.196646  0.000399  3.533115  0.001
Cl  Cl60  1  0.01393591  0.49702098  0.24095216  1  -0.618591  0.062865  0.735294  0.073  -0.71027  0.050714  -0.603256  0.032922  0.968332  0.041  -0.623194  0.024288  0.941348  0.032  -0.40007  -0.593388  0.033691  0.989379  0.04
Cl  Cl61  1  0.98606255  0.50296607  0.75904242  1  -0.61863  -0.06287  0.735233  -0.073  -0.710287  -0.050712  -0.603268  -0.032922  0.968264  -0.041  -0.623223  -0.024291  0.941265  -0.032  -0.400117  -0.593411  -0.033694  0.989306  -0.04
O  O62  1  0.00008213  0.23383909  0.05083121  1  -0.436668  0.064534  2.236152  0.086  -1.156875  0.083701  -0.403941  0.054971  2.499107  0.079  -0.452842  0.042271  2.503256  0.064  -0.282335  -0.3727  0.056031  2.497674  0.078
O  O63  1  0.99991975  0.76612709  0.94918027  1  -0.436569  -0.064578  2.236052  -0.086  -1.157157  -0.083746  -0.403694  -0.054999  2.498909  -0.079  -0.452618  -0.042292  2.503069  -0.064  -0.282169  -0.372459  -0.056054  2.497456  -0.078
O  O64  1  0.77318852  0.96758147  0.15300295  1  -0.460006  -0.004049  2.031997  -0.005  -1.19533  -0.002977  -0.451578  -0.001684  2.27605  -0.002  -0.483644  -0.000742  2.282418  -0.001  -0.303286  -0.424204  -0.002453  2.267728  -0.003
O  O65  1  0.22681683  0.03240258  0.84700559  1  -0.460073  0.004038  2.032145  0.005  -1.194616  0.002971  -0.451676  0.001681  2.276191  0.002  -0.483745  0.000743  2.282565  0.001  -0.303431  -0.424298  0.002456  2.267865  0.003
O  O66  1  0.02252989  0.15578908  0.32040088  1  -0.492077  0.018895  2.185917  0.026  -1.197516  0.025367  -0.468261  0.016961  2.453042  0.025  -0.50564  0.010791  2.453234  0.017  -0.30525  -0.439043  0.021097  2.450975  0.03
O  O67  1  0.97745887  0.84421410  0.67961293  1  -0.492026  -0.018865  2.186169  -0.026  -1.197591  -0.025355  -0.468215  -0.016954  2.453229  -0.025  -0.505614  -0.010779  2.453452  -0.017  -0.305319  -0.439007  -0.02108  2.451159  -0.03
O  O68  1  0.69607158  0.99931397  0.48203491  1  -0.490902  -0.000582  2.090612  -0.001  -1.228696  -0.000589  -0.453625  -0.0003  2.322144  0.0  -0.47714  -6.6e-05  2.323503  0.0  -0.305829  -0.433459  -0.000249  2.318681  0.0
O  O69  1  0.30389140  0.00072006  0.51799069  1  -0.491155  0.000594  2.090105  0.001  -1.228184  0.000589  -0.453918  0.000299  2.321836  0.0  -0.477431  6.6e-05  2.323193  0.0  -0.306029  -0.433748  0.000253  2.318377  0.0
