# generated using pymatgen
data_CdSi2H36C32(N2Cl)2
_symmetry_space_group_name_H-M   'P 1'
_cell_length_a   10.63907073
_cell_length_b   12.44012487
_cell_length_c   14.91143584
_cell_angle_alpha   89.99992137
_cell_angle_beta   90.00063005
_cell_angle_gamma   105.77017884
_symmetry_Int_Tables_number   1
_chemical_formula_structural   CdSi2H36C32(N2Cl)2
_chemical_formula_sum   'Cd2 Si4 H72 C64 N8 Cl4'
_cell_volume   1899.26372442
_cell_formula_units_Z   2
loop_
 _symmetry_equiv_pos_site_id
 _symmetry_equiv_pos_as_xyz
  1  'x, y, z'
loop_
 _atom_site_type_symbol
 _atom_site_label
 _atom_site_symmetry_multiplicity
 _atom_site_fract_x
 _atom_site_fract_y
 _atom_site_fract_z
 _atom_site_occupancy
 _atom_site_pbe_bader_charge
 _atom_site_pbe_bader_spin_density
 _atom_site_pbe_cm5_charge
 _atom_site_pbe_ddec_charge
 _atom_site_pbe_ddec_spin_density
 _atom_site_pbe_ddec_sum_bond_order
 _atom_site_pbe_magmom
Cd  Cd0  1  0.00000464  0.50000263  0.50000053  1  1.158594  0  0.660055  0.672512  0  2.475946  0
Cd  Cd1  1  0.99999780  0.99999757  0.99999957  1  1.15859  0  0.660024  0.672449  0  2.476026  0
Si  Si2  1  0.61504256  0.84333638  0.34796170  1  2.646601  0  0.138976  0.76777  0  3.746274  0
Si  Si3  1  0.38495674  0.65666433  0.84796641  1  2.646442  0  0.139006  0.767864  0  3.746261  0
Si  Si4  1  0.38496089  0.15666701  0.65203721  1  2.646441  0  0.138998  0.767747  0  3.746182  0
Si  Si5  1  0.61503758  0.34333409  0.15203182  1  2.64634  0  0.139025  0.767861  0  3.746056  0
H  H6  1  0.18961432  0.54086498  0.32528433  1  0.141793  0  0.098441  0.079825  0  1.050574  0
H  H7  1  0.81038153  0.95913486  0.82528799  1  0.141644  0  0.098415  0.079841  0  1.050494  0
H  H8  1  0.81038566  0.45914512  0.67471256  1  0.141643  0  0.098423  0.079822  0  1.050503  0
H  H9  1  0.18961493  0.04085853  0.17471360  1  0.14174  0  0.098408  0.079814  0  1.050509  0
H  H10  1  0.40591656  0.65503456  0.26807868  1  0.052508  0  0.104365  0.0977  0  1.011683  0
H  H11  1  0.59407488  0.84496602  0.76808346  1  0.052638  0  0.104371  0.09775  0  1.011641  0
H  H12  1  0.59408167  0.34497304  0.73191956  1  0.052539  0  0.104323  0.097669  0  1.011568  0
H  H13  1  0.40591877  0.15503324  0.23191946  1  0.052558  0  0.104353  0.097701  0  1.011611  0
H  H14  1  0.44564790  0.84517725  0.51457410  1  0.044533  0  0.10003  0.090839  0  1.034607  0
H  H15  1  0.55435954  0.65482688  0.01457986  1  0.044689  0  0.100055  0.090772  0  1.03463  0
H  H16  1  0.55435705  0.15483366  0.48542480  1  0.044819  0  0.100005  0.090779  0  1.034591  0
H  H17  1  0.44563355  0.34516486  0.98541838  1  0.04477  0  0.099996  0.09066  0  1.034647  0
H  H18  1  0.22918195  0.72007657  0.56117314  1  0.122317  0  0.104479  0.078607  0  1.047647  0
H  H19  1  0.77082906  0.77992765  0.06117775  1  0.12214  0  0.104451  0.078539  0  1.047671  0
H  H20  1  0.77082446  0.27993016  0.43882577  1  0.122276  0  0.104449  0.07857  0  1.047712  0
H  H21  1  0.22916725  0.22006240  0.93882451  1  0.122168  0  0.104425  0.078491  0  1.047883  0
H  H22  1  0.97102548  0.64730298  0.33058190  1  0.107762  0  0.110463  0.083068  0  1.007274  0
H  H23  1  0.02898038  0.85269850  0.83057961  1  0.107804  0  0.110475  0.08312  0  1.007295  0
H  H24  1  0.02897098  0.35269627  0.66942438  1  0.108088  0  0.110431  0.083088  0  1.007151  0
H  H25  1  0.97102145  0.14729988  0.16941661  1  0.107877  0  0.110468  0.083124  0  1.007291  0
H  H26  1  0.84123181  0.76981060  0.26977430  1  0.141179  0  0.0954  0.111979  0  1.056741  0
H  H27  1  0.15877292  0.73018741  0.76977785  1  0.14127  0  0.095391  0.111987  0  1.056771  0
H  H28  1  0.15876881  0.23018696  0.73022527  1  0.141154  0  0.095402  0.112003  0  1.056747  0
H  H29  1  0.84122891  0.26981097  0.23021971  1  0.141322  0  0.095361  0.111936  0  1.056812  0
H  H30  1  0.65400772  0.74814496  0.53019854  1  0.068833  0  0.10066  0.094163  0  1.024838  0
H  H31  1  0.34599084  0.75185423  0.03020593  1  0.070193  0  0.100672  0.094225  0  1.024817  0
H  H32  1  0.34597828  0.25185099  0.46979902  1  0.068855  0  0.100646  0.094212  0  1.024825  0
H  H33  1  0.65400442  0.24814419  0.96979499  1  0.070173  0  0.100686  0.094247  0  1.024852  0
H  H34  1  0.80651069  0.63959227  0.58229680  1  0.112232  0  0.107808  0.078026  0  1.018898  0
H  H35  1  0.19349222  0.86041203  0.08229952  1  0.112196  0  0.107782  0.078055  0  1.018836  0
H  H36  1  0.19347719  0.36040367  0.41770613  1  0.11229  0  0.107802  0.077997  0  1.01893  0
H  H37  1  0.80650385  0.13958889  0.91770006  1  0.112188  0  0.107767  0.078016  0  1.018883  0
H  H38  1  0.58167218  0.02910058  0.36750273  1  0.035989  0  0.096464  0.126867  0  1.009592  0
H  H39  1  0.41833690  0.47090261  0.86750467  1  0.035979  0  0.096434  0.126787  0  1.009638  0
H  H40  1  0.41834134  0.97090779  0.63249751  1  0.036097  0  0.096427  0.126745  0  1.009699  0
H  H41  1  0.58166641  0.52909744  0.13249490  1  0.035955  0  0.096461  0.126806  0  1.009694  0
H  H42  1  0.64478648  0.98548809  0.46779191  1  0.00529  0  0.098511  0.132119  0  1.005248  0
H  H43  1  0.35522053  0.51451033  0.96779253  1  0.005226  0  0.098506  0.132112  0  1.005223  0
H  H44  1  0.35522099  0.01451612  0.53221169  1  0.005296  0  0.098501  0.132118  0  1.005191  0
H  H45  1  0.64477888  0.48548639  0.03220704  1  0.005218  0  0.098477  0.132079  0  1.005241  0
H  H46  1  0.80422469  0.08032099  0.29796499  1  0.052401  0  0.094628  0.081232  0  1.02249  0
H  H47  1  0.19578714  0.41967953  0.79796258  1  0.052459  0  0.094643  0.081225  0  1.022521  0
H  H48  1  0.19578909  0.91968236  0.70204129  1  0.052387  0  0.094683  0.081231  0  1.022482  0
H  H49  1  0.80421803  0.58031465  0.20203498  1  0.052533  0  0.094653  0.081242  0  1.022508  0
H  H50  1  0.88690480  0.06091065  0.49429987  1  0.028324  0  0.089381  0.131805  0  1.014875  0
H  H51  1  0.11309557  0.43907697  0.99429612  1  0.028573  0  0.089366  0.131767  0  1.01481  0
H  H52  1  0.11310225  0.93908353  0.50570507  1  0.028425  0  0.089333  0.131767  0  1.014757  0
H  H53  1  0.88689952  0.56090639  0.00570144  1  0.028287  0  0.089427  0.131856  0  1.014835  0
H  H54  1  0.98975621  0.13045888  0.39878696  1  0.050143  0  0.088861  0.13117  0  1.033168  0
H  H55  1  0.01025241  0.36953267  0.89877847  1  0.049705  0  0.088881  0.131191  0  1.033171  0
H  H56  1  0.01025271  0.86953529  0.60121999  1  0.050218  0  0.088869  0.131183  0  1.033145  0
H  H57  1  0.98975046  0.63045148  0.10121641  1  0.05022  0  0.08885  0.131134  0  1.033197  0
H  H58  1  0.71789179  0.88055410  0.19806102  1  0.11387  0  0.094395  0.150077  0  1.036862  0
H  H59  1  0.28210333  0.61944379  0.69806498  1  0.113946  0  0.094415  0.15008  0  1.03687  0
H  H60  1  0.28211368  0.11945263  0.80193923  1  0.113975  0  0.094364  0.150054  0  1.036906  0
H  H61  1  0.71789030  0.38054961  0.30193527  1  0.113961  0  0.094418  0.150124  0  1.036897  0
H  H62  1  0.60093282  0.74915761  0.20435916  1  0.020408  0  0.098799  0.132032  0  1.000153  0
H  H63  1  0.39906013  0.75084198  0.70436254  1  0.020475  0  0.098823  0.132058  0  1.000154  0
H  H64  1  0.39906649  0.25085333  0.79563706  1  0.020493  0  0.098826  0.13201  0  1.000175  0
H  H65  1  0.60093351  0.24915142  0.29563368  1  0.020594  0  0.098834  0.132057  0  1.000139  0
H  H66  1  0.41664056  0.84823796  0.19608823  1  0.038484  0  0.089536  0.067506  0  1.017352  0
H  H67  1  0.58335563  0.65176912  0.69609046  1  0.038494  0  0.089537  0.067453  0  1.017343  0
H  H68  1  0.58336453  0.15177630  0.80390531  1  0.03864  0  0.089531  0.06743  0  1.017438  0
H  H69  1  0.41664057  0.34822929  0.30390375  1  0.038505  0  0.08954  0.067463  0  1.017398  0
H  H70  1  0.64752677  0.01153807  0.10039995  1  0.04568  0  0.087076  0.132643  0  1.050219  0
H  H71  1  0.35246883  0.48845959  0.60041142  1  0.045258  0  0.087077  0.132635  0  1.050268  0
H  H72  1  0.35248142  0.98848287  0.89959829  1  0.044651  0  0.087083  0.132672  0  1.050248  0
H  H73  1  0.64752304  0.51152545  0.39959285  1  0.044613  0  0.087068  0.132644  0  1.050239  0
H  H74  1  0.47103804  0.00412700  0.09094075  1  0.066629  0  0.085342  0.127218  0  1.050541  0
H  H75  1  0.52895595  0.49587482  0.59094755  1  0.066793  0  0.085348  0.127131  0  1.05075  0
H  H76  1  0.52896732  0.99588809  0.90905815  1  0.066681  0  0.085355  0.127162  0  1.050707  0
H  H77  1  0.47103728  0.50411440  0.40905404  1  0.066645  0  0.085375  0.127197  0  1.050652  0
C  C78  1  0.25179068  0.60911509  0.36464828  1  0.480502  0  0.039541  0.079368  0  3.94882  0
C  C79  1  0.74820756  0.89088733  0.86465153  1  0.480568  0  0.039617  0.07941  0  3.949016  0
C  C80  1  0.74821064  0.39089333  0.63535196  1  0.480188  0  0.03964  0.079547  0  3.948866  0
C  C81  1  0.25178676  0.10911109  0.13535073  1  0.480428  0  0.039655  0.079514  0  3.948821  0
C  C82  1  0.37162006  0.67422360  0.33354775  1  -0.062339  0  -0.079371  -0.11074  0  4.006414  0
C  C83  1  0.62838062  0.82577623  0.83355081  1  -0.061889  0  -0.079476  -0.110961  0  4.006691  0
C  C84  1  0.62838514  0.32578229  0.66645250  1  -0.061727  0  -0.079453  -0.110876  0  4.006574  0
C  C85  1  0.37161357  0.17422469  0.16645212  1  -0.061962  0  -0.079452  -0.110863  0  4.006657  0
C  C86  1  0.44706563  0.76148340  0.38657240  1  -0.614007  0  -0.041839  -0.184072  0  3.953268  0
C  C87  1  0.55293805  0.73851737  0.88657698  1  -0.61423  0  -0.04186  -0.184109  0  3.953417  0
C  C88  1  0.55294172  0.23852332  0.61342584  1  -0.614138  0  -0.041845  -0.1841  0  3.953458  0
C  C89  1  0.44705345  0.26148106  0.11342393  1  -0.614167  0  -0.041907  -0.184281  0  3.953611  0
C  C90  1  0.39390126  0.77855674  0.46971374  1  -0.127075  0  -0.081603  -0.111307  0  3.98363  0
C  C91  1  0.60610565  0.72144420  0.96971742  1  -0.127336  0  -0.081641  -0.111184  0  3.983651  0
C  C92  1  0.60610421  0.22144999  0.53028584  1  -0.12697  0  -0.081514  -0.111084  0  3.983613  0
C  C93  1  0.39389013  0.27855003  0.03028216  1  -0.127362  0  -0.081542  -0.110919  0  3.983546  0
C  C94  1  0.27334067  0.70960356  0.49680996  1  0.549241  0  0.048355  0.102283  0  3.917368  0
C  C95  1  0.72666535  0.79039912  0.99681383  1  0.549387  0  0.04848  0.10242  0  3.917133  0
C  C96  1  0.72666453  0.29040234  0.50318961  1  0.549028  0  0.048393  0.102223  0  3.917434  0
C  C97  1  0.27333204  0.20959427  0.00318642  1  0.549459  0  0.048451  0.10235  0  3.917365  0
C  C98  1  0.90189817  0.67473068  0.37292428  1  0.44612  0  0.046616  0.090958  0  3.93997  0
C  C99  1  0.09810529  0.82527007  0.87292591  1  0.446124  0  0.04656  0.090735  0  3.94009  0
C  C100  1  0.09809534  0.32526523  0.62707797  1  0.445702  0  0.046705  0.090965  0  3.939784  0
C  C101  1  0.90189614  0.17472999  0.12707232  1  0.445659  0  0.046654  0.090892  0  3.940146  0
C  C102  1  0.82586675  0.74052218  0.33898892  1  -0.062452  0  -0.076084  -0.106751  0  3.957443  0
C  C103  1  0.17413683  0.75947766  0.83899323  1  -0.062663  0  -0.076047  -0.1066  0  3.957481  0
C  C104  1  0.17413105  0.25947539  0.66101266  1  -0.062421  0  -0.07612  -0.106782  0  3.957449  0
C  C105  1  0.82586500  0.24052072  0.16100433  1  -0.062536  0  -0.076048  -0.106654  0  3.957644  0
C  C106  1  0.73234878  0.76783909  0.39421864  1  -0.619973  0  -0.037594  -0.170614  0  3.938182  0
C  C107  1  0.26765315  0.73216171  0.89422638  1  -0.619729  0  -0.037594  -0.170731  0  3.938385  0
C  C108  1  0.26764554  0.23215933  0.60577959  1  -0.619849  0  -0.037546  -0.170553  0  3.938129  0
C  C109  1  0.73235015  0.26783834  0.10577051  1  -0.619717  0  -0.037619  -0.170672  0  3.938496  0
C  C110  1  0.72539452  0.73123540  0.48360104  1  -0.004036  0  -0.077738  -0.107133  0  3.987689  0
C  C111  1  0.27460645  0.76876393  0.98360880  1  -0.00578  0  -0.077806  -0.107315  0  3.987717  0
C  C112  1  0.27459726  0.26876387  0.51639585  1  -0.004512  0  -0.077744  -0.10724  0  3.987761  0
C  C113  1  0.72539189  0.23123531  0.01638944  1  -0.00585  0  -0.077817  -0.107399  0  3.988011  0
C  C114  1  0.80753780  0.66844207  0.51306133  1  0.426623  0  0.042792  0.080276  0  3.961218  0
C  C115  1  0.19246412  0.83155957  0.01306475  1  0.426979  0  0.042856  0.08035  0  3.961178  0
C  C116  1  0.19245383  0.33155385  0.48693824  1  0.427203  0  0.04283  0.080358  0  3.961252  0
C  C117  1  0.80753491  0.16844468  0.98693214  1  0.426838  0  0.043043  0.080657  0  3.960974  0
C  C118  1  0.65580255  0.99044682  0.39430674  1  -0.668043  0  -0.199352  -0.476989  0  3.98339  0
C  C119  1  0.34420166  0.50955230  0.89430862  1  -0.668099  0  -0.199316  -0.476848  0  3.983371  0
C  C120  1  0.34420439  0.00955572  0.60569686  1  -0.668304  0  -0.199284  -0.47681  0  3.983471  0
C  C121  1  0.65579574  0.49044694  0.10569162  1  -0.668082  0  -0.199316  -0.476849  0  3.9834  0
C  C122  1  0.79072105  0.05613599  0.36854166  1  -0.157176  0  -0.096294  0.03589  0  4.057494  0
C  C123  1  0.20928857  0.44386302  0.86854066  1  -0.156973  0  -0.096224  0.035925  0  4.057591  0
C  C124  1  0.20929366  0.94386735  0.63146328  1  -0.156338  0  -0.096324  0.035903  0  4.057495  0
C  C125  1  0.79071485  0.55612866  0.13145891  1  -0.156709  0  -0.096323  0.035888  0  4.057397  0
C  C126  1  0.89408750  0.08347287  0.42327856  1  0.013673  0  -0.191515  -0.336479  0  3.879443  0
C  C127  1  0.10592031  0.41651791  0.92327344  1  0.013724  0  -0.191607  -0.336514  0  3.879459  0
C  C128  1  0.10592318  0.91652380  0.57672906  1  0.012883  0  -0.191501  -0.336505  0  3.87936  0
C  C129  1  0.89408122  0.58346793  0.07672412  1  0.013207  0  -0.191549  -0.336531  0  3.879306  0
C  C130  1  0.61843685  0.83851624  0.22171029  1  -0.719539  0  -0.204891  -0.483278  0  3.949675  0
C  C131  1  0.38155852  0.66148422  0.72171430  1  -0.719751  0  -0.204968  -0.483434  0  3.949813  0
C  C132  1  0.38156809  0.16149468  0.77828996  1  -0.719473  0  -0.204889  -0.483325  0  3.949741  0
C  C133  1  0.61843257  0.33851003  0.27828728  1  -0.719977  0  -0.204981  -0.483475  0  3.949893  0
C  C134  1  0.51906084  0.88631109  0.17820635  1  -0.11463  0  -0.100635  0.029624  0  4.085748  0
C  C135  1  0.48093558  0.61369178  0.67821119  1  -0.114638  0  -0.100646  0.029845  0  4.08563  0
C  C136  1  0.48094707  0.11370316  0.82179322  1  -0.115386  0  -0.100579  0.030014  0  4.085863  0
C  C137  1  0.51905672  0.38630330  0.32178704  1  -0.114629  0  -0.100569  0.029945  0  4.086003  0
C  C138  1  0.54703939  0.97181135  0.12046885  1  -0.083595  0  -0.197584  -0.342487  0  3.878141  0
C  C139  1  0.45295434  0.52818889  0.62047558  1  -0.083155  0  -0.19756  -0.342476  0  3.878337  0
C  C140  1  0.45296880  0.02820959  0.87953207  1  -0.082221  0  -0.197679  -0.342703  0  3.878701  0
C  C141  1  0.54703565  0.47179616  0.37952467  1  -0.08218  0  -0.197675  -0.342663  0  3.878602  0
N  N142  1  0.20395758  0.62571192  0.44542233  1  -1.224922  0  -0.321377  -0.220336  0  3.466734  0
N  N143  1  0.79604613  0.87428899  0.94542195  1  -1.225006  0  -0.321402  -0.220337  0  3.466789  0
N  N144  1  0.79604266  0.37429317  0.55457925  1  -1.225086  0  -0.321394  -0.220369  0  3.466778  0
N  N145  1  0.20395220  0.12570439  0.05457830  1  -1.225102  0  -0.321389  -0.220361  0  3.466689  0
N  N146  1  0.89200360  0.63819921  0.45800729  1  -1.224043  0  -0.326762  -0.224647  0  3.51447  0
N  N147  1  0.10799816  0.86180089  0.95800962  1  -1.22412  0  -0.326742  -0.224545  0  3.51455  0
N  N148  1  0.10799138  0.36179837  0.54199430  1  -1.224191  0  -0.326857  -0.224752  0  3.514472  0
N  N149  1  0.89199831  0.13819835  0.04198727  1  -1.223674  0  -0.32692  -0.224886  0  3.514504  0
Cl  Cl150  1  0.96549597  0.41244344  0.34100153  1  -0.708624  0  -0.35831  -0.574433  0  1.078115  0
Cl  Cl151  1  0.03449858  0.08755391  0.84099891  1  -0.708602  0  -0.358305  -0.574418  0  1.078116  0
Cl  Cl152  1  0.03450748  0.58755995  0.65899939  1  -0.70863  0  -0.358301  -0.574445  0  1.078153  0
Cl  Cl153  1  0.96549802  0.91244283  0.15900067  1  -0.708636  0  -0.358288  -0.574413  0  1.078123  0
