# generated using pymatgen
data_CuH11C18SN5O4
_symmetry_space_group_name_H-M   'P 1'
_cell_length_a   12.27311438
_cell_length_b   16.97408943
_cell_length_c   20.65856194
_cell_angle_alpha   92.93509763
_cell_angle_beta   90.00005219
_cell_angle_gamma   90.00024125
_symmetry_Int_Tables_number   1
_chemical_formula_structural   CuH11C18SN5O4
_chemical_formula_sum   'Cu8 H88 C144 S8 N40 O32'
_cell_volume   4298.04802009
_cell_formula_units_Z   8
loop_
 _symmetry_equiv_pos_site_id
 _symmetry_equiv_pos_as_xyz
  1  'x, y, z'
loop_
 _atom_site_type_symbol
 _atom_site_label
 _atom_site_symmetry_multiplicity
 _atom_site_fract_x
 _atom_site_fract_y
 _atom_site_fract_z
 _atom_site_occupancy
 _atom_site_pbe_bader_charge
 _atom_site_pbe_bader_spin_density
 _atom_site_pbe_cm5_charge
 _atom_site_pbe_ddec_charge
 _atom_site_pbe_ddec_spin_density
 _atom_site_pbe_ddec_sum_bond_order
 _atom_site_pbe_magmom
Cu  Cu0  1  0.72930270  0.85536583  0.55076787  1  1.088208  0.570561  0.744862  0.798915  0.731983  2.20622  0.569
Cu  Cu1  1  0.22929891  0.64463150  0.94922971  1  1.088094  0.570563  0.744845  0.79897  0.731982  2.206097  0.569
Cu  Cu2  1  0.27069571  0.14463043  0.44923378  1  1.088099  0.570564  0.744884  0.799101  0.731991  2.205961  0.569
Cu  Cu3  1  0.77069868  0.35537123  0.05077022  1  1.088087  0.570563  0.744882  0.799086  0.731985  2.206105  0.569
Cu  Cu4  1  0.21569653  0.36235446  0.56274405  1  1.082807  0.569179  0.74209  0.790066  0.729446  2.178701  0.568
Cu  Cu5  1  0.71569314  0.13764419  0.93725699  1  1.082836  0.569178  0.741998  0.789981  0.729442  2.178644  0.568
Cu  Cu6  1  0.78431329  0.63764292  0.43725230  1  1.082903  0.569176  0.742052  0.790047  0.729445  2.178659  0.568
Cu  Cu7  1  0.28430771  0.86235619  0.06274383  1  1.082891  0.569182  0.742024  0.78999  0.729448  2.178747  0.568
H  H8  1  0.61347585  0.04048945  0.81915478  1  0.579603  3.1e-05  0.317297  0.283089  -0.000145  1.01093  0.0
H  H9  1  0.11347590  0.45951475  0.68084253  1  0.57911  3.1e-05  0.317316  0.283095  -0.000145  1.010944  0.0
H  H10  1  0.38652337  0.95951389  0.18084760  1  0.579552  3.1e-05  0.317277  0.283027  -0.000145  1.010985  0.0
H  H11  1  0.88652577  0.54048914  0.31915503  1  0.579605  3.1e-05  0.317296  0.283032  -0.000145  1.01102  0.0
H  H12  1  0.11566562  0.55190785  0.82686811  1  0.587393  6.7e-05  0.322141  0.290598  -3.8e-05  1.002238  0.0
H  H13  1  0.61566850  0.94808915  0.67313181  1  0.587366  6.7e-05  0.322134  0.290602  -3.8e-05  1.002252  0.0
H  H14  1  0.88433523  0.44809253  0.17313271  1  0.5874  6.7e-05  0.322131  0.290625  -3.8e-05  1.002257  0.0
H  H15  1  0.38433398  0.05190830  0.32687084  1  0.587381  6.7e-05  0.322123  0.290568  -3.8e-05  1.002246  0.0
H  H16  1  0.04347811  0.72212799  0.66010540  1  0.096082  0.001209  0.114949  0.126559  0.000633  0.989158  0.001
H  H17  1  0.54347619  0.77786934  0.83989111  1  0.095982  0.001209  0.114976  0.126576  0.000633  0.989162  0.001
H  H18  1  0.95652519  0.27786940  0.33989193  1  0.096048  0.001209  0.114986  0.126584  0.000633  0.989158  0.001
H  H19  1  0.45652466  0.22213041  0.16010533  1  0.095993  0.001209  0.114938  0.126546  0.000633  0.989127  0.001
H  H20  1  0.95236823  0.81297268  0.58430728  1  0.095315  0.002193  0.121135  0.101149  0.001024  0.995771  0.002
H  H21  1  0.45236383  0.68702236  0.91568647  1  0.095262  0.002193  0.121063  0.101025  0.001024  0.995689  0.002
H  H22  1  0.04763343  0.18702235  0.41568900  1  0.095164  0.002193  0.121103  0.101113  0.001024  0.995638  0.002
H  H23  1  0.54764028  0.31297384  0.08430888  1  0.095401  0.002193  0.121068  0.101074  0.001024  0.995678  0.002
H  H24  1  0.43738017  0.31733816  0.59131983  1  0.148905  0.002138  0.12348  0.105702  0.001023  0.990057  0.002
H  H25  1  0.93737944  0.18266646  0.90867864  1  0.148989  0.002137  0.123533  0.105746  0.001023  0.990051  0.002
H  H26  1  0.56261987  0.68265807  0.40867939  1  0.148853  0.002137  0.123479  0.105704  0.001023  0.990066  0.002
H  H27  1  0.06261896  0.81733741  0.09131746  1  0.148841  0.002138  0.123477  0.105665  0.001023  0.990137  0.002
H  H28  1  0.53248051  0.22269344  0.66206792  1  0.103646  0.001188  0.114824  0.125997  0.000627  0.988028  0.001
H  H29  1  0.03247976  0.27731054  0.83793321  1  0.103629  0.001188  0.114842  0.12602  0.000627  0.988054  0.001
H  H30  1  0.46752197  0.77730339  0.33793180  1  0.103668  0.001188  0.114811  0.126007  0.000627  0.988071  0.001
H  H31  1  0.96751946  0.72269397  0.16206824  1  0.103622  0.001188  0.114803  0.125972  0.000627  0.988078  0.001
H  H32  1  0.56629654  0.95169646  0.89824435  1  0.16218  0.000858  0.111172  0.130186  0.000435  1.032635  0.001
H  H33  1  0.06629329  0.54830327  0.60174935  1  0.162201  0.000858  0.111149  0.130188  0.000435  1.032748  0.001
H  H34  1  0.43370269  0.04830507  0.10175312  1  0.162078  0.000859  0.111171  0.130186  0.000435  1.032744  0.001
H  H35  1  0.93370675  0.45169294  0.39824794  1  0.162125  0.000858  0.111168  0.130224  0.000435  1.032661  0.001
H  H36  1  0.22038607  0.17787789  0.74900176  1  0.103291  0.001067  0.114971  0.127202  0.000565  0.990571  0.001
H  H37  1  0.72038590  0.32212964  0.75100057  1  0.103805  0.001067  0.114997  0.127207  0.000565  0.990584  0.001
H  H38  1  0.77961152  0.82212779  0.25099828  1  0.103777  0.001067  0.114976  0.127219  0.000565  0.990543  0.001
H  H39  1  0.27961414  0.67787663  0.24899998  1  0.103323  0.001067  0.114958  0.127149  0.000565  0.990662  0.001
H  H40  1  0.72786752  0.68571083  0.74564881  1  0.111705  0.001021  0.115157  0.127037  0.000546  0.989318  0.001
H  H41  1  0.22786441  0.81429418  0.75435001  1  0.111598  0.001021  0.115182  0.127076  0.000546  0.989402  0.001
H  H42  1  0.27213741  0.31429310  0.25435263  1  0.11164  0.001021  0.115194  0.127104  0.000546  0.989317  0.001
H  H43  1  0.77213400  0.18570797  0.24565039  1  0.111639  0.001021  0.115211  0.127087  0.000546  0.989283  0.001
H  H44  1  0.49977539  0.87980544  0.99332150  1  0.130109  0.001586  0.120239  0.100882  0.000682  0.998068  0.001
H  H45  1  0.99977368  0.62019151  0.50667137  1  0.129958  0.001587  0.120247  0.100791  0.000681  0.998013  0.001
H  H46  1  0.50022465  0.12018960  0.00667525  1  0.130107  0.001586  0.12026  0.100845  0.000682  0.99808  0.001
H  H47  1  0.00022880  0.37980233  0.49332438  1  0.130024  0.001586  0.120241  0.100857  0.000681  0.998024  0.001
H  H48  1  0.13869960  0.27391807  0.67518561  1  0.115454  0.001799  0.116988  0.088203  0.000744  1.036571  0.002
H  H49  1  0.63869737  0.22608861  0.82481664  1  0.115879  0.001798  0.117008  0.088258  0.000744  1.036522  0.002
H  H50  1  0.86130125  0.72608996  0.32481403  1  0.115824  0.001798  0.116984  0.088239  0.000744  1.036494  0.002
H  H51  1  0.36130104  0.77391411  0.17518233  1  0.115863  0.001798  0.117012  0.088248  0.000744  1.036519  0.002
H  H52  1  0.65055727  0.77742949  0.66721651  1  0.135885  0.001756  0.116848  0.085775  0.000732  1.047278  0.002
H  H53  1  0.15055294  0.72257171  0.83278020  1  0.135725  0.001755  0.116811  0.085703  0.000732  1.047279  0.002
H  H54  1  0.34944602  0.22257087  0.33278238  1  0.135736  0.001756  0.116806  0.085675  0.000732  1.047342  0.002
H  H55  1  0.84944954  0.27742926  0.16722064  1  0.135684  0.001755  0.116799  0.085669  0.000732  1.047322  0.002
H  H56  1  0.75999306  0.14977472  0.67369363  1  0.111147  -1.1e-05  0.105973  0.12178  -2.2e-05  1.011268  0.0
H  H57  1  0.25999271  0.35022468  0.82630892  1  0.111203  -1.1e-05  0.105981  0.121789  -2.2e-05  1.011239  0.0
H  H58  1  0.24000942  0.85022509  0.32630911  1  0.111199  -1.1e-05  0.105979  0.121815  -2.2e-05  1.011202  0.0
H  H59  1  0.74000733  0.64977628  0.17369096  1  0.111198  -1.1e-05  0.106003  0.121817  -2.2e-05  1.011203  0.0
H  H60  1  0.99211599  0.38396315  0.99337225  1  0.129034  0.001604  0.12043  0.101853  0.000687  0.995711  0.001
H  H61  1  0.49211217  0.11603579  0.50662944  1  0.128945  0.001605  0.120433  0.101866  0.000687  0.995705  0.001
H  H62  1  0.00788405  0.61604138  0.00663065  1  0.129041  0.001605  0.120412  0.101865  0.000687  0.995705  0.001
H  H63  1  0.50788461  0.88395870  0.49337166  1  0.128993  0.001605  0.120398  0.101873  0.000687  0.995758  0.001
H  H64  1  0.27250051  0.66455518  0.67614013  1  0.096136  -2e-06  0.105402  0.120248  -1.7e-05  1.012773  0.0
H  H65  1  0.77249564  0.83544704  0.82386055  1  0.096085  -2e-06  0.105408  0.120246  -1.7e-05  1.012751  0.0
H  H66  1  0.72750605  0.33544402  0.32386065  1  0.096029  -2e-06  0.105396  0.120302  -1.7e-05  1.012684  0.0
H  H67  1  0.22750114  0.16455453  0.17614079  1  0.096093  -2e-06  0.105426  0.120322  -1.7e-05  1.012654  0.0
H  H68  1  0.06636172  0.46439130  0.90502797  1  0.174322  0.000808  0.111401  0.132327  0.000417  1.038657  0.001
H  H69  1  0.56636211  0.03561281  0.59497512  1  0.174199  0.000808  0.111399  0.132323  0.000417  1.038646  0.001
H  H70  1  0.93363505  0.53561620  0.09497698  1  0.174358  0.000808  0.111402  0.132326  0.000417  1.03863  0.001
H  H71  1  0.43363548  0.96438404  0.40502654  1  0.174353  0.000808  0.11141  0.13234  0.000417  1.038617  0.001
H  H72  1  0.89060571  0.27015930  0.64631507  1  0.109116  0.000579  0.101483  0.118546  0.000385  1.040866  0.0
H  H73  1  0.39059982  0.22983929  0.85368365  1  0.109152  0.000579  0.101497  0.11857  0.000385  1.040825  0.0
H  H74  1  0.10939677  0.72984051  0.35368767  1  0.10916  0.00058  0.101525  0.118624  0.000385  1.040819  0.0
H  H75  1  0.60939777  0.77015871  0.14631419  1  0.109129  0.00058  0.101501  0.118558  0.000385  1.040845  0.0
H  H76  1  0.23935162  0.04206120  0.87861816  1  0.122155  0.000894  0.116065  0.128769  0.000479  0.990012  0.001
H  H77  1  0.73935366  0.45793988  0.62138202  1  0.122446  0.000894  0.116083  0.1288  0.000479  0.989984  0.001
H  H78  1  0.76064760  0.95793683  0.12138355  1  0.122387  0.000894  0.116068  0.128818  0.000479  0.990035  0.001
H  H79  1  0.26064474  0.54206641  0.37861998  1  0.122314  0.000894  0.116053  0.128735  0.000479  0.990026  0.001
H  H80  1  0.18660246  0.96488228  0.97380387  1  0.137276  0.001806  0.110991  0.085672  0.000806  1.064922  0.002
H  H81  1  0.68660029  0.53511844  0.52619186  1  0.137182  0.001806  0.11094  0.085591  0.000806  1.065001  0.002
H  H82  1  0.81339676  0.03511455  0.02619537  1  0.137286  0.001807  0.110977  0.085651  0.000806  1.064929  0.002
H  H83  1  0.31339893  0.46488366  0.47380466  1  0.137245  0.001806  0.110953  0.085607  0.000806  1.065026  0.002
H  H84  1  0.41120398  0.77516677  0.63880188  1  0.088726  0.000573  0.101931  0.119449  0.000375  1.033141  0.0
H  H85  1  0.91120423  0.72483292  0.86119782  1  0.088753  0.000573  0.101932  0.119459  0.000375  1.033066  0.0
H  H86  1  0.58879687  0.22483125  0.36119886  1  0.088696  0.000573  0.101944  0.119477  0.000375  1.033175  0.0
H  H87  1  0.08879662  0.27516863  0.13880207  1  0.088686  0.000573  0.101952  0.119497  0.000375  1.033141  0.0
H  H88  1  0.67436140  0.44094362  0.94911857  1  0.160537  0.00196  0.108837  0.080092  0.000893  1.075019  0.002
H  H89  1  0.17435976  0.05905313  0.55088141  1  0.160505  0.00196  0.108857  0.08009  0.000893  1.07499  0.002
H  H90  1  0.32563782  0.55906741  0.05088553  1  0.160586  0.00196  0.108787  0.080045  0.000893  1.075106  0.002
H  H91  1  0.82563620  0.94093540  0.44911415  1  0.160568  0.00196  0.108809  0.080065  0.000893  1.075095  0.002
H  H92  1  0.73393080  0.52387174  0.85862855  1  0.123634  0.00097  0.116766  0.130861  0.000517  0.985443  0.001
H  H93  1  0.23393089  0.97612150  0.64137131  1  0.123566  0.00097  0.116756  0.130808  0.000517  0.985456  0.001
H  H94  1  0.26606842  0.47613575  0.14137591  1  0.123658  0.00097  0.116779  0.130847  0.000517  0.985494  0.001
H  H95  1  0.76606670  0.02386883  0.35862722  1  0.12368  0.00097  0.11677  0.130861  0.000517  0.985429  0.001
C  C96  1  0.06823236  0.23448339  0.55521030  1  1.588749  -0.001539  0.194318  0.575433  -0.001601  4.271383  -0.003
C  C97  1  0.56823543  0.26551476  0.94478629  1  1.589227  -0.001538  0.194421  0.575574  -0.001601  4.271246  -0.003
C  C98  1  0.93176768  0.76551344  0.44478991  1  1.589222  -0.001538  0.194205  0.575373  -0.0016  4.271484  -0.003
C  C99  1  0.43177031  0.73448676  0.05521070  1  1.588731  -0.001538  0.194376  0.575548  -0.0016  4.271274  -0.003
C  C100  1  0.93515626  0.63947386  0.75304271  1  0.932297  0.000519  0.206735  0.230197  0.00026  4.103498  0.001
C  C101  1  0.43515422  0.86052530  0.74695602  1  0.932294  0.000519  0.206658  0.230119  0.00026  4.103592  0.001
C  C102  1  0.06484704  0.36052769  0.24695767  1  0.932338  0.000519  0.20666  0.23013  0.00026  4.10356  0.001
C  C103  1  0.56484582  0.13947508  0.25304529  1  0.932311  0.000519  0.206714  0.230203  0.00026  4.103576  0.001
C  C104  1  0.89177538  0.69531607  0.70837026  1  -0.039701  -0.003782  0.019319  0.081755  -0.004224  3.99455  -0.003
C  C105  1  0.39177228  0.80468592  0.79162951  1  -0.03981  -0.003782  0.019241  0.081782  -0.004224  3.994548  -0.003
C  C106  1  0.10822873  0.30468133  0.29162658  1  -0.039769  -0.003782  0.0193  0.081756  -0.004223  3.994689  -0.003
C  C107  1  0.60822776  0.19531623  0.20837186  1  -0.039776  -0.003782  0.019257  0.081746  -0.004224  3.994526  -0.003
C  C108  1  0.42934106  0.13517011  0.75395062  1  0.97578  0.000506  0.206253  0.229106  0.000257  4.102615  0.001
C  C109  1  0.92934032  0.36483390  0.74604735  1  0.976234  0.000506  0.206285  0.229052  0.000257  4.102574  0.001
C  C110  1  0.57065735  0.86482848  0.24604869  1  0.975788  0.000506  0.206219  0.229041  0.000257  4.102587  0.001
C  C111  1  0.07066054  0.63517178  0.25395270  1  0.976002  0.000506  0.206183  0.229008  0.000257  4.102759  0.001
C  C112  1  0.40789798  0.00457476  0.88128399  1  -0.044573  -0.003544  0.019848  0.074681  -0.003958  3.988159  -0.002
C  C113  1  0.90789616  0.49542977  0.61871446  1  -0.044945  -0.003545  0.01995  0.07479  -0.003959  3.988129  -0.002
C  C114  1  0.59210124  0.99542620  0.11871636  1  -0.044125  -0.003544  0.019861  0.074757  -0.003958  3.988149  -0.002
C  C115  1  0.09210062  0.50457295  0.38128499  1  -0.044528  -0.003545  0.01989  0.074805  -0.003959  3.988161  -0.002
C  C116  1  0.43760692  0.05343499  0.82801653  1  1.008621  0.00054  0.227564  0.268556  0.000343  4.010306  0.001
C  C117  1  0.93760653  0.44656905  0.67198192  1  1.008964  0.00054  0.227513  0.268498  0.000343  4.01051  0.001
C  C118  1  0.56239067  0.94656538  0.17198332  1  1.008668  0.00054  0.227564  0.268558  0.000343  4.010296  0.001
C  C119  1  0.06239188  0.55343783  0.32801961  1  1.008207  0.00054  0.227485  0.268393  0.000343  4.010403  0.001
C  C120  1  0.58261665  0.72387979  0.54850652  1  1.581486  -0.001073  0.195295  0.577989  -0.000977  4.269315  -0.003
C  C121  1  0.08261362  0.77612005  0.95149300  1  1.581523  -0.001074  0.195262  0.577878  -0.000978  4.269183  -0.003
C  C122  1  0.41738583  0.27611999  0.45149331  1  1.581516  -0.001074  0.195182  0.577688  -0.000977  4.269336  -0.003
C  C123  1  0.91738315  0.22388271  0.04851032  1  1.582325  -0.001075  0.195275  0.577865  -0.000977  4.269406  -0.003
C  C124  1  0.93868982  0.55579823  0.82581279  1  0.967006  0.000525  0.227156  0.265754  0.000324  4.013075  0.001
C  C125  1  0.43869222  0.94419860  0.67418682  1  0.96666  0.000525  0.227105  0.26571  0.000324  4.013157  0.001
C  C126  1  0.06131022  0.44420274  0.17418805  1  0.967033  0.000525  0.227099  0.265601  0.000324  4.013194  0.001
C  C127  1  0.56130782  0.05579943  0.32581440  1  0.966689  0.000525  0.227116  0.265623  0.000324  4.013177  0.001
C  C128  1  0.38300984  0.19175781  0.71089911  1  -0.002685  -0.003817  0.019587  0.079887  -0.004269  3.9963  -0.003
C  C129  1  0.88300883  0.30824844  0.78910133  1  -0.003016  -0.003817  0.019744  0.080116  -0.004268  3.996307  -0.003
C  C130  1  0.61698857  0.80824137  0.28909925  1  -0.002651  -0.003817  0.019619  0.07997  -0.004268  3.996213  -0.003
C  C131  1  0.11699039  0.69175902  0.21089974  1  -0.002628  -0.003818  0.019603  0.079892  -0.004269  3.996235  -0.003
C  C132  1  0.90543572  0.50292600  0.87564846  1  -0.042311  -0.003357  0.017631  0.069772  -0.003753  3.993613  -0.002
C  C133  1  0.40543508  0.99707310  0.62435315  1  -0.042271  -0.003358  0.01769  0.069827  -0.003753  3.993674  -0.002
C  C134  1  0.09456188  0.49707794  0.12435394  1  -0.042365  -0.003357  0.017703  0.069817  -0.003752  3.993732  -0.002
C  C135  1  0.59456169  0.00292256  0.37564750  1  -0.042293  -0.003357  0.017674  0.069789  -0.003753  3.993797  -0.002
C  C136  1  0.95610143  0.73308483  0.66311330  1  -0.028726  0.006147  -0.078936  -0.166776  0.004099  3.934276  0.005
C  C137  1  0.45609817  0.76691497  0.83688352  1  -0.028378  0.006148  -0.078895  -0.166778  0.004099  3.934398  0.005
C  C138  1  0.04390187  0.26691197  0.33688352  1  -0.028412  0.006147  -0.078944  -0.166804  0.004098  3.934274  0.005
C  C139  1  0.54390268  0.23308539  0.16311488  1  -0.028348  0.006147  -0.078869  -0.166696  0.004099  3.934219  0.005
C  C140  1  0.85286653  0.07849338  0.60309921  1  -0.171647  0.008776  -0.028414  -0.121012  0.006189  3.981412  0.007
C  C141  1  0.35287078  0.42150510  0.89690094  1  -0.171225  0.008773  -0.028493  -0.121145  0.006188  3.981666  0.007
C  C142  1  0.14713269  0.92150526  0.39690494  1  -0.171882  0.008778  -0.028489  -0.121045  0.006189  3.981494  0.007
C  C143  1  0.64713415  0.57849288  0.10309544  1  -0.171796  0.008776  -0.028408  -0.120919  0.006188  3.981335  0.007
C  C144  1  0.90647274  0.78319650  0.62093965  1  0.518127  -0.000714  0.050556  0.10621  -0.000874  3.916392  0.0
C  C145  1  0.40646763  0.71680195  0.87905613  1  0.51815  -0.000714  0.050611  0.106316  -0.000875  3.916322  0.0
C  C146  1  0.09353056  0.21679792  0.37905564  1  0.518131  -0.000714  0.050601  0.10627  -0.000875  3.91615  0.0
C  C147  1  0.59353404  0.28319722  0.12094126  1  0.517957  -0.000715  0.050586  0.106154  -0.000875  3.916338  0.0
C  C148  1  0.79568849  0.00180277  0.60367394  1  1.58043  -0.000308  0.197845  0.579181  -0.000471  4.263273  -0.002
C  C149  1  0.29568991  0.49819496  0.89632760  1  1.580006  -0.000306  0.197983  0.579318  -0.000471  4.263063  -0.002
C  C150  1  0.20430910  0.99819708  0.39633267  1  1.580414  -0.000309  0.197929  0.579227  -0.000472  4.262897  -0.002
C  C151  1  0.70431094  0.50180067  0.10367015  1  1.58044  -0.000309  0.197968  0.579328  -0.000472  4.262895  -0.002
C  C152  1  0.39317128  0.28477371  0.62697249  1  0.434669  -0.000614  0.051006  0.105578  -0.000907  3.912293  0.0
C  C153  1  0.89317068  0.21523021  0.87302787  1  0.434696  -0.000614  0.05095  0.105571  -0.000907  3.912409  0.0
C  C154  1  0.60682958  0.71522371  0.37302677  1  0.435024  -0.000614  0.051013  0.105579  -0.000907  3.912289  0.0
C  C155  1  0.10682610  0.78477487  0.12697167  1  0.434793  -0.000614  0.050993  0.105637  -0.000907  3.912393  0.0
C  C156  1  0.35900719  0.58198890  0.61105732  1  -0.217591  0.009501  -0.029153  -0.121626  0.006617  3.977444  0.007
C  C157  1  0.85900779  0.91801237  0.88894047  1  -0.217884  0.0095  -0.02913  -0.121582  0.006615  3.97744  0.007
C  C158  1  0.64099284  0.41800967  0.38893957  1  -0.217382  0.009501  -0.02909  -0.121565  0.006617  3.977508  0.007
C  C159  1  0.14099062  0.08198916  0.11105749  1  -0.218115  0.0095  -0.029151  -0.121674  0.006615  3.977537  0.007
C  C160  1  0.29410089  0.50906406  0.61669760  1  1.581014  0.00027  0.198728  0.576716  0.000297  4.261809  -0.001
C  C161  1  0.79410108  0.99093762  0.88330162  1  1.580824  0.000269  0.198652  0.576564  0.000296  4.261932  -0.001
C  C162  1  0.70590159  0.49093571  0.38330126  1  1.580839  0.000269  0.198732  0.576758  0.000296  4.261804  -0.001
C  C163  1  0.20589651  0.00906509  0.11669541  1  1.58132  0.000268  0.198728  0.576714  0.000296  4.261754  -0.001
C  C164  1  0.44497952  0.23244772  0.66634387  1  0.013814  0.006155  -0.077471  -0.161848  0.00418  3.929493  0.005
C  C165  1  0.94497835  0.26755693  0.83365510  1  0.013828  0.006156  -0.077577  -0.162006  0.004181  3.929725  0.005
C  C166  1  0.55501807  0.76754671  0.33365239  1  0.013518  0.006155  -0.077479  -0.161912  0.00418  3.929485  0.005
C  C167  1  0.05501761  0.73244993  0.16634547  1  0.013702  0.006156  -0.077429  -0.161815  0.004181  3.92951  0.005
C  C168  1  0.48140857  0.95685810  0.91344600  1  0.004978  0.005467  -0.082061  -0.166745  0.003634  3.926027  0.004
C  C169  1  0.98140573  0.54314057  0.58654790  1  0.004776  0.005467  -0.082086  -0.166792  0.003634  3.926049  0.004
C  C170  1  0.51859146  0.04314049  0.08655282  1  0.005086  0.005467  -0.082049  -0.166736  0.003634  3.926058  0.004
C  C171  1  0.01859268  0.45685622  0.41344844  1  0.00478  0.005467  -0.082157  -0.166978  0.003634  3.926256  0.004
C  C172  1  0.27095275  0.20755123  0.71448746  1  0.014823  0.005919  -0.07631  -0.151368  0.004027  3.918884  0.005
C  C173  1  0.77095084  0.29245292  0.78551575  1  0.014208  0.00592  -0.076406  -0.151494  0.004027  3.91904  0.005
C  C174  1  0.72904810  0.79245093  0.28551488  1  0.014349  0.005919  -0.076315  -0.151383  0.004026  3.91888  0.005
C  C175  1  0.22905001  0.70754980  0.21448322  1  0.014915  0.005918  -0.076376  -0.151357  0.004026  3.919114  0.005
C  C176  1  0.48887018  0.68360466  0.57785900  1  -0.221729  0.008459  -0.030491  -0.126427  0.005851  3.980679  0.006
C  C177  1  0.98886291  0.81639531  0.92214414  1  -0.221753  0.008459  -0.030474  -0.126331  0.005851  3.980708  0.006
C  C178  1  0.51113475  0.31639513  0.42214180  1  -0.221776  0.008459  -0.030447  -0.126324  0.00585  3.980622  0.006
C  C179  1  0.01113305  0.18360863  0.07785874  1  -0.222042  0.008459  -0.030477  -0.126345  0.005849  3.980661  0.006
C  C180  1  0.78019251  0.71262533  0.71044821  1  0.021423  0.005902  -0.075252  -0.148687  0.003979  3.915575  0.005
C  C181  1  0.28018767  0.78738161  0.78955167  1  0.021641  0.005902  -0.075225  -0.148702  0.00398  3.915579  0.005
C  C182  1  0.21980834  0.28737443  0.28954968  1  0.021453  0.005902  -0.075245  -0.148734  0.003979  3.915765  0.005
C  C183  1  0.71980992  0.21262230  0.21044879  1  0.021688  0.005902  -0.075262  -0.148701  0.00398  3.915442  0.005
C  C184  1  0.44509416  0.91634754  0.96615848  1  0.440922  -0.000734  0.046229  0.09093  -0.001101  3.948125  0.0
C  C185  1  0.94509228  0.58364686  0.53383282  1  0.441033  -0.000735  0.046314  0.091087  -0.001102  3.948002  0.0
C  C186  1  0.55490506  0.08364867  0.03383880  1  0.440559  -0.000735  0.046128  0.090877  -0.001102  3.948181  0.0
C  C187  1  0.05490938  0.41634520  0.46616142  1  0.440965  -0.000735  0.046299  0.091044  -0.001102  3.948152  0.0
C  C188  1  0.97505750  0.18872639  0.57914922  1  -0.202286  0.008348  -0.031311  -0.131518  0.005764  3.982012  0.006
C  C189  1  0.47506033  0.31127186  0.92084760  1  -0.202039  0.008349  -0.031303  -0.131507  0.005765  3.982039  0.006
C  C190  1  0.02494091  0.81127338  0.42084964  1  -0.201977  0.008348  -0.031241  -0.131376  0.005764  3.981939  0.006
C  C191  1  0.52494215  0.68872732  0.07915124  1  -0.202199  0.008349  -0.031308  -0.13151  0.005765  3.982082  0.006
C  C192  1  0.22528150  0.26046539  0.67353558  1  0.47092  -0.001112  0.046952  0.097145  -0.001602  3.942028  -0.001
C  C193  1  0.72527934  0.23953921  0.82646762  1  0.470592  -0.001112  0.046964  0.09714  -0.001602  3.942093  -0.001
C  C194  1  0.77472017  0.73953675  0.32646482  1  0.470492  -0.001112  0.046948  0.097082  -0.001602  3.942049  -0.001
C  C195  1  0.27471906  0.76046352  0.17353232  1  0.470414  -0.001111  0.046978  0.097132  -0.001602  3.942191  -0.001
C  C196  1  0.73686295  0.76324121  0.66678887  1  0.482712  -0.001242  0.04725  0.0988  -0.001733  3.941572  -0.001
C  C197  1  0.23685544  0.73676204  0.83320893  1  0.48258  -0.001241  0.047287  0.098862  -0.001733  3.941236  -0.001
C  C198  1  0.26314034  0.23675500  0.33320842  1  0.482862  -0.001242  0.047286  0.098911  -0.001733  3.94148  -0.001
C  C199  1  0.76314541  0.26324069  0.16679101  1  0.48256  -0.001241  0.047305  0.098882  -0.001733  3.941342  -0.001
C  C200  1  0.82664766  0.14737688  0.63879736  1  -0.044973  0.001125  -0.098956  -0.107588  0.000549  3.984112  0.001
C  C201  1  0.32664982  0.35262331  0.86120477  1  -0.045039  0.001126  -0.098973  -0.107553  0.000549  3.984315  0.001
C  C202  1  0.17335319  0.85262236  0.36120681  1  -0.04519  0.001125  -0.098971  -0.1076  0.000549  3.984208  0.001
C  C203  1  0.67335266  0.64737469  0.13879403  1  -0.045087  0.001126  -0.099027  -0.107688  0.000549  3.984165  0.001
C  C204  1  0.93836931  0.41644695  0.96232948  1  0.352737  -0.000533  0.046865  0.090777  -0.001108  3.948711  0.0
C  C205  1  0.43836698  0.08354946  0.53767209  1  0.353021  -0.000534  0.04691  0.090752  -0.001108  3.948645  0.0
C  C206  1  0.06162991  0.58355642  0.03767532  1  0.353545  -0.000533  0.046856  0.090696  -0.001107  3.948817  0.0
C  C207  1  0.56162980  0.91644444  0.46232898  1  0.353546  -0.000533  0.046878  0.090695  -0.001108  3.948735  0.0
C  C208  1  0.33856030  0.65533530  0.64136011  1  0.040982  0.001103  -0.099932  -0.107936  0.000551  3.988226  0.001
C  C209  1  0.83856042  0.84466594  0.85864057  1  0.041285  0.001103  -0.099968  -0.107975  0.000551  3.988288  0.001
C  C210  1  0.66144381  0.34466507  0.35863974  1  0.040956  0.001103  -0.099967  -0.108062  0.00055  3.988163  0.001
C  C211  1  0.16143880  0.15533621  0.14136080  1  0.041  0.001103  -0.099929  -0.107981  0.000551  3.988126  0.001
C  C212  1  0.97876013  0.46142078  0.91330390  1  0.058165  0.005401  -0.082191  -0.167763  0.003686  3.923052  0.004
C  C213  1  0.47876006  0.03857692  0.58669678  1  0.058165  0.005402  -0.082224  -0.167779  0.003686  3.923166  0.004
C  C214  1  0.02123665  0.53857959  0.08669595  1  0.057923  0.005401  -0.082216  -0.167766  0.003685  3.923241  0.004
C  C215  1  0.52123590  0.96141816  0.41330434  1  0.057902  0.005402  -0.082253  -0.167793  0.003686  3.923156  0.004
C  C216  1  0.89618764  0.21053563  0.62472731  1  -0.009968  0.000367  -0.104644  -0.108785  0.000147  3.989351  0.0
C  C217  1  0.39618376  0.28946418  0.87527388  1  -0.010303  0.000367  -0.104602  -0.108809  0.000146  3.989494  0.0
C  C218  1  0.10381729  0.78946594  0.37527404  1  -0.010094  0.000368  -0.104659  -0.108926  0.000147  3.989616  0.0
C  C219  1  0.60381384  0.71053443  0.12472737  1  -0.010127  0.000367  -0.104644  -0.108798  0.000147  3.989484  0.0
C  C220  1  0.29938357  0.00671107  0.90282887  1  -0.021545  0.006053  -0.073993  -0.147409  0.004046  3.908782  0.005
C  C221  1  0.79938008  0.49329432  0.59717101  1  -0.021677  0.006054  -0.074084  -0.147461  0.004047  3.908469  0.005
C  C222  1  0.70061646  0.99328933  0.09717389  1  -0.022321  0.006054  -0.073991  -0.14751  0.004047  3.908851  0.005
C  C223  1  0.20061670  0.50670781  0.40282794  1  -0.022018  0.006054  -0.073973  -0.147322  0.004046  3.908697  0.005
C  C224  1  0.26956427  0.96426761  0.95544337  1  0.494759  -0.00057  0.043737  0.098299  -0.000924  3.929801  0.0
C  C225  1  0.76955969  0.53573279  0.54455337  1  0.494856  -0.000569  0.043788  0.098353  -0.000924  3.92973  0.0
C  C226  1  0.73043576  0.03573159  0.04455789  1  0.494878  -0.000571  0.043738  0.098338  -0.000924  3.929869  0.0
C  C227  1  0.23044035  0.46426577  0.45544207  1  0.494967  -0.00057  0.043787  0.098271  -0.000924  3.929742  0.0
C  C228  1  0.41238034  0.71343210  0.62204067  1  -0.013903  0.000649  -0.105147  -0.111108  0.000374  3.992369  0.0
C  C229  1  0.91237691  0.78656996  0.87796008  1  -0.014186  0.000648  -0.105096  -0.111061  0.000373  3.992419  0.0
C  C230  1  0.58762132  0.28656708  0.37795817  1  -0.013912  0.000649  -0.105147  -0.11111  0.000374  3.99237  0.0
C  C231  1  0.08762150  0.21343279  0.12204179  1  -0.013967  0.000649  -0.10518  -0.111171  0.000374  3.992551  0.0
C  C232  1  0.76004464  0.44823660  0.93754300  1  0.404919  -0.000413  0.044094  0.101324  -0.000886  3.929783  0.0
C  C233  1  0.26004298  0.05176399  0.56246056  1  0.404849  -0.000412  0.04396  0.101166  -0.000886  3.929788  0.0
C  C234  1  0.23995214  0.55177030  0.06246096  1  0.405136  -0.000412  0.044099  0.101241  -0.000886  3.92976  0.0
C  C235  1  0.73995299  0.94823107  0.43753910  1  0.405049  -0.000413  0.044093  0.101277  -0.000886  3.929722  0.0
C  C236  1  0.79359204  0.49413339  0.88775668  1  0.038423  0.005878  -0.074905  -0.148898  0.003989  3.910828  0.005
C  C237  1  0.29359101  0.00586730  0.61224690  1  0.03854  0.005878  -0.074839  -0.148749  0.003989  3.910774  0.005
C  C238  1  0.20640636  0.50587232  0.11224675  1  0.038427  0.005878  -0.074868  -0.148733  0.003989  3.910784  0.005
C  C239  1  0.70640577  0.99412955  0.38775476  1  0.038404  0.005878  -0.07487  -0.148816  0.003989  3.910807  0.005
S  S240  1  0.96224138  0.09118335  0.55275036  1  0.260782  0.002459  0.102032  0.171786  0.001624  2.966371  0.001
S  S241  1  0.46225296  0.40881661  0.94724458  1  0.260763  0.00246  0.102018  0.171799  0.001624  2.966393  0.001
S  S242  1  0.03775377  0.90881525  0.44724943  1  0.260864  0.00246  0.101987  0.171714  0.001624  2.966546  0.001
S  S243  1  0.53775359  0.59118431  0.05275046  1  0.260997  0.00246  0.102001  0.17173  0.001625  2.966364  0.001
S  S244  1  0.46908762  0.58451335  0.55957655  1  0.266015  0.002342  0.097112  0.161193  0.001447  2.948623  0.001
S  S245  1  0.96908665  0.91548888  0.94042327  1  0.266292  0.002342  0.097071  0.16109  0.001447  2.948659  0.001
S  S246  1  0.53091486  0.41548700  0.44042088  1  0.266016  0.002341  0.097052  0.161141  0.001447  2.948724  0.001
S  S247  1  0.03091176  0.08451678  0.05957435  1  0.266426  0.002341  0.097109  0.16119  0.001447  2.948621  0.001
N  N248  1  0.53924780  0.06489212  0.80392587  1  -0.806765  -0.001006  -0.244787  -0.127406  -0.001147  3.639897  -0.001
N  N249  1  0.03924774  0.43511066  0.69607038  1  -0.806516  -0.001006  -0.24485  -0.127529  -0.001147  3.639814  -0.001
N  N250  1  0.46074979  0.93510885  0.19607497  1  -0.806781  -0.001006  -0.244831  -0.127386  -0.001147  3.639886  -0.001
N  N251  1  0.96075311  0.56489559  0.30392775  1  -0.806775  -0.001006  -0.244748  -0.127287  -0.001147  3.640038  -0.001
N  N252  1  0.34147746  0.92037402  0.98754856  1  -1.22438  0.083068  -0.344906  -0.224691  0.055517  3.584439  0.072
N  N253  1  0.84147471  0.57962066  0.51244415  1  -1.224085  0.083076  -0.344958  -0.224745  0.055521  3.584693  0.072
N  N254  1  0.65852258  0.07962103  0.01245014  1  -1.22409  0.08307  -0.344781  -0.224596  0.055518  3.584546  0.072
N  N255  1  0.15852777  0.42037198  0.48754914  1  -1.224085  0.083072  -0.34494  -0.22465  0.055518  3.584432  0.072
N  N256  1  0.28475140  0.29764304  0.62962231  1  -1.229243  0.089003  -0.345271  -0.220453  0.05929  3.590853  0.077
N  N257  1  0.78475073  0.20236233  0.87038047  1  -1.229159  0.089008  -0.345273  -0.220475  0.059293  3.590975  0.077
N  N258  1  0.71525108  0.70235792  0.37037757  1  -1.229233  0.088995  -0.345254  -0.220412  0.059284  3.59084  0.077
N  N259  1  0.21524686  0.79764216  0.12961905  1  -1.229229  0.089004  -0.345259  -0.220457  0.059291  3.590799  0.077
N  N260  1  0.79813597  0.79670208  0.62168246  1  -1.20805  0.0875  -0.344846  -0.220379  0.058371  3.58476  0.076
N  N261  1  0.29812997  0.70329900  0.87831481  1  -1.208001  0.087505  -0.34483  -0.220382  0.058375  3.58454  0.076
N  N262  1  0.20186733  0.20329236  0.37831380  1  -1.208117  0.087495  -0.344859  -0.220462  0.058368  3.58466  0.076
N  N263  1  0.70187088  0.29670314  0.12168559  1  -1.20805  0.087504  -0.344833  -0.220346  0.058374  3.584711  0.076
N  N264  1  0.83119928  0.41078766  0.97518565  1  -1.187445  0.084229  -0.346183  -0.226231  0.056224  3.586487  0.073
N  N265  1  0.33119696  0.08921077  0.52481642  1  -1.187515  0.084232  -0.346167  -0.226154  0.056227  3.586319  0.073
N  N266  1  0.16879913  0.58921864  0.02481780  1  -1.188355  0.084225  -0.346139  -0.226144  0.056221  3.586358  0.073
N  N267  1  0.66879982  0.91078311  0.47518369  1  -1.188291  0.084232  -0.346138  -0.226117  0.056226  3.586376  0.073
N  N268  1  0.36627631  0.09734705  0.79676301  1  -1.169948  -0.000605  -0.330378  -0.41925  -0.000716  3.206188  -0.001
N  N269  1  0.86627653  0.40265677  0.70323540  1  -1.170259  -0.000605  -0.330405  -0.419274  -0.000716  3.206205  -0.001
N  N270  1  0.63372210  0.90265214  0.20323632  1  -1.169849  -0.000606  -0.3304  -0.419268  -0.000716  3.206122  -0.001
N  N271  1  0.13372432  0.59735070  0.29676664  1  -1.169459  -0.000606  -0.330292  -0.419135  -0.000716  3.206078  -0.001
N  N272  1  0.04245279  0.57314460  0.80813763  1  -0.826555  -0.00082  -0.246517  -0.127395  -0.000924  3.636957  -0.001
N  N273  1  0.54245313  0.92684920  0.69186020  1  -0.826181  -0.000821  -0.246537  -0.127401  -0.000924  3.637003  -0.001
N  N274  1  0.95754806  0.42685459  0.19186218  1  -0.826678  -0.00082  -0.24653  -0.127391  -0.000923  3.636901  -0.001
N  N275  1  0.45754691  0.07314823  0.30814003  1  -0.826248  -0.00082  -0.246508  -0.12731  -0.000923  3.636889  -0.001
N  N276  1  0.53608898  0.11687695  0.75701843  1  -0.642211  -0.001539  -0.21243  -0.234296  -0.001608  3.088789  -0.001
N  N277  1  0.03608869  0.38312641  0.74297832  1  -0.642079  -0.001539  -0.212409  -0.234182  -0.001608  3.088677  -0.001
N  N278  1  0.46390943  0.88312403  0.24298290  1  -0.642292  -0.001539  -0.212339  -0.234261  -0.001608  3.0887  -0.001
N  N279  1  0.96391298  0.61687747  0.25701923  1  -0.642351  -0.001539  -0.212393  -0.234274  -0.001608  3.088917  -0.001
N  N280  1  0.04219788  0.62614706  0.76204654  1  -0.582788  -0.001422  -0.209335  -0.227918  -0.001497  3.094024  -0.001
N  N281  1  0.54219717  0.87384910  0.73795186  1  -0.582882  -0.001422  -0.209286  -0.227919  -0.001497  3.094052  -0.001
N  N282  1  0.95780460  0.37385391  0.23795478  1  -0.582699  -0.001422  -0.209295  -0.227893  -0.001496  3.093944  -0.001
N  N283  1  0.45780287  0.12615009  0.26204795  1  -0.582767  -0.001422  -0.20928  -0.22793  -0.001497  3.093925  -0.001
N  N284  1  0.86893989  0.59735585  0.79130329  1  -1.155528  -0.000642  -0.331574  -0.422021  -0.000766  3.199284  -0.001
N  N285  1  0.36893966  0.90264369  0.70869541  1  -1.155579  -0.000642  -0.331578  -0.422018  -0.000766  3.199473  -0.001
N  N286  1  0.13106178  0.40264687  0.20869664  1  -1.155578  -0.000642  -0.331566  -0.42195  -0.000765  3.199386  -0.001
N  N287  1  0.63105875  0.09735670  0.29130638  1  -1.155544  -0.000642  -0.331629  -0.422004  -0.000765  3.199456  -0.001
O  O288  1  0.32633782  0.44860336  0.58139440  1  -1.12103  0.098119  -0.326029  -0.551454  0.062557  2.37571  0.088
O  O289  1  0.82634206  0.05139564  0.91860720  1  -1.121085  0.098118  -0.325993  -0.551327  0.062557  2.375709  0.088
O  O290  1  0.67366385  0.55139526  0.41860781  1  -1.120987  0.098134  -0.325994  -0.551433  0.062567  2.375717  0.088
O  O291  1  0.17365880  0.94860353  0.08139116  1  -1.121089  0.098124  -0.326051  -0.551454  0.06256  2.375691  0.088
O  O292  1  0.83472446  0.94575571  0.56605281  1  -1.111673  0.100348  -0.325585  -0.552712  0.064137  2.367701  0.09
O  O293  1  0.33472502  0.55424255  0.93394583  1  -1.111518  0.100341  -0.325655  -0.552785  0.064134  2.367697  0.09
O  O294  1  0.16526580  0.05424292  0.43394988  1  -1.111705  0.100354  -0.32556  -0.552703  0.064143  2.367415  0.09
O  O295  1  0.66526768  0.44575487  0.06605392  1  -1.111657  0.100343  -0.325613  -0.55279  0.064136  2.367606  0.09
O  O296  1  0.58882883  0.79927227  0.56195648  1  -1.131313  0.110084  -0.333334  -0.562685  0.069936  2.359715  0.099
O  O297  1  0.08882861  0.70072756  0.93804014  1  -1.131357  0.110092  -0.333304  -0.562612  0.06994  2.359674  0.099
O  O298  1  0.41117121  0.20072519  0.43804714  1  -1.13136  0.110084  -0.33326  -0.562619  0.069938  2.359687  0.099
O  O299  1  0.91116898  0.29927694  0.06195986  1  -1.131548  0.110091  -0.333331  -0.56268  0.06994  2.359767  0.099
O  O300  1  0.07205069  0.30851224  0.57410530  1  -1.123549  0.111271  -0.330533  -0.554826  0.07084  2.337841  0.1
O  O301  1  0.57205493  0.19148769  0.92589135  1  -1.123669  0.111269  -0.330569  -0.554884  0.070837  2.337904  0.1
O  O302  1  0.92795668  0.69148518  0.42589493  1  -1.123664  0.111267  -0.330503  -0.554782  0.070838  2.337785  0.1
O  O303  1  0.42795081  0.80851385  0.07410757  1  -1.123703  0.111267  -0.330522  -0.554874  0.070837  2.337974  0.1
O  O304  1  0.13819980  0.19929795  0.52029493  1  -1.1876  0.002542  -0.322293  -0.589496  0.000913  2.353871  0.004
O  O305  1  0.63819742  0.30070457  0.97970331  1  -1.188005  0.002543  -0.322348  -0.589578  0.000914  2.353675  0.004
O  O306  1  0.86179942  0.80069534  0.47970467  1  -1.18802  0.002542  -0.322188  -0.589434  0.000914  2.353903  0.004
O  O307  1  0.36180913  0.69930221  0.02028854  1  -1.187493  0.002544  -0.3223  -0.589509  0.000915  2.353627  0.004
O  O308  1  0.64870405  0.68339091  0.51473754  1  -1.171847  0.003517  -0.31961  -0.578747  0.001669  2.321437  0.004
O  O309  1  0.14870783  0.81660559  0.98526142  1  -1.171737  0.003517  -0.319609  -0.578709  0.001669  2.321275  0.004
O  O310  1  0.35129436  0.31661001  0.48525798  1  -1.171668  0.003517  -0.319615  -0.578623  0.001669  2.321391  0.004
O  O311  1  0.85129058  0.18339600  0.01474332  1  -1.172103  0.003515  -0.31965  -0.578717  0.001667  2.321353  0.004
O  O312  1  0.71231075  0.99730132  0.63894219  1  -1.202835  0.001409  -0.320415  -0.563311  2.8e-05  2.243528  0.002
O  O313  1  0.21230520  0.50269545  0.86106310  1  -1.202807  0.00141  -0.320476  -0.563358  2.9e-05  2.24344  0.002
O  O314  1  0.28769744  0.00270038  0.36107223  1  -1.202579  0.00141  -0.320473  -0.563335  2.8e-05  2.243458  0.002
O  O315  1  0.78769566  0.49729604  0.13893353  1  -1.20272  0.00141  -0.320497  -0.563423  2.9e-05  2.243492  0.002
O  O316  1  0.21166464  0.51217212  0.65316806  1  -1.182854  0.002041  -0.318331  -0.55328  0.000548  2.234303  0.002
O  O317  1  0.71166150  0.98783169  0.84683458  1  -1.182624  0.00204  -0.318286  -0.553246  0.000548  2.234279  0.002
O  O318  1  0.78833703  0.48783120  0.34683190  1  -1.18267  0.002039  -0.318329  -0.553299  0.000547  2.234292  0.002
O  O319  1  0.28833691  0.01217045  0.15316533  1  -1.182749  0.00204  -0.31829  -0.553261  0.000548  2.234194  0.002
