# generated using pymatgen
data_Cd3H8C4(N10Cl)2
_symmetry_space_group_name_H-M   'P 1'
_cell_length_a   9.32760287
_cell_length_b   9.53556540
_cell_length_c   13.46217323
_cell_angle_alpha   89.99982016
_cell_angle_beta   89.99999643
_cell_angle_gamma   90.63548875
_symmetry_Int_Tables_number   1
_chemical_formula_structural   Cd3H8C4(N10Cl)2
_chemical_formula_sum   'Cd6 H16 C8 N40 Cl4'
_cell_volume   1197.30544453
_cell_formula_units_Z   2
loop_
 _symmetry_equiv_pos_site_id
 _symmetry_equiv_pos_as_xyz
  1  'x, y, z'
loop_
 _atom_site_type_symbol
 _atom_site_label
 _atom_site_symmetry_multiplicity
 _atom_site_fract_x
 _atom_site_fract_y
 _atom_site_fract_z
 _atom_site_occupancy
 _atom_site_pbe_bader_charge
 _atom_site_pbe_bader_spin_density
 _atom_site_pbe_cm5_charge
 _atom_site_pbe_ddec_charge
 _atom_site_pbe_ddec_spin_density
 _atom_site_pbe_ddec_sum_bond_order
 _atom_site_pbe_magmom
Cd  Cd0  1  0.74433367  0.98970245  0.28233367  1  1.193126  0  0.766943  0.757607  0  2.311247  0
Cd  Cd1  1  0.75566780  0.51029789  0.78233372  1  1.193198  0  0.766952  0.757614  0  2.311241  0
Cd  Cd2  1  0.25566694  0.01029819  0.71766643  1  1.193112  0  0.766959  0.757603  0  2.31123  0
Cd  Cd3  1  0.24433280  0.48970171  0.21766638  1  1.193161  0  0.766937  0.757573  0  2.311282  0
Cd  Cd4  1  0.50000138  0.00000122  0.49999876  1  1.220396  0  0.731535  0.666883  0  2.385124  0
Cd  Cd5  1  0.00000166  0.50000276  0.00000092  1  1.220332  0  0.731554  0.666912  0  2.385135  0
H  H6  1  0.33266984  0.28686262  0.87086203  1  0.528446  0  0.290989  0.292787  0  1.035657  0
H  H7  1  0.48378191  0.39071117  0.89202863  1  0.476582  0  0.281642  0.293065  0  1.010024  0
H  H8  1  0.34653564  0.74906958  0.89087388  1  0.527171  0  0.291005  0.29245  0  1.028962  0
H  H9  1  0.50556935  0.66274479  0.91494215  1  0.442306  0  0.2834  0.295155  0  1.002223  0
H  H10  1  0.16733307  0.21313451  0.37085890  1  0.528464  0  0.291005  0.292809  0  1.035709  0
H  H11  1  0.01621885  0.10928588  0.39202796  1  0.476561  0  0.28163  0.293053  0  1.010027  0
H  H12  1  0.15345982  0.75092987  0.39087363  1  0.527225  0  0.290972  0.292435  0  1.029072  0
H  H13  1  0.99442890  0.83725604  0.41494689  1  0.44224  0  0.283399  0.295142  0  1.002248  0
H  H14  1  0.66732967  0.71313593  0.12914178  1  0.528552  0  0.290997  0.292832  0  1.035636  0
H  H15  1  0.51621760  0.60928738  0.10797295  1  0.476569  0  0.281649  0.293078  0  1.010037  0
H  H16  1  0.65346277  0.25092688  0.10912250  1  0.527162  0  0.291026  0.292506  0  1.028916  0
H  H17  1  0.49442905  0.33725062  0.08505274  1  0.442285  0  0.283409  0.295157  0  1.00226  0
H  H18  1  0.83266757  0.78686823  0.62914120  1  0.528089  0  0.290988  0.292804  0  1.035646  0
H  H19  1  0.98378179  0.89071687  0.60797362  1  0.476431  0  0.28166  0.293075  0  1.01004  0
H  H20  1  0.84654404  0.24907286  0.60912498  1  0.527294  0  0.291018  0.292468  0  1.029077  0
H  H21  1  0.00557607  0.16274984  0.58505543  1  0.442302  0  0.283395  0.295128  0  1.002261  0
C  C22  1  0.49065088  0.27751120  0.76391348  1  1.499798  0  0.327285  0.519837  0  4.116255  0
C  C23  1  0.49602604  0.75449962  0.77922325  1  1.531031  0  0.327075  0.517216  0  4.10672  0
C  C24  1  0.00934886  0.22248850  0.26391256  1  1.499801  0  0.327285  0.519837  0  4.116323  0
C  C25  1  0.00397360  0.74549087  0.27922450  1  1.530993  0  0.327051  0.517211  0  4.106475  0
C  C26  1  0.50934655  0.72249155  0.23608735  1  1.499679  0  0.327302  0.519939  0  4.116308  0
C  C27  1  0.50397127  0.24549475  0.22077239  1  1.530835  0  0.327151  0.517328  0  4.106273  0
C  C28  1  0.99064858  0.77751530  0.73608902  1  1.499709  0  0.327301  0.519844  0  4.116149  0
C  C29  1  0.99603232  0.25450557  0.72077633  1  1.530984  0  0.327043  0.517201  0  4.10654  0
N  N30  1  0.60777267  0.33718292  0.72084162  1  -0.721332  0  -0.259957  -0.327978  0  3.385291  0
N  N31  1  0.62962194  0.26802872  0.63454136  1  -0.086362  0  -0.09326  -0.060839  0  3.290974  0
N  N32  1  0.52961533  0.17275700  0.62511209  1  -0.213846  0  -0.115672  -0.047545  0  3.517041  0
N  N33  1  0.44024112  0.17457626  0.70440389  1  -0.732204  0  -0.263308  -0.330053  0  3.360679  0
N  N34  1  0.43686919  0.31118220  0.85352156  1  -1.324866  0  -0.594054  -0.65508  0  3.362645  0
N  N35  1  0.60829482  0.69032693  0.73502095  1  -0.730366  0  -0.259051  -0.327357  0  3.384316  0
N  N36  1  0.62171567  0.74699910  0.64342126  1  -0.14134  0  -0.099087  -0.06937  0  3.302207  0
N  N37  1  0.52100957  0.83884901  0.63187547  1  -0.163519  0  -0.116905  -0.044828  0  3.52747  0
N  N38  1  0.43955646  0.84719566  0.71480784  1  -0.745181  0  -0.259868  -0.326479  0  3.350777  0
N  N39  1  0.45246039  0.73493589  0.87393235  1  -1.298082  0  -0.591274  -0.651452  0  3.335687  0
N  N40  1  0.89222770  0.16281635  0.22083859  1  -0.721298  0  -0.259993  -0.327952  0  3.38531  0
N  N41  1  0.87037950  0.23197093  0.13453818  1  -0.086274  0  -0.093258  -0.060917  0  3.291096  0
N  N42  1  0.97038612  0.32724269  0.12511017  1  -0.213917  0  -0.11566  -0.047472  0  3.51702  0
N  N43  1  0.05975755  0.32542265  0.20440348  1  -0.732184  0  -0.263322  -0.330113  0  3.360662  0
N  N44  1  0.06313265  0.18881501  0.35351997  1  -1.32483  0  -0.594045  -0.65508  0  3.362719  0
N  N45  1  0.89170660  0.80966943  0.23502353  1  -0.730361  0  -0.259153  -0.327383  0  3.384182  0
N  N46  1  0.87828367  0.75300186  0.14342322  1  -0.141311  0  -0.099054  -0.069407  0  3.302241  0
N  N47  1  0.97898653  0.66114991  0.13187467  1  -0.163445  0  -0.116918  -0.044803  0  3.527528  0
N  N48  1  0.06044431  0.65279930  0.21480707  1  -0.745194  0  -0.259801  -0.326457  0  3.350691  0
N  N49  1  0.04753401  0.76506469  0.37393430  1  -1.298076  0  -0.591209  -0.651411  0  3.335715  0
N  N50  1  0.39222580  0.66281773  0.27916071  1  -0.721351  0  -0.260006  -0.328008  0  3.385279  0
N  N51  1  0.37037758  0.73197088  0.36546170  1  -0.086331  0  -0.093237  -0.060871  0  3.290969  0
N  N52  1  0.47038420  0.82724260  0.37489098  1  -0.213847  0  -0.115682  -0.047462  0  3.516928  0
N  N53  1  0.55975735  0.82542439  0.29559769  1  -0.732141  0  -0.263296  -0.33012  0  3.360598  0
N  N54  1  0.56313029  0.68881425  0.14648150  1  -1.324799  0  -0.59407  -0.6552  0  3.362829  0
N  N55  1  0.39170359  0.30966953  0.26497469  1  -0.730442  0  -0.259117  -0.327383  0  3.384126  0
N  N56  1  0.37828384  0.25299946  0.35657512  1  -0.141147  0  -0.099076  -0.069366  0  3.302429  0
N  N57  1  0.47898887  0.16114955  0.36812239  1  -0.163373  0  -0.116892  -0.044854  0  3.527776  0
N  N58  1  0.56044194  0.15279975  0.28518854  1  -0.745153  0  -0.259926  -0.32656  0  3.35094  0
N  N59  1  0.54753798  0.26505742  0.12606329  1  -1.298019  0  -0.591265  -0.651471  0  3.335515  0
N  N60  1  0.10777188  0.83718640  0.77916299  1  -0.721156  0  -0.259975  -0.327973  0  3.385188  0
N  N61  1  0.12961898  0.76803077  0.86546340  1  -0.086338  0  -0.093211  -0.060839  0  3.29103  0
N  N62  1  0.02961235  0.67275796  0.87489067  1  -0.2139  0  -0.115703  -0.047511  0  3.516942  0
N  N63  1  0.94023988  0.67458010  0.79559736  1  -0.732192  0  -0.263372  -0.330143  0  3.360596  0
N  N64  1  0.93686801  0.81118879  0.64648161  1  -1.324262  0  -0.594039  -0.655083  0  3.362708  0
N  N65  1  0.10829829  0.19033016  0.76497731  1  -0.730407  0  -0.259077  -0.32734  0  3.384266  0
N  N66  1  0.12171586  0.24699774  0.85657835  1  -0.141329  0  -0.0991  -0.069455  0  3.302375  0
N  N67  1  0.02101189  0.33884760  0.86812617  1  -0.163334  0  -0.116891  -0.044826  0  3.52754  0
N  N68  1  0.93956167  0.34720239  0.78519079  1  -0.745231  0  -0.259871  -0.326463  0  3.350728  0
N  N69  1  0.95246559  0.23494016  0.62606728  1  -1.298106  0  -0.59123  -0.651395  0  3.335805  0
Cl  Cl70  1  0.79118189  0.99913247  0.46934061  1  -0.651724  0  -0.281664  -0.46055  0  1.256322  0
Cl  Cl71  1  0.70881745  0.50087021  0.96934142  1  -0.65177  0  -0.281679  -0.460583  0  1.256322  0
Cl  Cl72  1  0.20881662  0.00087133  0.53065874  1  -0.651776  0  -0.28167  -0.460564  0  1.256306  0
Cl  Cl73  1  0.29118208  0.49912939  0.03065941  1  -0.651714  0  -0.281665  -0.460549  0  1.256321  0
