# generated using pymatgen
data_ZnH15C15N2O5
_symmetry_space_group_name_H-M   'P 1'
_cell_length_a   8.65860843
_cell_length_b   9.61374554
_cell_length_c   10.85402276
_cell_angle_alpha   110.02237208
_cell_angle_beta   97.74755024
_cell_angle_gamma   110.31067036
_symmetry_Int_Tables_number   1
_chemical_formula_structural   ZnH15C15N2O5
_chemical_formula_sum   'Zn2 H30 C30 N4 O10'
_cell_volume   762.41699923
_cell_formula_units_Z   2
loop_
 _symmetry_equiv_pos_site_id
 _symmetry_equiv_pos_as_xyz
  1  'x, y, z'
loop_
 _atom_site_type_symbol
 _atom_site_label
 _atom_site_symmetry_multiplicity
 _atom_site_fract_x
 _atom_site_fract_y
 _atom_site_fract_z
 _atom_site_occupancy
 _atom_site_hle17_bader_spin_density
 _atom_site_hle17_ddec_charge
 _atom_site_hle17_ddec_spin_density
 _atom_site_hle17_ddec_sum_bond_order
 _atom_site_hle17_magmom
 _atom_site_hse06_10hf_bader_spin_density
 _atom_site_hse06_10hf_ddec_charge
 _atom_site_hse06_10hf_ddec_spin_density
 _atom_site_hse06_10hf_ddec_sum_bond_order
 _atom_site_hse06_10hf_magmom
 _atom_site_hse06_bader_spin_density
 _atom_site_hse06_ddec_charge
 _atom_site_hse06_ddec_spin_density
 _atom_site_hse06_ddec_sum_bond_order
 _atom_site_hse06_magmom
 _atom_site_pbe_bader_spin_density
 _atom_site_pbe_cm5_charge
 _atom_site_pbe_ddec_charge
 _atom_site_pbe_ddec_spin_density
 _atom_site_pbe_ddec_sum_bond_order
 _atom_site_pbe_magmom
Zn  Zn0  1  0.11490276  0.03985603  0.19291183  1  0  1.095767  0  1.800356  0  0  0.918138  0  2.277349  0  0  0.965132  0  2.217567  0  0  0.709769  0.883249  0  2.320471  0
Zn  Zn1  1  0.88509821  0.96014466  0.80708833  1  0  1.095743  0  1.800329  0  0  0.91814  0  2.277328  0  0  0.965134  0  2.217546  0  0  0.709775  0.883248  0  2.320451  0
H  H2  1  0.31098852  0.03409674  0.45688298  1  0  0.115651  0  0.983164  0  0  0.122052  0  1.047968  0  0  0.125541  0  1.045354  0  0  0.117043  0.119481  0  1.050057  0
H  H3  1  0.68901243  0.96590395  0.54311810  1  0  0.115654  0  0.983168  0  0  0.122058  0  1.04797  0  0  0.125547  0  1.045354  0  0  0.117047  0.119486  0  1.050059  0
H  H4  1  0.64774894  0.27050941  0.60729162  1  0  0.135357  0  0.955847  0  0  0.144381  0  1.015885  0  0  0.147866  0  1.013474  0  0  0.127739  0.141727  0  1.017906  0
H  H5  1  0.35225085  0.72949128  0.39270840  1  0  0.135343  0  0.955849  0  0  0.144365  0  1.015886  0  0  0.14785  0  1.013481  0  0  0.127737  0.141712  0  1.017908  0
H  H6  1  0.48957379  0.50038427  0.28392877  1  0  0.133517  0  0.954795  0  0  0.14546  0  1.028106  0  0  0.148274  0  1.026674  0  0  0.098573  0.143494  0  1.0291  0
H  H7  1  0.51042717  0.49961642  0.71607139  1  0  0.133524  0  0.954816  0  0  0.145471  0  1.028109  0  0  0.148282  0  1.026679  0  0  0.098588  0.143504  0  1.029103  0
H  H8  1  0.35217054  0.30125933  0.15497768  1  0  0.147831  0  0.939582  0  0  0.169961  0  0.993422  0  0  0.171997  0  0.992239  0  0  0.107996  0.168469  0  0.994232  0
H  H9  1  0.64782871  0.69874013  0.84502191  1  0  0.147852  0  0.93954  0  0  0.169961  0  0.993394  0  0  0.171995  0  0.992214  0  0  0.108014  0.16847  0  0.994204  0
H  H10  1  0.57847267  0.37201189  0.19215144  1  0  0.129793  0  0.967009  0  0  0.14748  0  1.031744  0  0  0.148014  0  1.034333  0  0  0.097785  0.147284  0  1.029803  0
H  H11  1  0.42152829  0.62798879  0.80784871  1  0  0.129798  0  0.96701  0  0  0.147485  0  1.03174  0  0  0.148019  0  1.034327  0  0  0.097786  0.14729  0  1.029797  0
H  H12  1  0.95174860  0.52046564  0.77253315  1  0  0.105821  0  0.961257  0  0  0.113935  0  1.029155  0  0  0.117776  0  1.026235  0  0  0.106263  0.11117  0  1.031346  0
H  H13  1  0.04825120  0.47953505  0.22746687  1  0  0.105791  0  0.961295  0  0  0.113928  0  1.029167  0  0  0.117768  0  1.026249  0  0  0.10626  0.111163  0  1.031358  0
H  H14  1  0.38751523  0.91378851  0.10144983  1  0  0.110786  0  0.970389  0  0  0.118882  0  1.037019  0  0  0.122616  0  1.034728  0  0  0.10494  0.116114  0  1.038818  0
H  H15  1  0.61248402  0.08621096  0.89854977  1  0  0.110792  0  0.970388  0  0  0.118892  0  1.037013  0  0  0.122625  0  1.034723  0  0  0.104936  0.116123  0  1.038812  0
H  H16  1  0.79962362  0.57498379  0.59785082  1  0  0.082525  0  0.93933  0  0  0.096723  0  1.00461  0  0  0.097528  0  1.004231  0  0  0.10988  0.096063  0  1.004959  0
H  H17  1  0.20037616  0.42501690  0.40215012  1  0  0.082579  0  0.93929  0  0  0.096688  0  1.00467  0  0  0.097494  0  1.00429  0  0  0.109865  0.09603  0  1.005016  0
H  H18  1  0.76600342  0.55600862  0.42717126  1  0  0.079719  0  0.912304  0  0  0.100748  0  0.966358  0  0  0.10091  0  0.96729  0  0  0.115669  0.10055  0  0.965743  0
H  H19  1  0.23399636  0.44399207  0.57282968  1  0  0.079707  0  0.912309  0  0  0.100729  0  0.966346  0  0  0.100891  0  0.967279  0  0  0.115664  0.100532  0  0.965731  0
H  H20  1  0.88482545  0.34596155  0.36875951  1  0  0.0743  0  0.952289  0  0  0.09037  0  1.014861  0  0  0.091053  0  1.016  0  0  0.089179  0.089727  0  1.014312  0
H  H21  1  0.11517551  0.65403914  0.63124065  1  0  0.074297  0  0.952321  0  0  0.090366  0  1.014894  0  0  0.091052  0  1.016027  0  0  0.089184  0.089723  0  1.014344  0
H  H22  1  0.91049563  0.35710923  0.53711700  1  0  0.080769  0  0.953576  0  0  0.096776  0  1.01625  0  0  0.098242  0  1.015756  0  0  0.09248  0.09564  0  1.016739  0
H  H23  1  0.08950533  0.64289145  0.46288315  1  0  0.080739  0  0.953599  0  0  0.096747  0  1.016276  0  0  0.098211  0  1.01578  0  0  0.092461  0.095612  0  1.016764  0
H  H24  1  0.30540294  0.41266840  0.99995875  1  0  0.128163  0  0.944167  0  0  0.136525  0  1.007763  0  0  0.140762  0  1.004404  0  0  0.113042  0.13345  0  1.010138  0
H  H25  1  0.69459631  0.58733107  0.00004084  1  0  0.128154  0  0.944176  0  0  0.136511  0  1.00778  0  0  0.140753  0  1.00441  0  0  0.113037  0.133436  0  1.010156  0
H  H26  1  0.66494309  0.93609293  0.16682847  1  0  0.090199  0  0.946372  0  0  0.107253  0  1.010038  0  0  0.107455  0  1.010095  0  0  0.097576  0.106911  0  1.010269  0
H  H27  1  0.33505670  0.06390776  0.83317155  1  0  0.090217  0  0.946361  0  0  0.107268  0  1.010031  0  0  0.107469  0  1.01009  0  0  0.097581  0.106925  0  1.010263  0
H  H28  1  0.73169289  0.88787467  0.30363409  1  0  0.100447  0  0.927578  0  0  0.120155  0  0.984735  0  0  0.120955  0  0.984021  0  0  0.106399  0.119403  0  0.985468  0
H  H29  1  0.26830636  0.11212480  0.69636551  1  0  0.100449  0  0.927584  0  0  0.120159  0  0.984739  0  0  0.120958  0  0.984025  0  0  0.106395  0.119407  0  0.985472  0
H  H30  1  0.55543088  0.94610097  0.29767182  1  0  0.076336  0  0.951895  0  0  0.094168  0  1.017717  0  0  0.093774  0  1.019186  0  0  0.093873  0.094334  0  1.016714  0
H  H31  1  0.44456783  0.05389727  0.70232643  1  0  0.076332  0  0.951951  0  0  0.094171  0  1.017764  0  0  0.093776  0  1.019234  0  0  0.093878  0.094337  0  1.016762  0
C  C32  1  0.10719789  0.85132046  0.91664142  1  0  0.664646  0  3.868425  0  0  0.612789  0  4.15501  0  0  0.648191  0  4.146261  0  0  0.218961  0.588891  0  4.15937  0
C  C33  1  0.89280083  0.14867778  0.08335682  1  0  0.664712  0  3.868258  0  0  0.612801  0  4.154891  0  0  0.6482  0  4.146141  0  0  0.218993  0.588904  0  4.15925  0
C  C34  1  0.39401356  0.13918009  0.44421934  1  0  -0.010418  0  3.782292  0  0  -0.047438  0  4.055974  0  0  -0.045274  0  4.074952  0  0  -0.009636  -0.048853  0  4.043262  0
C  C35  1  0.60598686  0.86081938  0.55578038  1  0  -0.010432  0  3.78224  0  0  -0.04745  0  4.055923  0  0  -0.045287  0  4.0749  0  0  -0.009636  -0.048864  0  4.04321  0
C  C36  1  0.47059065  0.30060280  0.33869687  1  0  0.381117  0  3.679078  0  0  0.355317  0  3.945444  0  0  0.371855  0  3.960079  0  0  0.220689  0.344474  0  3.935025  0
C  C37  1  0.52941084  0.69939911  0.66130463  1  0  0.381203  0  3.679067  0  0  0.355359  0  3.945494  0  0  0.371895  0  3.960128  0  0  0.220742  0.344515  0  3.935075  0
C  C38  1  0.16611294  0.72898252  0.93389553  1  0  -0.069296  0  3.81542  0  0  -0.044113  0  4.052884  0  0  -0.052299  0  4.076455  0  0  -0.026964  -0.038668  0  4.036796  0
C  C39  1  0.83388749  0.27101694  0.06610328  1  0  -0.069296  0  3.815472  0  0  -0.044058  0  4.052883  0  0  -0.052234  0  4.076441  0  0  -0.026962  -0.038613  0  4.036793  0
C  C40  1  0.55781783  0.25423532  0.51798042  1  0  -0.060369  0  3.670463  0  0  -0.102804  0  3.932982  0  0  -0.101526  0  3.951459  0  0  0.000403  -0.103616  0  3.920844  0
C  C41  1  0.44218196  0.74576537  0.48201960  1  0  -0.060326  0  3.670366  0  0  -0.102754  0  3.932883  0  0  -0.101477  0  3.951358  0  0  0.000423  -0.103568  0  3.920747  0
C  C42  1  0.47287069  0.37301833  0.23791176  1  0  -0.40081  0  3.696847  0  0  -0.48085  0  3.93805  0  0  -0.484636  0  3.943158  0  0  -0.234856  -0.478108  0  3.934188  0
C  C43  1  0.52713026  0.62698236  0.76208931  1  0  -0.400849  0  3.696788  0  0  -0.48086  0  3.938034  0  0  -0.484644  0  3.943142  0  0  -0.234884  -0.47812  0  3.934172  0
C  C44  1  0.06921796  0.56252807  0.85188402  1  0  -0.091851  0  3.722787  0  0  -0.133416  0  3.978522  0  0  -0.132018  0  3.998549  0  0  -0.089464  -0.134688  0  3.966215  0
C  C45  1  0.93078129  0.43747139  0.14811557  1  0  -0.091826  0  3.722804  0  0  -0.133417  0  3.978518  0  0  -0.13202  0  3.998541  0  0  -0.089462  -0.134691  0  3.966216  0
C  C46  1  0.31549301  0.78331826  0.03900457  1  0  -0.19583  0  3.721401  0  0  -0.227515  0  3.969113  0  0  -0.229503  0  3.98737  0  0  -0.099755  -0.22593  0  3.956956  0
C  C47  1  0.68450624  0.21668121  0.96099502  1  0  -0.195893  0  3.721467  0  0  -0.227618  0  3.96915  0  0  -0.22961  0  3.987405  0  0  -0.099783  -0.226034  0  3.956995  0
C  C48  1  0.77232177  0.48999582  0.49123207  1  0  0.011724  0  3.61392  0  0  -0.051686  0  3.873308  0  0  -0.047382  0  3.884801  0  0  -0.051662  -0.054377  0  3.865296  0
C  C49  1  0.22767856  0.51000609  0.50876930  1  0  0.011696  0  3.613991  0  0  -0.051625  0  3.873324  0  0  -0.047325  0  3.884815  0  0  -0.051632  -0.054319  0  3.865312  0
C  C50  1  0.11899911  0.44856415  0.87663053  1  0  -0.049143  0  3.766718  0  0  -0.022143  0  4.000736  0  0  -0.029593  0  4.023909  0  0  -0.018072  -0.017632  0  3.986033  0
C  C51  1  0.88100069  0.55143654  0.12336857  1  0  -0.049148  0  3.766642  0  0  -0.022172  0  4.000696  0  0  -0.029623  0  4.02387  0  0  -0.018086  -0.017663  0  3.985994  0
C  C52  1  0.36648208  0.66930463  0.06219271  1  0  0.264452  0  3.812122  0  0  0.260778  0  4.069372  0  0  0.270086  0  4.08553  0  0  0.085738  0.253999  0  4.058738  0
C  C53  1  0.63351834  0.33069483  0.93780609  1  0  0.264463  0  3.812162  0  0  0.260852  0  4.069328  0  0  0.270161  0  4.085487  0  0  0.085759  0.254072  0  4.058692  0
C  C54  1  0.91209525  0.42862945  0.47633286  1  0  -0.135946  0  3.684181  0  0  -0.17417  0  3.942159  0  0  -0.17627  0  3.956064  0  0  -0.167684  -0.172568  0  3.932728  0
C  C55  1  0.08790508  0.57137246  0.52366759  1  0  -0.135909  0  3.684253  0  0  -0.174143  0  3.942214  0  0  -0.176235  0  3.956107  0  0  -0.167678  -0.172542  0  3.932785  0
C  C56  1  0.26688297  0.50177327  0.98158969  1  0  -0.148181  0  3.655145  0  0  -0.1871  0  3.911384  0  0  -0.187035  0  3.926293  0  0  -0.084091  -0.186869  0  3.901638  0
C  C57  1  0.73311629  0.49822619  0.01840898  1  0  -0.148139  0  3.655083  0  0  -0.187072  0  3.911306  0  0  -0.187006  0  3.926218  0  0  -0.084072  -0.186841  0  3.90156  0
C  C58  1  0.00608929  0.26901613  0.79380305  1  0  0.643523  0  3.926272  0  0  0.596568  0  4.216345  0  0  0.630031  0  4.209741  0  0  0.204344  0.573882  0  4.219985  0
C  C59  1  0.99390996  0.73098334  0.20619746  1  0  0.643444  0  3.926367  0  0  0.596491  0  4.21644  0  0  0.629954  0  4.20984  0  0  0.204299  0.573806  0  4.220081  0
C  C60  1  0.62078614  0.88125239  0.23652046  1  0  -0.072238  0  3.620878  0  0  -0.166213  0  3.880404  0  0  -0.159318  0  3.885265  0  0  -0.141764  -0.170638  0  3.876921  0
C  C61  1  0.37921429  0.11874708  0.76347835  1  0  -0.07227  0  3.62092  0  0  -0.16625  0  3.880451  0  0  -0.159355  0  3.885313  0  0  -0.141781  -0.170675  0  3.876967  0
N  N62  1  0.34096193  0.16924793  0.33349277  1  0  -0.472678  0  3.302796  0  0  -0.394745  0  3.607571  0  0  -0.417009  0  3.61723  0  0  -0.369586  -0.379219  0  3.600352  0
N  N63  1  0.65903786  0.83075276  0.66650817  1  0  -0.472696  0  3.302759  0  0  -0.394755  0  3.60756  0  0  -0.417019  0  3.617219  0  0  -0.369603  -0.379229  0  3.600339  0
N  N64  1  0.60355942  0.35490401  0.45072586  1  0  -0.112951  0  3.524982  0  0  -0.021056  0  3.741732  0  0  -0.036811  0  3.76758  0  0  -0.24087  -0.010647  0  3.724108  0
N  N65  1  0.39644153  0.64509668  0.54927521  1  0  -0.113028  0  3.525041  0  0  -0.021132  0  3.741792  0  0  -0.036883  0  3.767635  0  0  -0.240951  -0.010723  0  3.724169  0
O  O66  1  0.17308009  0.99624085  0.01103312  1  0  -0.659252  0  2.07345  0  0  -0.591592  0  2.344208  0  0  -0.617676  0  2.328341  0  0  -0.326902  -0.572057  0  2.354259  0
O  O67  1  0.82692149  0.00375861  0.98896674  1  0  -0.659242  0  2.07338  0  0  -0.591601  0  2.344191  0  0  -0.617682  0  2.328324  0  0  -0.326926  -0.572065  0  2.354242  0
O  O68  1  0.95142435  0.82575688  0.16097349  1  0  -0.670056  0  2.085166  0  0  -0.595538  0  2.36896  0  0  -0.624741  0  2.352016  0  0  -0.337019  -0.575025  0  2.380875  0
O  O69  1  0.04857659  0.17424381  0.83902851  1  0  -0.67011  0  2.085144  0  0  -0.595592  0  2.368931  0  0  -0.624793  0  2.351985  0  0  -0.337058  -0.57508  0  2.38085  0
O  O70  1  0.00867556  0.19445582  0.19391814  1  0  -0.630955  0  2.046685  0  0  -0.554777  0  2.312093  0  0  -0.582651  0  2.296534  0  0  -0.311019  -0.53507  0  2.322585  0
O  O71  1  0.99132486  0.80554364  0.80608067  1  0  -0.630864  0  2.046682  0  0  -0.554759  0  2.312121  0  0  -0.582632  0  2.296562  0  0  -0.311012  -0.535051  0  2.322613  0
O  O72  1  0.51020210  0.71044186  0.16102706  1  0  -0.25612  0  2.332596  0  0  -0.180381  0  2.568774  0  0  -0.199434  0  2.573721  0  0  -0.18658  -0.167041  0  2.564951  0
O  O73  1  0.48979832  0.28955761  0.83897175  1  0  -0.256093  0  2.332612  0  0  -0.180378  0  2.568778  0  0  -0.199432  0  2.573726  0  0  -0.186573  -0.167038  0  2.564954  0
O  O74  1  0.88256833  0.22263938  0.69298067  1  0  -0.616361  0  1.929515  0  0  -0.572871  0  2.151099  0  0  -0.594839  0  2.142332  0  0  -0.32237  -0.557253  0  2.156491  0
O  O75  1  0.11743098  0.77735764  0.30702005  1  0  -0.616353  0  1.929509  0  0  -0.572854  0  2.151082  0  0  -0.594823  0  2.142321  0  0  -0.322367  -0.557234  0  2.156474  0
