# generated using pymatgen
data_CoH18C26N4(ClO2)2
_symmetry_space_group_name_H-M   'P 1'
_cell_length_a   9.72622459
_cell_length_b   10.21389668
_cell_length_c   12.57561916
_cell_angle_alpha   81.54619007
_cell_angle_beta   86.11516056
_cell_angle_gamma   79.73185774
_symmetry_Int_Tables_number   1
_chemical_formula_structural   CoH18C26N4(ClO2)2
_chemical_formula_sum   'Co2 H36 C52 N8 Cl4 O8'
_cell_volume   1214.82220846
_cell_formula_units_Z   2
loop_
 _symmetry_equiv_pos_site_id
 _symmetry_equiv_pos_as_xyz
  1  'x, y, z'
loop_
 _atom_site_type_symbol
 _atom_site_label
 _atom_site_symmetry_multiplicity
 _atom_site_fract_x
 _atom_site_fract_y
 _atom_site_fract_z
 _atom_site_occupancy
 _atom_site_pbe_cm5_charge
 _atom_site_pbe_ddec_charge
 _atom_site_pbe_ddec_spin_density
 _atom_site_pbe_ddec_sum_bond_order
 _atom_site_pbe_magmom
Co  Co0  1  0.24459959  0.38009469  0.25509865  1  0.686811  0.839563  2.926117  2.582313  2.479
Co  Co1  1  0.75478742  0.62116886  0.74381885  1  0.652512  0.757668  -1.127632  2.691692  -0.906
H  H2  1  0.92918539  0.55243750  0.25101549  1  0.14104  0.112664  0.000128  0.993724  0.001
H  H3  1  0.06993151  0.44857158  0.74791775  1  0.140913  0.112992  -0.000119  0.993572  -0.001
H  H4  1  0.89878141  0.94786011  0.68484044  1  0.104079  0.121203  0.000115  1.024957  0.0
H  H5  1  0.10077281  0.05112979  0.31608444  1  0.104552  0.12313  -0.000179  1.0224  0.0
H  H6  1  0.66992992  0.89458516  0.23953619  1  0.104416  0.10688  3.8e-05  0.994227  0.0
H  H7  1  0.33085502  0.10621457  0.76005882  1  0.10425  0.107466  9.4e-05  0.994234  0.0
H  H8  1  0.30145533  0.67798921  0.25607496  1  0.127242  0.087851  0.000141  1.045535  0.0
H  H9  1  0.69870162  0.32388504  0.74719123  1  0.12695  0.088195  -0.000131  1.042984  0.0
H  H10  1  0.67178139  0.61404548  0.17544490  1  0.094798  0.091897  -7e-06  1.057449  0.0
H  H11  1  0.32777449  0.38665425  0.82456435  1  0.094863  0.091711  -1.1e-05  1.058774  0.0
H  H12  1  0.37805374  0.48356945  0.02877404  1  0.106906  0.121311  0.000234  1.011802  0.0
H  H13  1  0.62123988  0.51704238  0.97047729  1  0.106561  0.122306  -0.000209  1.013089  0.0
H  H14  1  0.57055068  0.77627388  0.40681259  1  0.123652  0.134323  0.000215  0.983774  0.0
H  H15  1  0.43115221  0.22580818  0.59354977  1  0.122931  0.132298  -0.00025  0.984264  0.0
H  H16  1  0.43653279  0.84191986  0.31586981  1  0.114814  0.113491  -2.8e-05  0.994736  0.0
H  H17  1  0.56487757  0.15938050  0.68472528  1  0.114689  0.112843  9.5e-05  0.993971  0.0
H  H18  1  0.50619744  0.19504596  0.37577387  1  0.109153  0.131045  0.000639  1.012878  0.0
H  H19  1  0.49324733  0.80652095  0.62552265  1  0.109827  0.131807  -0.000793  1.011279  0.0
H  H20  1  0.39126991  0.81657108  0.94717112  1  0.103245  0.119096  0.000136  1.039688  0.0
H  H21  1  0.60867587  0.18017963  0.05270276  1  0.101618  0.118517  0.00013  1.037209  0.0
H  H22  1  0.76328010  0.74328326  0.00630635  1  0.110239  0.101425  0.000439  1.009939  0.0
H  H23  1  0.23551494  0.25667011  0.99307653  1  0.110414  0.103126  -0.000107  1.013261  0.0
H  H24  1  0.81767203  0.85578451  0.08447402  1  0.105016  0.086636  5.8e-05  0.986545  0.0
H  H25  1  0.18123236  0.14491049  0.91424039  1  0.104313  0.08571  -4.2e-05  0.985824  0.0
H  H26  1  0.75824296  0.56641056  0.44283091  1  0.106821  0.132714  0.000457  1.033151  0.0
H  H27  1  0.24405410  0.43358326  0.55773664  1  0.106498  0.132707  -0.00013  1.030755  0.0
H  H28  1  0.73630640  0.14291780  0.46495522  1  0.097877  0.10253  -2e-06  1.017227  0.0
H  H29  1  0.26400205  0.85752114  0.53489945  1  0.097094  0.101949  4.8e-05  1.019072  0.0
H  H30  1  0.95978407  0.80601886  0.87553175  1  0.100436  0.108759  1.6e-05  1.033128  0.0
H  H31  1  0.04007441  0.19534978  0.12346426  1  0.102087  0.111126  -0.000251  1.032053  0.0
H  H32  1  0.85911804  0.32495791  0.49697215  1  0.089063  0.085934  4e-05  1.0544  0.0
H  H33  1  0.14254953  0.67458572  0.50271986  1  0.088647  0.085482  0.000202  1.053653  0.0
H  H34  1  0.18461058  0.76549290  0.76754529  1  0.098802  0.102973  1.3e-05  1.021452  0.0
H  H35  1  0.81540150  0.23510651  0.23167440  1  0.098738  0.103346  -1.4e-05  1.020612  0.0
H  H36  1  0.39049050  0.61229466  0.84362029  1  0.097183  0.09675  9.1e-05  1.038887  0.0
H  H37  1  0.60929671  0.38819344  0.15587678  1  0.096546  0.095624  -0.00019  1.038004  0.0
C  C38  1  0.16237645  0.57612153  0.05621500  1  0.082248  0.139638  0.00134  4.063701  0.001
C  C39  1  0.83690116  0.42502556  0.94283486  1  0.082594  0.138295  -0.002161  4.061282  -0.001
C  C40  1  0.50747492  0.40977783  0.35711683  1  0.08473  0.138595  0.002151  4.059318  0.002
C  C41  1  0.49248177  0.59173259  0.64498482  1  0.084194  0.132676  -0.003876  4.052636  -0.003
C  C42  1  0.99125688  0.57582979  0.17790677  1  0.160551  0.138701  -0.00032  3.914939  0.0
C  C43  1  0.00795749  0.42529508  0.82111274  1  0.160026  0.136694  0.001857  3.907074  0.002
C  C44  1  0.94525173  0.96944288  0.60440883  1  -0.086666  -0.152621  0.000399  3.959914  0.0
C  C45  1  0.05486059  0.02896289  0.39662386  1  -0.087551  -0.154751  0.000692  3.961959  0.001
C  C46  1  0.04592577  0.66709792  0.01282982  1  0.089491  0.08269  0.002009  4.010775  0.003
C  C47  1  0.95341538  0.33396274  0.98617365  1  0.088008  0.0816  -0.002023  4.011502  -0.003
C  C48  1  0.06920613  0.11124100  0.47352468  1  -0.009787  -0.061106  0.002096  3.94466  0.003
C  C49  1  0.93107819  0.88706250  0.52754335  1  -0.008854  -0.059747  -0.001312  3.947185  -0.002
C  C50  1  0.01309507  0.07952747  0.57797021  1  0.015122  0.113917  0.001345  4.035207  0.002
C  C51  1  0.98713739  0.91885125  0.42304231  1  0.0151  0.114159  -0.00052  4.034907  -0.001
C  C52  1  0.64054339  0.79569928  0.24229110  1  -0.084309  -0.075759  0.000504  3.96102  0.001
C  C53  1  0.36017451  0.20505183  0.75773342  1  -0.085167  -0.079856  0.000227  3.964735  0.0
C  C54  1  0.44079339  0.06564984  0.08691917  1  -0.012307  -0.060551  0.00323  3.958719  0.004
C  C55  1  0.55838293  0.93195778  0.91201782  1  -0.014672  -0.066481  0.005707  3.962788  0.007
C  C56  1  0.38316874  0.60202082  0.29348936  1  0.159248  0.13061  0.005731  3.934033  0.007
C  C57  1  0.61702700  0.39971837  0.70949997  1  0.162013  0.130362  0.007342  3.913209  0.008
C  C58  1  0.57945764  0.51259416  0.37521567  1  0.094018  0.089087  0.002401  3.992996  0.003
C  C59  1  0.42163483  0.48835347  0.62617632  1  0.095224  0.089058  -0.001132  3.997569  -0.002
C  C60  1  0.69998145  0.71337028  0.17264853  1  -0.113994  -0.153264  -4.4e-05  4.011782  0.0
C  C61  1  0.29968040  0.28733709  0.82704769  1  -0.114304  -0.152083  -2e-05  4.015141  0.0
C  C62  1  0.14995410  0.22424027  0.43952778  1  0.205763  0.580191  0.004643  4.228705  0.003
C  C63  1  0.85118712  0.77343960  0.56065957  1  0.204948  0.573979  0.003374  4.224837  0.005
C  C64  1  0.28877403  0.55481675  0.99612700  1  -0.093315  -0.15918  0.001254  3.968213  0.001
C  C65  1  0.71059620  0.44595700  0.00316405  1  -0.093228  -0.159127  -0.00072  3.968344  -0.001
C  C66  1  0.53211023  0.76658297  0.32854380  1  -0.048409  -0.080781  0.000405  3.90042  0.0
C  C67  1  0.46924233  0.23465825  0.67217381  1  -0.046205  -0.075764  -0.000181  3.898239  0.0
C  C68  1  0.38144896  0.13866268  0.18014723  1  0.204357  0.57021  0.003445  4.240077  0.002
C  C69  1  0.61705775  0.85934165  0.81843417  1  0.20309  0.56084  -0.005061  4.23526  -0.009
C  C70  1  0.56228399  0.27438608  0.38891058  1  -0.087083  -0.15178  0.002066  3.950101  0.002
C  C71  1  0.43749984  0.72690778  0.61235625  1  -0.086747  -0.14906  -0.000528  3.94673  0.0
C  C72  1  0.43899161  0.89675923  0.96957189  1  -0.090733  -0.156406  0.000515  3.954353  0.0
C  C73  1  0.56044164  0.10058800  0.02975357  1  -0.089916  -0.158583  0.001294  3.955223  0.001
C  C74  1  0.38094164  0.96334848  0.05520196  1  0.013722  0.112701  0.001287  4.034262  0.002
C  C75  1  0.61834157  0.03432379  0.94387467  1  0.013273  0.114304  0.001222  4.03271  0.001
C  C76  1  0.80231356  0.75156629  0.08481731  1  -0.054082  -0.057156  0.000681  3.935979  0.001
C  C77  1  0.19675938  0.24901194  0.91429143  1  -0.055111  -0.058404  -0.000554  3.934589  -0.001
C  C78  1  0.70688547  0.48570387  0.42567961  1  -0.096764  -0.161601  0.000835  3.970078  0.001
C  C79  1  0.29488480  0.51461399  0.57486555  1  -0.094712  -0.159641  0.000276  3.967878  0.0
C  C80  1  0.69009981  0.24701144  0.43851998  1  -0.096169  -0.089333  -3.3e-05  4.008473  0.0
C  C81  1  0.31032494  0.75360330  0.56185398  1  -0.097908  -0.092588  0.00068  4.010389  0.001
C  C82  1  0.05036865  0.73771240  0.90908925  1  -0.094301  -0.157814  -0.000279  3.999578  0.0
C  C83  1  0.94927304  0.26328726  0.08991986  1  -0.095456  -0.160292  -6.4e-05  4.000753  0.0
C  C84  1  0.76035263  0.35068760  0.45681294  1  -0.099478  -0.082879  0.001005  4.01989  0.001
C  C85  1  0.24093295  0.64939309  0.54338813  1  -0.098887  -0.081353  0.000716  4.019895  0.001
C  C86  1  0.17642961  0.71482630  0.84967157  1  -0.095985  -0.082349  0.000635  3.999771  0.001
C  C87  1  0.82332836  0.28583916  0.14952814  1  -0.0961  -0.081708  8.6e-05  4.002295  0.0
C  C88  1  0.29370493  0.62572643  0.89281906  1  -0.101265  -0.097188  -0.000517  4.028932  -0.001
C  C89  1  0.70592975  0.37480036  0.10646240  1  -0.103419  -0.101373  0.000426  4.032714  0.0
N  N90  1  0.49706749  0.63290423  0.33408793  1  -0.231407  0.000185  0.004249  3.720185  0.006
N  N91  1  0.50406521  0.36834442  0.66762558  1  -0.234895  -0.002851  0.001953  3.721794  0.003
N  N92  1  0.38445292  0.46972522  0.30564133  1  -0.37409  -0.389993  0.03901  3.66528  0.041
N  N93  1  0.61492229  0.53224950  0.69745775  1  -0.372297  -0.364775  -0.021847  3.681685  -0.028
N  N94  1  0.12417494  0.52066125  0.15966829  1  -0.366644  -0.376293  0.039118  3.615262  0.049
N  N95  1  0.87503122  0.48072385  0.83933607  1  -0.363104  -0.36308  -0.040611  3.616102  -0.056
N  N96  1  0.93996262  0.66469276  0.09258140  1  -0.23626  -0.013425  0.001509  3.694303  0.002
N  N97  1  0.05932595  0.33628643  0.90641422  1  -0.236958  -0.012575  -0.00112  3.69064  -0.001
Cl  Cl98  1  0.22866407  0.92011095  0.12054820  1  0.012462  -0.079037  0.000125  1.617008  0.0
Cl  Cl99  1  0.77101317  0.07767950  0.87929437  1  0.01367  -0.078196  0.000225  1.62033  0.0
Cl  Cl100  1  0.01982386  0.18029428  0.67673921  1  0.005871  -0.076349  0.000206  1.630231  0.0
Cl  Cl101  1  0.98019901  0.81839242  0.32407443  1  0.005416  -0.077815  -9.2e-05  1.631897  0.0
O  O102  1  0.11389385  0.29367405  0.34709935  1  -0.337925  -0.560421  0.061723  2.367912  0.084
O  O103  1  0.88930026  0.70026609  0.65150760  1  -0.330777  -0.539461  -0.038426  2.365388  -0.057
O  O104  1  0.33622454  0.26585890  0.15089151  1  -0.326414  -0.556796  0.052683  2.374222  0.074
O  O105  1  0.65388333  0.73034719  0.84677724  1  -0.314149  -0.526044  0.043673  2.369998  0.083
O  O106  1  0.24296296  0.24195736  0.49603621  1  -0.303529  -0.535553  0.006871  2.189832  0.01
O  O107  1  0.75729486  0.75728253  0.50433147  1  -0.298709  -0.52839  0.007556  2.194097  0.012
O  O108  1  0.37968977  0.07823054  0.27328453  1  -0.300894  -0.517565  0.005498  2.126847  0.008
O  O109  1  0.62635247  0.92081345  0.72616372  1  -0.299808  -0.514344  -0.004184  2.132892  -0.004
