# generated using pymatgen
data_Al4H29C50N7(O10F3)2
_symmetry_space_group_name_H-M   'P 1'
_cell_length_a   6.65996062
_cell_length_b   20.44271940
_cell_length_c   23.96511057
_cell_angle_alpha   89.73092275
_cell_angle_beta   88.96356469
_cell_angle_gamma   92.17398583
_symmetry_Int_Tables_number   1
_chemical_formula_structural   Al4H29C50N7(O10F3)2
_chemical_formula_sum   'Al4 H29 C50 N7 O20 F6'
_cell_volume   3259.86567920
_cell_formula_units_Z   1
loop_
 _symmetry_equiv_pos_site_id
 _symmetry_equiv_pos_as_xyz
  1  'x, y, z'
loop_
 _atom_site_type_symbol
 _atom_site_label
 _atom_site_symmetry_multiplicity
 _atom_site_fract_x
 _atom_site_fract_y
 _atom_site_fract_z
 _atom_site_occupancy
 _atom_site_pbe_bader_charge
 _atom_site_pbe_bader_spin_density
 _atom_site_pbe_cm5_charge
 _atom_site_pbe_ddec_charge
 _atom_site_pbe_ddec_spin_density
 _atom_site_pbe_ddec_sum_bond_order
 _atom_site_pbe_magmom
Al  Al0  1  0.14847001  0.49921107  0.49801005  1  2.502296  0  0.403629  1.641168  0  2.58259  0
Al  Al1  1  0.64868443  0.50118844  0.49727324  1  2.50444  0  0.40262  1.642971  0  2.582093  0
Al  Al2  1  0.64222382  0.99875559  0.99964950  1  2.499815  0  0.402305  1.639289  0  2.580521  0
Al  Al3  1  0.14144838  0.99571871  0.00039163  1  2.502341  0  0.400988  1.640157  0  2.585137  0
H  H4  1  0.16234197  0.76734310  0.17602663  1  0.030662  0  0.101589  0.119609  0  0.975871  0
H  H5  1  0.59665081  0.70161212  0.27910364  1  0.089642  0  0.098901  0.043774  0  1.040762  0
H  H6  1  0.80754854  0.70223248  0.16627379  1  0.045858  0  0.097633  0.103493  0  0.982068  0
H  H7  1  0.58915458  0.74272916  0.18827836  1  0.045601  0  0.098904  0.110885  0  0.980059  0
H  H8  1  0.88644422  0.86969236  0.27262689  1  0.092561  0  0.11831  0.091668  0  0.944447  0
H  H9  1  0.17507306  0.81713979  0.23625090  1  0.08089  0  0.103991  0.131697  0  0.989355  0
H  H10  1  0.60048978  0.74015911  0.68402856  1  0.109002  0  0.119665  0.156636  0  0.973759  0
H  H11  1  0.70264278  0.31765464  0.26731178  1  0.101205  0  0.106529  0.109894  0  1.004147  0
H  H12  1  0.70241291  0.23618624  0.18982540  1  0.070113  0  0.105888  0.116459  0  0.998455  0
H  H13  1  0.08144344  0.18327776  0.22890798  1  0.091977  0  0.109873  0.125675  0  0.991356  0
H  H14  1  0.08631665  0.25464280  0.68957202  1  0.119623  0  0.118428  0.155314  0  0.979422  0
H  H15  1  0.55358177  0.87835270  0.29001024  1  0.390417  0  0.29784  0.288071  0  0.946464  0
H  H16  1  0.48690422  0.80320226  0.26947833  1  0.420052  0  0.274858  0.261865  0  1.03874  0
H  H17  1  0.34035418  0.73845791  0.81130158  1  0.456704  0  0.310896  0.310608  0  0.940599  0
H  H18  1  0.21970516  0.79707634  0.84917027  1  0.470656  0  0.317787  0.320069  0  0.921994  0
H  H19  1  0.17697996  0.66406703  0.18302876  1  0.41035  0  0.290331  0.284558  0  0.962125  0
H  H20  1  0.01762888  0.62258392  0.22685552  1  0.473383  0  0.278658  0.287802  0  1.026174  0
H  H21  1  0.05291434  0.29717894  0.34678187  1  0.456807  0  0.315878  0.317511  0  0.937851  0
H  H22  1  0.92383612  0.23673929  0.30968319  1  0.455476  0  0.317658  0.314115  0  0.935932  0
H  H23  1  0.85072701  0.26704962  0.80586269  1  0.466613  0  0.311884  0.311113  0  0.940813  0
H  H24  1  0.73504871  0.20406115  0.84400047  1  0.477254  0  0.317613  0.320555  0  0.924474  0
H  H25  1  0.60774447  0.60877351  0.21502710  1  0.402259  0  0.289411  0.279986  0  0.955154  0
H  H26  1  0.68514679  0.59256589  0.27769534  1  0.413463  0  0.29177  0.280692  0  0.953602  0
H  H27  1  0.58055065  0.79416869  0.35143610  1  0.444086  0  0.297875  0.299468  0  0.979119  0
H  H28  1  0.70323321  0.73148380  0.38111158  1  0.447304  0  0.299194  0.310843  0  0.950221  0
H  H29  1  0.40328599  0.58148442  0.51823191  1  0.633322  0  0.358943  0.440387  0  0.83889  0
H  H30  1  0.88301123  0.42126554  0.52344585  1  0.620459  0  0.355864  0.43593  0  0.847558  0
H  H31  1  0.38877974  0.91857232  0.02631402  1  0.623537  0  0.354889  0.434936  0  0.849036  0
H  H32  1  0.90524485  0.07740462  0.02327887  1  0.605363  0  0.355444  0.436396  0  0.845833  0
C  C33  1  0.39721484  0.42293762  0.42234723  1  1.678683  0  0.271244  0.710035  0  4.181459  0
C  C34  1  0.38513169  0.42178839  0.57495369  1  1.676295  0  0.275321  0.718393  0  4.160914  0
C  C35  1  0.90173539  0.58001322  0.57302593  1  1.682259  0  0.274729  0.719378  0  4.160333  0
C  C36  1  0.91724157  0.57706881  0.42130344  1  1.691449  0  0.278135  0.72106  0  4.164716  0
C  C37  1  0.10596413  0.71412564  0.25355409  1  0.849111  0  0.18389  0.478799  0  3.81342  0
C  C38  1  0.72997769  0.68844486  0.25456304  1  0.323018  0  0.004878  0.156826  0  3.819823  0
C  C39  1  0.74056654  0.72982721  0.20074740  1  -0.063323  0  -0.154379  -0.252229  0  3.826107  0
C  C40  1  0.86566055  0.87553741  0.12449250  1  0.055123  0  -0.054844  -0.230916  0  3.967711  0
C  C41  1  0.91481416  0.70858684  0.29184854  1  0.115983  0  0.004467  -0.100053  0  3.812792  0
C  C42  1  0.09341654  0.77558453  0.21728042  1  -0.017878  0  -0.157815  -0.349369  0  3.851801  0
C  C43  1  0.86997128  0.79312871  0.21076015  1  0.136464  0  0.006735  0.153887  0  3.86504  0
C  C44  1  0.79626987  0.82432157  0.26655985  1  0.351655  0  0.015612  0.033392  0  3.814768  0
C  C45  1  0.85709320  0.77774692  0.31581816  1  0.890529  0  0.187872  0.409413  0  3.832506  0
C  C46  1  0.85788727  0.83876285  0.16450205  1  -0.341617  0  -0.014376  0.002833  0  4.002493  0
C  C47  1  0.93158561  0.66190984  0.33685857  1  -0.487044  0  -0.011984  0.0306  0  4.02934  0
C  C48  1  0.92573297  0.62275385  0.37521571  1  0.20885  0  -0.036607  -0.212321  0  3.917467  0
C  C49  1  0.72656734  0.74432052  0.71214941  1  0.112224  0  -0.106315  -0.279197  0  3.994531  0
C  C50  1  0.89652826  0.70532225  0.70431562  1  0.182984  0  -0.000805  0.066331  0  4.170529  0
C  C51  1  0.05515702  0.71210908  0.74148584  1  0.483559  0  0.093019  0.113512  0  3.988  0
C  C52  1  0.05505421  0.75521663  0.78699455  1  0.476386  0  0.110218  0.191144  0  4.122097  0
C  C53  1  0.88463779  0.79483642  0.79409512  1  0.213174  0  -0.02006  -0.086061  0  4.120448  0
C  C54  1  0.72704960  0.78779911  0.75577637  1  0.394711  0  0.097603  0.248041  0  4.103771  0
C  C55  1  0.90472413  0.66117288  0.65927643  1  -0.548089  0  -0.01904  -0.006518  0  4.085908  0
C  C56  1  0.87786098  0.83925694  0.83849523  1  -0.538071  0  -0.02702  -0.007042  0  4.143813  0
C  C57  1  0.88128359  0.87655735  0.87808203  1  0.242876  0  -0.029791  -0.187081  0  3.930869  0
C  C58  1  0.90519575  0.62389675  0.61982234  1  0.287886  0  -0.029024  -0.180517  0  3.928407  0
C  C59  1  0.56884718  0.24250273  0.21585415  1  -0.003319  0  -0.103317  -0.176222  0  4.007455  0
C  C60  1  0.39111718  0.20464421  0.20521305  1  0.101751  0  0.002632  0.152051  0  4.146525  0
C  C61  1  0.21685417  0.21278611  0.23780415  1  -0.057137  0  -0.094905  -0.252827  0  3.894408  0
C  C62  1  0.21474178  0.25822270  0.28166322  1  0.493354  0  0.115372  0.287554  0  4.088463  0
C  C63  1  0.39496144  0.29615234  0.29226128  1  0.161818  0  -0.015073  0.004367  0  4.087167  0
C  C64  1  0.56812466  0.28763777  0.25867387  1  -0.118995  0  -0.084622  -0.105787  0  4.022076  0
C  C65  1  0.39048526  0.15909636  0.16085989  1  -0.343975  0  -0.020339  -0.025812  0  4.07742  0
C  C66  1  0.39752649  0.34106824  0.33657473  1  -0.541566  0  -0.027449  -0.025705  0  4.14131  0
C  C67  1  0.39436632  0.37876586  0.37592378  1  0.218641  0  -0.041348  -0.206287  0  3.959298  0
C  C68  1  0.39495378  0.12084942  0.12206409  1  0.06683  0  -0.039856  -0.196098  0  3.950592  0
C  C69  1  0.56022268  0.24482764  0.78512103  1  0.563268  0  0.109522  0.191928  0  4.12553  0
C  C70  1  0.38941084  0.20153062  0.79398033  1  0.120222  0  -0.019057  -0.08535  0  4.120342  0
C  C71  1  0.22422162  0.20685098  0.75844272  1  0.44945  0  0.097903  0.249356  0  4.105738  0
C  C72  1  0.21714255  0.25206583  0.71585517  1  0.036179  0  -0.109765  -0.286669  0  4.003488  0
C  C73  1  0.38735577  0.29475823  0.70618901  1  0.107035  0  -0.002245  0.064296  0  4.171721  0
C  C74  1  0.55316225  0.28970696  0.74067596  1  0.521535  0  0.092536  0.112736  0  3.989682  0
C  C75  1  0.38960662  0.15557318  0.83765129  1  -0.467429  0  -0.026782  -0.006229  0  4.142007  0
C  C76  1  0.38906719  0.34033782  0.66168219  1  -0.374943  0  -0.018809  -0.005391  0  4.082658  0
C  C77  1  0.38460665  0.37822341  0.62240352  1  0.145681  0  -0.030465  -0.182676  0  3.924873  0
C  C78  1  0.39971995  0.11741581  0.87668215  1  0.219328  0  -0.028012  -0.184748  0  3.927049  0
C  C79  1  0.39703335  0.07304467  0.92345063  1  1.681408  0  0.276571  0.711162  0  4.173676  0
C  C80  1  0.39912500  0.07687419  0.07539793  1  1.673622  0  0.272018  0.718002  0  4.160859  0
C  C81  1  0.87948049  0.91886667  0.07692424  1  1.677334  0  0.27451  0.731059  0  4.150699  0
C  C82  1  0.88151293  0.92067917  0.92459633  1  1.676827  0  0.274448  0.709689  0  4.177848  0
N  N83  1  0.58805519  0.84150625  0.26360098  1  -1.129538  0  -0.638379  -0.631451  0  3.255229  0
N  N84  1  0.20882610  0.75749896  0.82375850  1  -1.200581  0  -0.576848  -0.579155  0  3.337109  0
N  N85  1  0.13697506  0.65592276  0.22364469  1  -1.207796  0  -0.632719  -0.696445  0  3.234673  0
N  N86  1  0.04574067  0.26730222  0.31318088  1  -1.251661  0  -0.577949  -0.607937  0  3.364317  0
N  N87  1  0.72127961  0.24407704  0.81927654  1  -1.249029  0  -0.575578  -0.579509  0  3.345658  0
N  N88  1  0.72251399  0.61815368  0.24196058  1  -1.123402  0  -0.61873  -0.630905  0  3.194206  0
N  N89  1  0.71406026  0.77390032  0.35886747  1  -1.215712  0  -0.630683  -0.697684  0  3.311953  0
O  O90  1  0.55725245  0.43753089  0.55372331  1  -1.236914  0  -0.231213  -0.593686  0  2.287616  0
O  O91  1  0.22754282  0.43635677  0.44395028  1  -1.242711  0  -0.229545  -0.582344  0  2.291636  0
O  O92  1  0.08298606  0.55586649  0.43776200  1  -1.242726  0  -0.222143  -0.568529  0  2.283482  0
O  O93  1  0.21496735  0.43973877  0.55830861  1  -1.229139  0  -0.231159  -0.589283  0  2.273613  0
O  O94  1  0.07148935  0.56383558  0.55310443  1  -1.233938  0  -0.231629  -0.594674  0  2.282254  0
O  O95  1  0.56928176  0.44397862  0.43810688  1  -1.235698  0  -0.226904  -0.574648  0  2.286086  0
O  O96  1  0.40196591  0.53969188  0.49919643  1  -1.432112  0  -0.445885  -0.993382  0  2.191714  0
O  O97  1  0.72842812  0.56205347  0.55571526  1  -1.23773  0  -0.23112  -0.591813  0  2.279432  0
O  O98  1  0.74310760  0.56281440  0.44171369  1  -1.233232  0  -0.227162  -0.582638  0  2.287905  0
O  O99  1  0.89278980  0.46051232  0.50045185  1  -1.420446  0  -0.446017  -0.991767  0  2.189605  0
O  O100  1  0.23053581  0.06269202  0.05308212  1  -1.240047  0  -0.233278  -0.597582  0  2.284528  0
O  O101  1  0.56404904  0.06283007  0.94639823  1  -1.234874  0  -0.229256  -0.581376  0  2.280732  0
O  O102  1  0.71424508  0.94476460  0.93801797  1  -1.233042  0  -0.223031  -0.567077  0  2.281162  0
O  O103  1  0.57082727  0.05680811  0.06038571  1  -1.23459  0  -0.23279  -0.591687  0  2.276683  0
O  O104  1  0.71552461  0.93233512  0.05347573  1  -1.243985  0  -0.234273  -0.601606  0  2.285276  0
O  O105  1  0.22523294  0.04881554  0.93797025  1  -1.236426  0  -0.222435  -0.566648  0  2.28935  0
O  O106  1  0.38888341  0.95730280  0.00273279  1  -1.424446  0  -0.446458  -0.99002  0  2.182562  0
O  O107  1  0.05609201  0.93930522  0.06215067  1  -1.243302  0  -0.23431  -0.596508  0  2.277005  0
O  O108  1  0.04898709  0.93090666  0.94851556  1  -1.238039  0  -0.228937  -0.581857  0  2.288099  0
O  O109  1  0.89789164  0.03735710  0.00171086  1  -1.405556  0  -0.44639  -0.991383  0  2.185539  0
F  F110  1  0.28037858  0.72499315  0.28945356  1  -0.624602  0  -0.153333  -0.266607  0  1.245776  0
F  F111  1  0.56693027  0.82661281  0.76306182  1  -0.63482  0  -0.097659  -0.139144  0  1.348772  0
F  F112  1  0.22075214  0.67553247  0.73439599  1  -0.627026  0  -0.094528  -0.124213  0  1.349923  0
F  F113  1  0.71941384  0.32964655  0.73178162  1  -0.628414  0  -0.094608  -0.123389  0  1.348383  0
F  F114  1  0.06395377  0.16459864  0.76739584  1  -0.631257  0  -0.098058  -0.137683  0  1.345044  0
F  F115  1  0.04195594  0.80763507  0.33706469  1  -0.614859  0  -0.178171  -0.275697  0  1.202948  0
