# generated using pymatgen
data_GdH4C6N3O8
_symmetry_space_group_name_H-M   'P 1'
_cell_length_a   7.79314304
_cell_length_b   15.78324747
_cell_length_c   15.78335509
_cell_angle_alpha   120.00075791
_cell_angle_beta   89.99973210
_cell_angle_gamma   90.00025949
_symmetry_Int_Tables_number   1
_chemical_formula_structural   GdH4C6N3O8
_chemical_formula_sum   'Gd6 H24 C36 N18 O48'
_cell_volume   1681.26300154
_cell_formula_units_Z   6
loop_
 _symmetry_equiv_pos_site_id
 _symmetry_equiv_pos_as_xyz
  1  'x, y, z'
loop_
 _atom_site_type_symbol
 _atom_site_label
 _atom_site_symmetry_multiplicity
 _atom_site_fract_x
 _atom_site_fract_y
 _atom_site_fract_z
 _atom_site_occupancy
 _atom_site_hle17_bader_spin_density
 _atom_site_hle17_ddec_charge
 _atom_site_hle17_ddec_spin_density
 _atom_site_hle17_ddec_sum_bond_order
 _atom_site_hle17_magmom
 _atom_site_hse06_10hf_bader_spin_density
 _atom_site_hse06_10hf_ddec_charge
 _atom_site_hse06_10hf_ddec_spin_density
 _atom_site_hse06_10hf_ddec_sum_bond_order
 _atom_site_hse06_10hf_magmom
 _atom_site_hse06_bader_spin_density
 _atom_site_hse06_ddec_charge
 _atom_site_hse06_ddec_spin_density
 _atom_site_hse06_ddec_sum_bond_order
 _atom_site_hse06_magmom
 _atom_site_pbe_bader_spin_density
 _atom_site_pbe_cm5_charge
 _atom_site_pbe_ddec_charge
 _atom_site_pbe_ddec_spin_density
 _atom_site_pbe_ddec_sum_bond_order
 _atom_site_pbe_magmom
Gd  Gd0  1  0.24333526  0.37194274  0.18626530  1  0  2.048257  0  1.90627  0  0  1.921466  0  2.308776  0  0  1.983693  0  2.244917  0  0  1.487463  1.874302  0  2.358288  0
Gd  Gd1  1  0.74334734  0.62805854  0.81372319  1  0  2.048271  0  1.9064  0  0  1.921305  0  2.309209  0  0  1.983682  0  2.245141  0  0  1.487411  1.874171  0  2.358711  0
Gd  Gd2  1  0.24332576  0.81373185  0.18567514  1  0  2.048138  0  1.90635  0  0  1.921295  0  2.308891  0  0  1.983566  0  2.245007  0  0  1.48746  1.874162  0  2.358395  0
Gd  Gd3  1  0.24334673  0.81432536  0.62805535  1  0  2.048012  0  1.906776  0  0  1.921313  0  2.309163  0  0  1.983535  0  2.245312  0  0  1.487515  1.874164  0  2.358648  0
Gd  Gd4  1  0.74334357  0.18566348  0.37194023  1  0  2.048191  0  1.90631  0  0  1.921308  0  2.308994  0  0  1.983603  0  2.245024  0  0  1.487347  1.874138  0  2.358514  0
Gd  Gd5  1  0.74334016  0.18627674  0.81433285  1  0  2.048212  0  1.906392  0  0  1.921202  0  2.309256  0  0  1.983617  0  2.245132  0  0  1.487388  1.874074  0  2.358758  0
H  H6  1  0.23893868  0.62074933  0.24266505  1  0  0.078484  0  0.946972  0  0  0.083364  0  1.016905  0  0  0.086119  0  1.012706  0  0  0.140523  0.081224  0  1.020168  0
H  H7  1  0.73894644  0.37924975  0.75733249  1  0  0.078567  0  0.946954  0  0  0.083438  0  1.016872  0  0  0.0862  0  1.012663  0  0  0.140546  0.081299  0  1.020129  0
H  H8  1  0.23894636  0.75733658  0.37808690  1  0  0.078591  0  0.946969  0  0  0.083506  0  1.016831  0  0  0.086262  0  1.012632  0  0  0.14055  0.081364  0  1.020099  0
H  H9  1  0.23895728  0.62191477  0.37925182  1  0  0.078532  0  0.946974  0  0  0.083456  0  1.016823  0  0  0.086207  0  1.012633  0  0  0.140563  0.081312  0  1.020097  0
H  H10  1  0.73897019  0.37807772  0.62074813  1  0  0.07859  0  0.946961  0  0  0.083476  0  1.016849  0  0  0.086231  0  1.012652  0  0  0.140575  0.081334  0  1.020116  0
H  H11  1  0.73895415  0.24266177  0.62191851  1  0  0.078613  0  0.946911  0  0  0.0835  0  1.016813  0  0  0.086257  0  1.012612  0  0  0.140537  0.081356  0  1.020083  0
H  H12  1  0.65122389  0.48764801  0.97729412  1  0  0.140778  0  0.946072  0  0  0.145462  0  1.009834  0  0  0.149441  0  1.008834  0  0  0.122318  0.142557  0  1.010871  0
H  H13  1  0.15120699  0.51236630  0.02270680  1  0  0.14067  0  0.946261  0  0  0.145464  0  1.009907  0  0  0.14944  0  1.008914  0  0  0.122318  0.142559  0  1.010945  0
H  H14  1  0.65122527  0.02271141  0.51035479  1  0  0.14075  0  0.946074  0  0  0.14544  0  1.009829  0  0  0.149419  0  1.008833  0  0  0.122296  0.142534  0  1.010865  0
H  H15  1  0.65121973  0.48964133  0.51234993  1  0  0.140775  0  0.946201  0  0  0.145488  0  1.009915  0  0  0.149467  0  1.008911  0  0  0.122327  0.142582  0  1.01095  0
H  H16  1  0.15121885  0.51034958  0.48763168  1  0  0.140634  0  0.946217  0  0  0.145426  0  1.00987  0  0  0.149406  0  1.00887  0  0  0.122302  0.142521  0  1.010907  0
H  H17  1  0.15122871  0.97728681  0.48965139  1  0  0.140553  0  0.946318  0  0  0.145387  0  1.009928  0  0  0.149362  0  1.008937  0  0  0.122302  0.142482  0  1.010964  0
H  H18  1  0.31206467  0.17676368  0.04733136  1  0  0.451676  0  0.793438  0  0  0.432829  0  0.849018  0  0  0.441966  0  0.835695  0  0  0.33862  0.426247  0  0.857361  0
H  H19  1  0.81209776  0.82323477  0.95264100  1  0  0.451711  0  0.793576  0  0  0.432844  0  0.849053  0  0  0.441984  0  0.835723  0  0  0.338628  0.426263  0  0.857544  0
H  H20  1  0.31206274  0.95266218  0.12942227  1  0  0.45174  0  0.793469  0  0  0.432873  0  0.848994  0  0  0.442012  0  0.835667  0  0  0.338608  0.426292  0  0.85744  0
H  H21  1  0.31210650  0.87058010  0.82323290  1  0  0.451643  0  0.793451  0  0  0.432779  0  0.84909  0  0  0.441919  0  0.835759  0  0  0.338644  0.426196  0  0.857424  0
H  H22  1  0.81210854  0.12940079  0.17676679  1  0  0.451761  0  0.793492  0  0  0.432887  0  0.848989  0  0  0.442028  0  0.835658  0  0  0.338638  0.426305  0  0.857475  0
H  H23  1  0.81206376  0.04734578  0.87058588  1  0  0.451772  0  0.793496  0  0  0.432914  0  0.848948  0  0  0.44205  0  0.835627  0  0  0.338635  0.426334  0  0.857433  0
H  H24  1  0.28247152  0.17606696  0.14421457  1  0  0.453942  0  0.786769  0  0  0.435372  0  0.84255  0  0  0.44433  0  0.830729  0  0  0.341583  0.428898  0  0.850113  0
H  H25  1  0.78247860  0.82392559  0.85575680  1  0  0.453685  0  0.786889  0  0  0.435173  0  0.842636  0  0  0.444121  0  0.830963  0  0  0.341464  0.428704  0  0.850201  0
H  H26  1  0.28244827  0.85578064  0.03184457  1  0  0.453917  0  0.786783  0  0  0.435359  0  0.842566  0  0  0.444319  0  0.830744  0  0  0.341558  0.428885  0  0.850126  0
H  H27  1  0.28245524  0.96816122  0.82393905  1  0  0.453851  0  0.786686  0  0  0.435294  0  0.842476  0  0  0.444252  0  0.830791  0  0  0.341534  0.428819  0  0.850042  0
H  H28  1  0.78243842  0.03182109  0.17606395  1  0  0.45371  0  0.786839  0  0  0.435193  0  0.842585  0  0  0.444141  0  0.830921  0  0  0.341508  0.428722  0  0.850141  0
H  H29  1  0.78244539  0.14422655  0.96816580  1  0  0.453833  0  0.78684  0  0  0.435291  0  0.842589  0  0  0.444249  0  0.830819  0  0  0.34154  0.428818  0  0.850149  0
C  C30  1  0.33867137  0.59282823  0.18691722  1  0  0.331536  0  3.662999  0  0  0.283058  0  3.943563  0  0  0.296822  0  3.954747  0  0  0.202761  0.273888  0  3.93584  0
C  C31  1  0.83868398  0.40718343  0.81308766  1  0  0.331453  0  3.663265  0  0  0.283047  0  3.943708  0  0  0.296804  0  3.954911  0  0  0.202846  0.273883  0  3.935974  0
C  C32  1  0.33867904  0.81308710  0.40590589  1  0  0.331166  0  3.662473  0  0  0.282711  0  3.943  0  0  0.296473  0  3.954189  0  0  0.202728  0.27354  0  3.935277  0
C  C33  1  0.33868315  0.59408996  0.40717630  1  0  0.331475  0  3.663131  0  0  0.283042  0  3.943607  0  0  0.296803  0  3.954794  0  0  0.20275  0.27387  0  3.935892  0
C  C34  1  0.83869786  0.40589390  0.59281277  1  0  0.331125  0  3.663656  0  0  0.282734  0  3.944075  0  0  0.296492  0  3.955277  0  0  0.20267  0.273565  0  3.936346  0
C  C35  1  0.83869299  0.18691358  0.59409793  1  0  0.331305  0  3.663079  0  0  0.282883  0  3.943557  0  0  0.296641  0  3.954756  0  0  0.202809  0.273715  0  3.935831  0
C  C36  1  0.50282527  0.61378378  0.07827700  1  0  0.177728  0  3.662663  0  0  0.174871  0  3.911386  0  0  0.181602  0  3.924261  0  0  0.149666  0.170222  0  3.90298  0
C  C37  1  0.00284216  0.38622008  0.92171840  1  0  0.177563  0  3.662678  0  0  0.174818  0  3.91133  0  0  0.181549  0  3.924217  0  0  0.149511  0.170168  0  3.902925  0
C  C38  1  0.50283220  0.92171698  0.53549975  1  0  0.177606  0  3.662464  0  0  0.174812  0  3.911156  0  0  0.181534  0  3.924056  0  0  0.149617  0.170158  0  3.902755  0
C  C39  1  0.50282951  0.46448878  0.38621295  1  0  0.177894  0  3.66245  0  0  0.174982  0  3.911263  0  0  0.181711  0  3.92414  0  0  0.149638  0.170327  0  3.902866  0
C  C40  1  0.00283920  0.53549898  0.61378200  1  0  0.177672  0  3.662111  0  0  0.174805  0  3.910809  0  0  0.181542  0  3.923717  0  0  0.149593  0.170154  0  3.9024  0
C  C41  1  0.00283524  0.07828030  0.46450503  1  0  0.177529  0  3.662352  0  0  0.174864  0  3.910928  0  0  0.181599  0  3.923802  0  0  0.149596  0.170208  0  3.902532  0
C  C42  1  0.56462422  0.51875358  0.03940536  1  0  -0.127909  0  3.585899  0  0  -0.155898  0  3.825425  0  0  -0.162742  0  3.842263  0  0  -0.052207  -0.151827  0  3.81487  0
C  C43  1  0.06461595  0.48125622  0.96059667  1  0  -0.127814  0  3.585785  0  0  -0.15598  0  3.825353  0  0  -0.162839  0  3.842194  0  0  -0.052159  -0.15191  0  3.814799  0
C  C44  1  0.56462415  0.96059407  0.47934166  1  0  -0.128047  0  3.585941  0  0  -0.156056  0  3.825441  0  0  -0.162908  0  3.842287  0  0  -0.052204  -0.151981  0  3.814882  0
C  C45  1  0.56463365  0.52064714  0.48124320  1  0  -0.128075  0  3.585974  0  0  -0.156118  0  3.82551  0  0  -0.162952  0  3.84236  0  0  -0.05229  -0.152045  0  3.814951  0
C  C46  1  0.06462192  0.47933998  0.51873989  1  0  -0.127824  0  3.585643  0  0  -0.155971  0  3.82522  0  0  -0.162822  0  3.842061  0  0  -0.05216  -0.1519  0  3.814663  0
C  C47  1  0.06462500  0.03940256  0.52066203  1  0  -0.127636  0  3.585613  0  0  -0.155879  0  3.825153  0  0  -0.162725  0  3.842001  0  0  -0.052117  -0.151807  0  3.814598  0
C  C48  1  0.50282329  0.46296174  0.07869019  1  0  0.176368  0  3.664685  0  0  0.173737  0  3.913381  0  0  0.180524  0  3.926188  0  0  0.14897  0.169086  0  3.904972  0
C  C49  1  0.00282618  0.53705967  0.92132159  1  0  0.176472  0  3.664826  0  0  0.173835  0  3.913495  0  0  0.180649  0  3.926265  0  0  0.148908  0.16918  0  3.905082  0
C  C50  1  0.50285217  0.92131086  0.38426543  1  0  0.176605  0  3.665302  0  0  0.173941  0  3.913886  0  0  0.180739  0  3.926667  0  0  0.148952  0.169286  0  3.905466  0
C  C51  1  0.50282820  0.61572499  0.53704254  1  0  0.176535  0  3.664468  0  0  0.173997  0  3.912998  0  0  0.180745  0  3.925848  0  0  0.149067  0.169348  0  3.904587  0
C  C52  1  0.00282511  0.38426204  0.46294064  1  0  0.176298  0  3.665013  0  0  0.173717  0  3.913663  0  0  0.18052  0  3.926446  0  0  0.148886  0.169063  0  3.90526  0
C  C53  1  0.00283066  0.07868056  0.61573959  1  0  0.176367  0  3.665  0  0  0.17381  0  3.913632  0  0  0.180595  0  3.926443  0  0  0.148889  0.169157  0  3.905215  0
C  C54  1  0.54384881  0.35471290  0.03346643  1  0  0.689817  0  3.864114  0  0  0.639453  0  4.16405  0  0  0.674796  0  4.152083  0  0  0.240328  0.615334  0  4.171478  0
C  C55  1  0.04383944  0.64530199  0.96654706  1  0  0.689888  0  3.864733  0  0  0.639683  0  4.16435  0  0  0.675016  0  4.152391  0  0  0.240385  0.615581  0  4.171755  0
C  C56  1  0.54384385  0.96653163  0.32125410  1  0  0.689365  0  3.865831  0  0  0.639222  0  4.165336  0  0  0.674562  0  4.153364  0  0  0.240196  0.615129  0  4.172729  0
C  C57  1  0.54385763  0.67875096  0.64529164  1  0  0.689653  0  3.864436  0  0  0.639357  0  4.164203  0  0  0.674727  0  4.152205  0  0  0.240263  0.615231  0  4.17164  0
C  C58  1  0.04382677  0.32124784  0.35470240  1  0  0.690094  0  3.86468  0  0  0.639763  0  4.164473  0  0  0.675089  0  4.152522  0  0  0.240384  0.615642  0  4.171916  0
C  C59  1  0.04383927  0.03345693  0.67875002  1  0  0.689876  0  3.864668  0  0  0.639554  0  4.16444  0  0  0.674889  0  4.152493  0  0  0.240323  0.615452  0  4.171849  0
C  C60  1  0.54435331  0.67666699  0.03296263  1  0  0.688625  0  3.868251  0  0  0.638847  0  4.167597  0  0  0.674234  0  4.155431  0  0  0.238541  0.614762  0  4.17505  0
C  C61  1  0.04438201  0.32334351  0.96704550  1  0  0.688656  0  3.868159  0  0  0.638818  0  4.16755  0  0  0.674203  0  4.155389  0  0  0.238624  0.614733  0  4.175006  0
C  C62  1  0.54439406  0.96704182  0.64369989  1  0  0.688761  0  3.868501  0  0  0.638842  0  4.168048  0  0  0.674226  0  4.15589  0  0  0.23856  0.614757  0  4.175501  0
C  C63  1  0.54435813  0.35629398  0.32332860  1  0  0.688472  0  3.868905  0  0  0.638699  0  4.168248  0  0  0.674084  0  4.156086  0  0  0.238471  0.614614  0  4.175706  0
C  C64  1  0.04438490  0.64371359  0.67665779  1  0  0.688302  0  3.868591  0  0  0.638709  0  4.167634  0  0  0.674058  0  4.155528  0  0  0.238527  0.614621  0  4.175091  0
C  C65  1  0.04439644  0.03296429  0.35630351  1  0  0.688714  0  3.868489  0  0  0.638864  0  4.167849  0  0  0.674249  0  4.15569  0  0  0.238639  0.614778  0  4.175302  0
N  N66  1  0.39007912  0.50064617  0.15329903  1  0  -0.416191  0  3.199764  0  0  -0.37358  0  3.466745  0  0  -0.390287  0  3.481751  0  0  -0.353233  -0.362099  0  3.456703  0
N  N67  1  0.89008712  0.49936409  0.84671644  1  0  -0.416231  0  3.200035  0  0  -0.37363  0  3.466984  0  0  -0.390351  0  3.481976  0  0  -0.353248  -0.362147  0  3.456931  0
N  N68  1  0.39009647  0.84671200  0.34734534  1  0  -0.416023  0  3.199427  0  0  -0.373451  0  3.466402  0  0  -0.390157  0  3.481401  0  0  -0.353178  -0.361966  0  3.45635  0
N  N69  1  0.39008842  0.65265527  0.49935830  1  0  -0.416158  0  3.199585  0  0  -0.373624  0  3.466532  0  0  -0.390321  0  3.481554  0  0  -0.353241  -0.362143  0  3.456488  0
N  N70  1  0.89009578  0.34734842  0.50063613  1  0  -0.415997  0  3.200313  0  0  -0.373417  0  3.46724  0  0  -0.390136  0  3.482249  0  0  -0.353164  -0.361936  0  3.457197  0
N  N71  1  0.89009928  0.15329168  0.65265416  1  0  -0.416132  0  3.2  0  0  -0.373545  0  3.466926  0  0  -0.390263  0  3.481932  0  0  -0.353216  -0.362062  0  3.456873  0
N  N72  1  0.38966792  0.65099267  0.15273043  1  0  -0.416106  0  3.194224  0  0  -0.373459  0  3.461219  0  0  -0.390135  0  3.476204  0  0  -0.349969  -0.361993  0  3.451188  0
N  N73  1  0.88967581  0.34901467  0.84727153  1  0  -0.415951  0  3.194488  0  0  -0.373325  0  3.46142  0  0  -0.390014  0  3.47641  0  0  -0.349884  -0.361863  0  3.45139  0
N  N74  1  0.38967743  0.84725859  0.49826468  1  0  -0.415808  0  3.193466  0  0  -0.373202  0  3.460437  0  0  -0.389874  0  3.475431  0  0  -0.349989  -0.361745  0  3.450422  0
N  N75  1  0.38967526  0.50174024  0.34900926  1  0  -0.416157  0  3.194275  0  0  -0.373524  0  3.461299  0  0  -0.390201  0  3.47629  0  0  -0.349972  -0.362064  0  3.451285  0
N  N76  1  0.88967873  0.49825028  0.65098936  1  0  -0.415759  0  3.194057  0  0  -0.373144  0  3.461017  0  0  -0.389826  0  3.476005  0  0  -0.349883  -0.36168  0  3.450983  0
N  N77  1  0.88968554  0.15273705  0.50174473  1  0  -0.415983  0  3.19409  0  0  -0.373404  0  3.461016  0  0  -0.390087  0  3.476008  0  0  -0.349995  -0.361944  0  3.450998  0
N  N78  1  0.90459240  0.45799014  0.22900729  1  0  0.698219  0  4.1315  0  0  0.736277  0  4.420376  0  0  0.764553  0  4.426764  0  0  0.085962  0.716785  0  4.415724  0
N  N79  1  0.40459166  0.54201576  0.77099075  1  0  0.697637  0  4.131956  0  0  0.735361  0  4.420952  0  0  0.763976  0  4.427153  0  0  0.08592  0.716229  0  4.416107  0
N  N80  1  0.90458744  0.77099820  0.22897995  1  0  0.697921  0  4.131624  0  0  0.735561  0  4.420773  0  0  0.764178  0  4.426969  0  0  0.085933  0.716415  0  4.415934  0
N  N81  1  0.90459748  0.77102695  0.54201776  1  0  0.697587  0  4.131724  0  0  0.736071  0  4.420095  0  0  0.764348  0  4.426466  0  0  0.085888  0.716579  0  4.415442  0
N  N82  1  0.40460326  0.22897383  0.45799102  1  0  0.698106  0  4.13146  0  0  0.736181  0  4.420292  0  0  0.764457  0  4.426668  0  0  0.086049  0.716694  0  4.41563  0
N  N83  1  0.40459662  0.22900770  0.77102822  1  0  0.697488  0  4.132116  0  0  0.735502  0  4.420789  0  0  0.76412  0  4.42699  0  0  0.0859  0.716361  0  4.41595  0
O  O84  1  0.46914172  0.30841138  0.06884179  1  0  -0.662768  0  2.051826  0  0  -0.622009  0  2.29466  0  0  -0.647474  0  2.282245  0  0  -0.366223  -0.603816  0  2.302829  0
O  O85  1  0.96911092  0.69160851  0.93116691  1  0  -0.663031  0  2.051242  0  0  -0.622277  0  2.293956  0  0  -0.647769  0  2.281545  0  0  -0.366366  -0.604082  0  2.302118  0
O  O86  1  0.46913866  0.93117279  0.23957303  1  0  -0.662611  0  2.051747  0  0  -0.621894  0  2.294382  0  0  -0.64737  0  2.281976  0  0  -0.366131  -0.603708  0  2.302539  0
O  O87  1  0.46912414  0.76042432  0.69160032  1  0  -0.662717  0  2.051728  0  0  -0.62196  0  2.294441  0  0  -0.647435  0  2.282018  0  0  -0.366195  -0.603767  0  2.302611  0
O  O88  1  0.96912594  0.23956557  0.30838767  1  0  -0.663046  0  2.051527  0  0  -0.62224  0  2.294246  0  0  -0.647719  0  2.281838  0  0  -0.366295  -0.604044  0  2.302427  0
O  O89  1  0.96913324  0.06883320  0.76044075  1  0  -0.662961  0  2.051271  0  0  -0.622164  0  2.294004  0  0  -0.647655  0  2.281589  0  0  -0.366295  -0.603974  0  2.30217  0
O  O90  1  0.64644078  0.32000854  0.96211502  1  0  -0.700881  0  2.118167  0  0  -0.656038  0  2.369381  0  0  -0.685471  0  2.362091  0  0  -0.384246  -0.634979  0  2.37393  0
O  O91  1  0.14641630  0.67999699  0.03788216  1  0  -0.700734  0  2.119046  0  0  -0.655981  0  2.370156  0  0  -0.685384  0  2.362877  0  0  -0.384117  -0.634934  0  2.3747  0
O  O92  1  0.64644110  0.03786281  0.35788157  1  0  -0.70075  0  2.119049  0  0  -0.655978  0  2.370081  0  0  -0.685403  0  2.362808  0  0  -0.384168  -0.634938  0  2.374635  0
O  O93  1  0.64644620  0.64210671  0.67999410  1  0  -0.700821  0  2.118523  0  0  -0.656026  0  2.369692  0  0  -0.68546  0  2.362389  0  0  -0.384224  -0.634966  0  2.374242  0
O  O94  1  0.14640960  0.35788199  0.31999973  1  0  -0.700851  0  2.11867  0  0  -0.656049  0  2.369809  0  0  -0.685457  0  2.362546  0  0  -0.384168  -0.634999  0  2.374378  0
O  O95  1  0.14643780  0.96212735  0.64212566  1  0  -0.700785  0  2.118878  0  0  -0.655998  0  2.369995  0  0  -0.685404  0  2.362728  0  0  -0.384129  -0.634958  0  2.374553  0
O  O96  1  0.47131495  0.75879463  0.06926489  1  0  -0.664396  0  2.059546  0  0  -0.625338  0  2.304282  0  0  -0.650636  0  2.291841  0  0  -0.367153  -0.607266  0  2.312419  0
O  O97  1  0.97131719  0.24120551  0.93072569  1  0  -0.664571  0  2.059094  0  0  -0.625481  0  2.303866  0  0  -0.650804  0  2.291423  0  0  -0.367308  -0.607405  0  2.312002  0
O  O98  1  0.47132816  0.93072088  0.68951371  1  0  -0.664577  0  2.059201  0  0  -0.62549  0  2.303996  0  0  -0.650785  0  2.291557  0  0  -0.367281  -0.607412  0  2.312128  0
O  O99  1  0.47131204  0.31046372  0.24120859  1  0  -0.664398  0  2.059842  0  0  -0.625328  0  2.304559  0  0  -0.650623  0  2.292125  0  0  -0.367095  -0.607251  0  2.312691  0
O  O100  1  0.97131881  0.68952399  0.75879477  1  0  -0.664521  0  2.059509  0  0  -0.625522  0  2.304174  0  0  -0.650827  0  2.291751  0  0  -0.36732  -0.607448  0  2.312315  0
O  O101  1  0.97133991  0.06928219  0.31049100  1  0  -0.664557  0  2.059577  0  0  -0.625499  0  2.304362  0  0  -0.650804  0  2.291924  0  0  -0.367279  -0.607422  0  2.312495  0
O  O102  1  0.64536825  0.63949493  0.96082403  1  0  -0.699149  0  2.108881  0  0  -0.654536  0  2.358593  0  0  -0.683955  0  2.351311  0  0  -0.382387  -0.633487  0  2.363086  0
O  O103  1  0.14539083  0.36051132  0.03916464  1  0  -0.698959  0  2.109289  0  0  -0.654354  0  2.359015  0  0  -0.68375  0  2.351751  0  0  -0.382366  -0.63332  0  2.363524  0
O  O104  1  0.64537452  0.03917117  0.67866478  1  0  -0.698955  0  2.109454  0  0  -0.65428  0  2.359208  0  0  -0.683693  0  2.351925  0  0  -0.382274  -0.63324  0  2.363701  0
O  O105  1  0.64535555  0.32132732  0.36050196  1  0  -0.699042  0  2.109224  0  0  -0.654412  0  2.358894  0  0  -0.683831  0  2.351632  0  0  -0.382336  -0.633368  0  2.363401  0
O  O106  1  0.14539198  0.67866211  0.63948400  1  0  -0.698685  0  2.109451  0  0  -0.654166  0  2.359025  0  0  -0.683552  0  2.351782  0  0  -0.382262  -0.633133  0  2.363532  0
O  O107  1  0.14539483  0.96082850  0.32134848  1  0  -0.698978  0  2.109168  0  0  -0.654377  0  2.358891  0  0  -0.683778  0  2.351623  0  0  -0.382419  -0.633332  0  2.363383  0
O  O108  1  0.92268759  0.36475521  0.18238373  1  0  -0.495658  0  1.74928  0  0  -0.492045  0  1.95979  0  0  -0.508844  0  1.953311  0  0  -0.228457  -0.479862  0  1.964129  0
O  O109  1  0.42270907  0.63525656  0.81761911  1  0  -0.495451  0  1.749254  0  0  -0.491677  0  1.959795  0  0  -0.508619  0  1.953282  0  0  -0.228457  -0.479634  0  1.964095  0
O  O110  1  0.92269097  0.81762079  0.18236712  1  0  -0.495579  0  1.749175  0  0  -0.491775  0  1.959704  0  0  -0.508706  0  1.953189  0  0  -0.228514  -0.479725  0  1.964007  0
O  O111  1  0.92270547  0.81763639  0.63525518  1  0  -0.495471  0  1.749289  0  0  -0.491983  0  1.959662  0  0  -0.50878  0  1.953184  0  0  -0.228476  -0.479801  0  1.964  0
O  O112  1  0.42270659  0.18236149  0.36475401  1  0  -0.495648  0  1.749177  0  0  -0.492053  0  1.959711  0  0  -0.508862  0  1.953238  0  0  -0.228547  -0.479872  0  1.964052  0
O  O113  1  0.42271082  0.18238074  0.81763630  1  0  -0.495462  0  1.749494  0  0  -0.491777  0  1.959967  0  0  -0.508722  0  1.953446  0  0  -0.228498  -0.479732  0  1.964271  0
O  O114  1  0.04593767  0.50861435  0.25503715  1  0  -0.562118  0  1.796869  0  0  -0.557616  0  2.031095  0  0  -0.576497  0  2.022062  0  0  -0.269651  -0.543733  0  2.037016  0
O  O115  1  0.54594273  0.49138664  0.74496558  1  0  -0.561927  0  1.796817  0  0  -0.557305  0  2.031096  0  0  -0.576332  0  2.022036  0  0  -0.269662  -0.54356  0  2.03698  0
O  O116  1  0.04592851  0.74496218  0.25357522  1  0  -0.561972  0  1.796696  0  0  -0.557331  0  2.030994  0  0  -0.576341  0  2.021921  0  0  -0.269665  -0.543583  0  2.036892  0
O  O117  1  0.04595047  0.74642300  0.49138704  1  0  -0.561898  0  1.796778  0  0  -0.557588  0  2.030926  0  0  -0.576466  0  2.021887  0  0  -0.269674  -0.543719  0  2.036873  0
O  O118  1  0.54594533  0.25357434  0.50861640  1  0  -0.56202  0  1.796677  0  0  -0.557536  0  2.030924  0  0  -0.57642  0  2.021882  0  0  -0.269679  -0.543663  0  2.036861  0
O  O119  1  0.54593906  0.25503589  0.74642352  1  0  -0.561828  0  1.796836  0  0  -0.557314  0  2.031054  0  0  -0.576346  0  2.021989  0  0  -0.269656  -0.543565  0  2.036939  0
O  O120  1  0.76301034  0.49796197  0.24838656  1  0  -0.364108  0  1.734009  0  0  -0.364923  0  1.92328  0  0  -0.376262  0  1.918651  0  0  -0.145032  -0.356683  0  1.9264  0
O  O121  1  0.26300556  0.50205470  0.75161846  1  0  -0.363909  0  1.734305  0  0  -0.364582  0  1.923605  0  0  -0.376048  0  1.918922  0  0  -0.14498  -0.356492  0  1.926674  0
O  O122  1  0.76300509  0.75161294  0.24956234  1  0  -0.363976  0  1.734254  0  0  -0.364639  0  1.923608  0  0  -0.376112  0  1.918924  0  0  -0.144941  -0.35654  0  1.926679  0
O  O123  1  0.76300002  0.75044007  0.50206024  1  0  -0.363807  0  1.734063  0  0  -0.364769  0  1.923182  0  0  -0.376106  0  1.918552  0  0  -0.144895  -0.356532  0  1.926307  0
O  O124  1  0.26302101  0.24956709  0.49795713  1  0  -0.364063  0  1.734173  0  0  -0.364867  0  1.923428  0  0  -0.376201  0  1.918795  0  0  -0.145009  -0.356633  0  1.926552  0
O  O125  1  0.26300567  0.24838178  0.75043930  1  0  -0.363812  0  1.734168  0  0  -0.364589  0  1.92338  0  0  -0.376058  0  1.918694  0  0  -0.144934  -0.356495  0  1.926451  0
O  O126  1  0.22581559  0.19095185  0.09787010  1  0  -0.826153  0  1.768112  0  0  -0.789304  0  1.933673  0  0  -0.805805  0  1.903225  0  0  -0.598121  -0.777534  0  1.953329  0
O  O127  1  0.72583621  0.80904867  0.90211045  1  0  -0.825964  0  1.768338  0  0  -0.789163  0  1.933744  0  0  -0.805665  0  1.90343  0  0  -0.598075  -0.777403  0  1.953534  0
O  O128  1  0.22580480  0.90212867  0.09307919  1  0  -0.826168  0  1.768162  0  0  -0.789333  0  1.93358  0  0  -0.805837  0  1.903135  0  0  -0.598068  -0.777561  0  1.953329  0
O  O129  1  0.22583346  0.90692085  0.80904728  1  0  -0.826025  0  1.768024  0  0  -0.78922  0  1.933597  0  0  -0.805722  0  1.903289  0  0  -0.598122  -0.777448  0  1.953238  0
O  O130  1  0.72582990  0.09306430  0.19095537  1  0  -0.826016  0  1.768293  0  0  -0.789216  0  1.933729  0  0  -0.805714  0  1.903428  0  0  -0.598084  -0.777446  0  1.953519  0
O  O131  1  0.72580979  0.09788428  0.90692849  1  0  -0.826159  0  1.768281  0  0  -0.789326  0  1.933731  0  0  -0.805845  0  1.903311  0  0  -0.598109  -0.777557  0  1.953521  0
