# generated using pymatgen
data_CuH7C10SN2
_symmetry_space_group_name_H-M   'P 1'
_cell_length_a   5.62361104
_cell_length_b   10.00544954
_cell_length_c   16.48140042
_cell_angle_alpha   89.99965243
_cell_angle_beta   96.18173880
_cell_angle_gamma   89.99908379
_symmetry_Int_Tables_number   1
_chemical_formula_structural   CuH7C10SN2
_chemical_formula_sum   'Cu4 H28 C40 S4 N8'
_cell_volume   921.96268544
_cell_formula_units_Z   4
loop_
 _symmetry_equiv_pos_site_id
 _symmetry_equiv_pos_as_xyz
  1  'x, y, z'
loop_
 _atom_site_type_symbol
 _atom_site_label
 _atom_site_symmetry_multiplicity
 _atom_site_fract_x
 _atom_site_fract_y
 _atom_site_fract_z
 _atom_site_occupancy
 _atom_site_pbe_bader_spin_density
 _atom_site_pbe_cm5_charge
 _atom_site_pbe_ddec_charge
 _atom_site_pbe_ddec_spin_density
 _atom_site_pbe_ddec_sum_bond_order
 _atom_site_pbe_magmom
Cu  Cu0  1  0.42575681  0.51859802  0.08600491  1  0  0.491593  0.33266  0  2.635855  0
Cu  Cu1  1  0.57422794  0.01859611  0.41399392  1  0  0.491617  0.332715  0  2.635887  0
Cu  Cu2  1  0.57420590  0.48140528  0.91399644  1  0  0.491665  0.332753  0  2.636072  0
Cu  Cu3  1  0.42578666  0.98140519  0.58600894  1  0  0.491664  0.332744  0  2.636051  0
H  H4  1  0.81401111  0.33611778  0.07141713  1  0  0.10883  0.083438  0  1.021136  0
H  H5  1  0.18597672  0.83611227  0.42858015  1  0  0.108817  0.083438  0  1.021143  0
H  H6  1  0.18594479  0.66389151  0.92857424  1  0  0.108821  0.083415  0  1.021162  0
H  H7  1  0.81403605  0.16388002  0.57142385  1  0  0.108811  0.083425  0  1.02115  0
H  H8  1  0.15171998  0.23461862  0.15987823  1  0  0.09959  0.106774  0  1.045235  0
H  H9  1  0.84827454  0.73461606  0.34011724  1  0  0.099638  0.106855  0  1.045156  0
H  H10  1  0.84825586  0.76539467  0.84010606  1  0  0.099624  0.106787  0  1.045254  0
H  H11  1  0.15173651  0.26537824  0.65988487  1  0  0.099603  0.106826  0  1.045177  0
H  H12  1  0.18435401  0.27562433  0.31145436  1  0  0.103076  0.106345  0  1.015685  0
H  H13  1  0.81565543  0.77562365  0.18854036  1  0  0.103117  0.106401  0  1.015481  0
H  H14  1  0.81564686  0.72437696  0.68853155  1  0  0.103088  0.106433  0  1.015608  0
H  H15  1  0.18435566  0.22437265  0.81146054  1  0  0.103144  0.106457  0  1.015588  0
H  H16  1  0.01701354  0.38610627  0.42820737  1  0  0.094312  0.09678  0  1.049726  0
H  H17  1  0.98300860  0.88610530  0.07179053  1  0  0.094283  0.096782  0  1.049685  0
H  H18  1  0.98301032  0.61389202  0.57178676  1  0  0.094268  0.096745  0  1.049716  0
H  H19  1  0.01701680  0.11388600  0.92821095  1  0  0.094273  0.096758  0  1.049844  0
H  H20  1  0.69866609  0.52427762  0.48098282  1  0  0.093265  0.091421  0  1.04783  0
H  H21  1  0.30134526  0.02428331  0.01901890  1  0  0.093214  0.091302  0  1.047969  0
H  H22  1  0.30135384  0.47571068  0.51902147  1  0  0.093225  0.091316  0  1.04803  0
H  H23  1  0.69868014  0.97571099  0.98098258  1  0  0.093257  0.091359  0  1.048088  0
H  H24  1  0.36266628  0.61194286  0.38547820  1  0  0.095954  0.09438  0  1.027614  0
H  H25  1  0.63733524  0.11194852  0.11452465  1  0  0.095911  0.094346  0  1.027553  0
H  H26  1  0.63734636  0.38804444  0.61452944  1  0  0.09586  0.094254  0  1.027575  0
H  H27  1  0.36267209  0.88805278  0.88548156  1  0  0.09594  0.094378  0  1.027561  0
H  H28  1  0.34540346  0.56697523  0.23656877  1  0  0.098847  0.107586  0  1.038583  0
H  H29  1  0.65459225  0.06697117  0.26343399  1  0  0.098829  0.107581  0  1.038551  0
H  H30  1  0.65458952  0.43302607  0.76343807  1  0  0.098808  0.107565  0  1.03852  0
H  H31  1  0.34541152  0.93303112  0.73657146  1  0  0.098837  0.107591  0  1.038564  0
C  C32  1  0.07901006  0.37291746  0.94717761  1  0  0.14421  0.258743  0  4.252642  0
C  C33  1  0.92097698  0.87291925  0.55282244  1  0  0.144253  0.258825  0  4.253013  0
C  C34  1  0.92094024  0.62709083  0.05282020  1  0  0.144054  0.258556  0  4.252817  0
C  C35  1  0.07903945  0.12708904  0.44717928  1  0  0.144156  0.258727  0  4.252684  0
C  C36  1  0.82797700  0.35075340  0.13733563  1  0  0.046458  0.10586  0  3.937377  0
C  C37  1  0.17201028  0.85074870  0.36266521  1  0  0.046446  0.105823  0  3.937189  0
C  C38  1  0.17199127  0.64925189  0.86266049  1  0  0.04654  0.105964  0  3.937241  0
C  C39  1  0.82800252  0.14924859  0.63733818  1  0  0.046569  0.106021  0  3.937087  0
C  C40  1  0.01971908  0.29391676  0.18764497  1  0  -0.090424  -0.133367  0  3.984081  0
C  C41  1  0.98027915  0.79391729  0.31234741  1  0  -0.090445  -0.1334  0  3.984289  0
C  C42  1  0.98026735  0.70609053  0.81234400  1  0  -0.090482  -0.133295  0  3.984484  0
C  C43  1  0.01972658  0.20608100  0.68765326  1  0  -0.090485  -0.13345  0  3.984462  0
C  C44  1  0.03739453  0.31681876  0.27042727  1  0  -0.064076  -0.060338  0  3.915718  0
C  C45  1  0.96260988  0.81681832  0.22957378  1  0  -0.064151  -0.060469  0  3.915531  0
C  C46  1  0.96259706  0.68318453  0.72956798  1  0  -0.064116  -0.060591  0  3.915816  0
C  C47  1  0.03740481  0.18318197  0.77042665  1  0  -0.06417  -0.060542  0  3.915865  0
C  C48  1  0.86938494  0.42612683  0.38707456  1  0  -0.087315  -0.111118  0  3.960912  0
C  C49  1  0.13061981  0.92612412  0.11292553  1  0  -0.087308  -0.111111  0  3.960689  0
C  C50  1  0.13061738  0.57387247  0.61292113  1  0  -0.087236  -0.110988  0  3.960584  0
C  C51  1  0.86940554  0.07387017  0.88707716  1  0  -0.087305  -0.111206  0  3.960906  0
C  C52  1  0.69253672  0.50197514  0.41612865  1  0  -0.097047  -0.094299  0  4.028039  0
C  C53  1  0.30747545  0.00198109  0.08386893  1  0  -0.096993  -0.094155  0  4.027486  0
C  C54  1  0.30748170  0.49801016  0.58386769  1  0  -0.096988  -0.09419  0  4.027602  0
C  C55  1  0.69253905  0.99801120  0.91613696  1  0  -0.09691  -0.094013  0  4.02751  0
C  C56  1  0.50203291  0.55244278  0.36181055  1  0  -0.088925  -0.064636  0  4.011126  0
C  C57  1  0.49797379  0.05244245  0.13819756  1  0  -0.08892  -0.064677  0  4.01109  0
C  C58  1  0.49796886  0.44755351  0.63820088  1  0  -0.088927  -0.064567  0  4.011175  0
C  C59  1  0.50204262  0.94755684  0.86180477  1  0  -0.089027  -0.064822  0  4.011295  0
C  C60  1  0.49125162  0.52791463  0.27906574  1  0  -0.09097  -0.164889  0  3.960548  0
C  C61  1  0.50875264  0.02791733  0.22093083  1  0  -0.090965  -0.164821  0  3.9604  0
C  C62  1  0.50874340  0.47207867  0.72093390  1  0  -0.090892  -0.164825  0  3.960286  0
C  C63  1  0.49126188  0.97208496  0.77907446  1  0  -0.090903  -0.164727  0  3.960476  0
C  C64  1  0.67034395  0.44971360  0.24774265  1  0  0.105782  0.194641  0  3.946725  0
C  C65  1  0.32964928  0.94970764  0.25225932  1  0  0.105899  0.19457  0  3.946739  0
C  C66  1  0.32963840  0.55028869  0.75226071  1  0  0.105961  0.194786  0  3.946361  0
C  C67  1  0.67036362  0.05029165  0.74774105  1  0  0.105899  0.194529  0  3.946714  0
C  C68  1  0.86201111  0.39682127  0.30265303  1  0  -0.00464  0.040515  0  3.976943  0
C  C69  1  0.13799640  0.89682362  0.19734423  1  0  -0.004634  0.040633  0  3.976947  0
C  C70  1  0.13798773  0.60317302  0.69733948  1  0  -0.004727  0.04041  0  3.97699  0
C  C71  1  0.86201631  0.10317368  0.80266158  1  0  -0.004729  0.040528  0  3.977038  0
S  S72  1  0.35050109  0.32359395  0.97917461  1  0  -0.156372  -0.290583  0  2.939606  0
S  S73  1  0.64950348  0.82359852  0.52082754  1  0  -0.15639  -0.290571  0  2.939826  0
S  S74  1  0.64947236  0.67640835  0.02082718  1  0  -0.156372  -0.290567  0  2.939967  0
S  S75  1  0.35051119  0.17640677  0.47917350  1  0  -0.156374  -0.290571  0  2.939819  0
N  N76  1  0.88441152  0.40971890  0.92298699  1  0  -0.438173  -0.440745  0  3.504998  0
N  N77  1  0.11557436  0.90972070  0.57701472  1  0  -0.438191  -0.440846  0  3.505118  0
N  N78  1  0.11554055  0.59028740  0.07701150  1  0  -0.438021  -0.440547  0  3.504567  0
N  N79  1  0.88442777  0.09028659  0.42298642  1  0  -0.438129  -0.440759  0  3.504661  0
N  N80  1  0.65723829  0.42539935  0.16493532  1  0  -0.363991  -0.259211  0  3.64017  0
N  N81  1  0.34275939  0.92539940  0.33506266  1  0  -0.364023  -0.259212  0  3.640275  0
N  N82  1  0.34273877  0.57460095  0.83506540  1  0  -0.364141  -0.259359  0  3.640314  0
N  N83  1  0.65724815  0.07459990  0.66493748  1  0  -0.364121  -0.259273  0  3.640439  0
