# generated using pymatgen
data_Zr3H15C31O29
_symmetry_space_group_name_H-M   'P 1'
_cell_length_a   14.76539727
_cell_length_b   14.74058602
_cell_length_c   14.72255772
_cell_angle_alpha   60.40711347
_cell_angle_beta   59.93853425
_cell_angle_gamma   60.22596533
_symmetry_Int_Tables_number   1
_chemical_formula_structural   Zr3H15C31O29
_chemical_formula_sum   'Zr6 H30 C62 O58'
_cell_volume   2275.53395489
_cell_formula_units_Z   2
loop_
 _symmetry_equiv_pos_site_id
 _symmetry_equiv_pos_as_xyz
  1  'x, y, z'
loop_
 _atom_site_type_symbol
 _atom_site_label
 _atom_site_symmetry_multiplicity
 _atom_site_fract_x
 _atom_site_fract_y
 _atom_site_fract_z
 _atom_site_occupancy
 _atom_site_pbe_bader_charge
 _atom_site_pbe_bader_spin_density
 _atom_site_pbe_cm5_charge
 _atom_site_pbe_ddec_charge
 _atom_site_pbe_ddec_spin_density
 _atom_site_pbe_ddec_sum_bond_order
 _atom_site_pbe_magmom
Zr  Zr0  1  0.87127683  0.88440931  0.62207996  1  2.636756  0  1.62961  2.373126  0  2.724013  0
Zr  Zr1  1  0.11599296  0.11887500  0.38910289  1  2.63914  0  1.636644  2.381551  0  2.740418  0
Zr  Zr2  1  0.10939004  0.88137882  0.62772964  1  2.634205  0  1.639584  2.376302  0  2.761582  0
Zr  Zr3  1  0.87677859  0.12201871  0.38431989  1  2.631035  0  1.624707  2.37084  0  2.724863  0
Zr  Zr4  1  0.11567961  0.88191419  0.38522059  1  2.639372  0  1.641652  2.374999  0  2.742297  0
Zr  Zr5  1  0.87256933  0.12238514  0.62665841  1  2.635022  0  1.623891  2.382276  0  2.708073  0
H  H6  1  0.08676280  0.71863376  0.59698282  1  0.616414  0  0.316379  0.406234  0  0.907693  0
H  H7  1  0.09583491  0.09138022  0.22249962  1  0.602858  0  0.321037  0.41024  0  0.888754  0
H  H8  1  0.08542888  0.09207943  0.60658627  1  0.611735  0  0.329848  0.420187  0  0.86499  0
H  H9  1  0.71120114  0.10035736  0.59433430  1  0.615381  0  0.329292  0.417304  0  0.867382  0
H  H10  1  0.15523010  0.56143661  0.41567830  1  0.12078  0  0.113399  0.118377  0  1.016502  0
H  H11  1  0.81728715  0.47475783  0.54720717  1  0.131055  0  0.112913  0.118807  0  1.032308  0
H  H12  1  0.59827233  0.12669570  0.92921257  1  0.140908  0  0.113748  0.123296  0  1.022821  0
H  H13  1  0.38814585  0.87595746  0.08214372  1  0.170672  0  0.117498  0.134181  0  1.022526  0
H  H14  1  0.81712979  0.03388847  0.17569575  1  0.17891  0  0.119615  0.135644  0  1.02051  0
H  H15  1  0.15572175  0.92684694  0.86699161  1  0.133135  0  0.116239  0.128864  0  0.987442  0
H  H16  1  0.59750186  0.42838456  0.34768697  1  0.145099  0  0.121108  0.138674  0  0.976636  0
H  H17  1  0.41150410  0.59872650  0.64251035  1  0.185392  0  0.120961  0.144967  0  1.007499  0
H  H18  1  0.59299324  0.85956167  0.63866806  1  0.116579  0  0.11752  0.127317  0  1.003068  0
H  H19  1  0.39843086  0.13659919  0.36999721  1  0.1827  0  0.115186  0.129418  0  1.037854  0
H  H20  1  0.20523203  0.35232447  0.55544233  1  0.639261  0  0.307334  0.354442  0  0.964734  0
H  H21  1  0.68669104  0.58796776  0.62981611  1  0.652246  0  0.325219  0.380176  0  0.916309  0
H  H22  1  0.42185941  0.26886285  0.00626245  1  0.617424  0  0.333626  0.365729  0  0.886126  0
H  H23  1  0.40025421  0.95947029  0.86942856  1  0.652981  0  0.310419  0.35667  0  0.962553  0
H  H24  1  0.69002480  0.12923321  0.10540039  1  0.653511  0  0.325714  0.381493  0  0.917128  0
H  H25  1  0.18998006  0.07630393  0.91511904  1  0.611725  0  0.308635  0.353711  0  0.961924  0
H  H26  1  0.34893376  0.49728576  0.39403006  1  0.605078  0  0.324161  0.352126  0  0.906663  0
H  H27  1  0.51080628  0.31954224  0.75053365  1  0.614357  0  0.339488  0.368565  0  0.873235  0
H  H28  1  0.43215298  0.83536291  0.78826990  1  0.648078  0  0.307203  0.357048  0  0.962417  0
H  H29  1  0.44636185  0.27563402  0.38749119  1  0.612839  0  0.321482  0.359816  0  0.926459  0
H  H30  1  0.07023404  0.40737999  0.20867400  1  0.640399  0  0.319465  0.364499  0  0.934185  0
H  H31  1  0.05334181  0.71790132  0.90945153  1  0.641768  0  0.320831  0.364749  0  0.931546  0
H  H32  1  0.97833267  0.20889116  0.13191666  1  0.644798  0  0.309209  0.348082  0  0.992953  0
H  H33  1  0.02056826  0.15174858  0.93866723  1  0.621768  0  0.324487  0.356947  0  0.921526  0
H  H34  1  0.06721446  0.29740930  0.70851655  1  0.619035  0  0.333454  0.365612  0  0.880932  0
H  H35  1  0.98150503  0.62055722  0.68937454  1  0.642552  0  0.316009  0.356588  0  0.945184  0
C  C36  1  0.98013518  0.71412961  0.48759722  1  1.601176  0  0.247592  0.652077  0  4.085574  0
C  C37  1  0.30304136  0.99933332  0.20765034  1  1.560195  0  0.245774  0.649892  0  4.073821  0
C  C38  1  0.99602662  0.30823776  0.50035813  1  1.560966  0  0.234934  0.633291  0  4.118504  0
C  C39  1  0.68607914  0.00427986  0.80557023  1  1.550271  0  0.241381  0.649197  0  4.081468  0
C  C40  1  0.99426782  0.69257046  0.80491147  1  1.53802  0  0.239343  0.66347  0  4.084822  0
C  C41  1  0.69125809  0.00735776  0.49600227  1  1.566244  0  0.241671  0.64704  0  4.078452  0
C  C42  1  0.00155792  0.30487377  0.19344334  1  1.508639  0  0.233476  0.650833  0  4.074981  0
C  C43  1  0.29734755  0.99190775  0.51398335  1  1.564826  0  0.242708  0.643977  0  4.076599  0
C  C44  1  0.30017099  0.70091999  0.50209678  1  1.566444  0  0.243828  0.642963  0  4.085253  0
C  C45  1  0.97743637  0.99163634  0.82326355  1  1.599599  0  0.242341  0.646258  0  4.107024  0
C  C46  1  0.69935081  0.31585260  0.49707805  1  1.557456  0  0.234405  0.632192  0  4.116313  0
C  C47  1  0.99705739  0.99086085  0.20646509  1  1.607221  0  0.241065  0.650043  0  4.096291  0
C  C48  1  0.99463119  0.41563836  0.48848053  1  -0.0014  0  -0.00438  -0.040991  0  3.926239  0
C  C49  1  0.97852746  0.61851632  0.47775587  1  0.042267  0  0.010376  -0.014221  0  3.898377  0
C  C50  1  0.09152981  0.44054321  0.44733151  1  -0.04949  0  0.000525  -0.044608  0  3.934274  0
C  C51  1  0.88136028  0.59738749  0.51083943  1  0.001891  0  0.001479  -0.048691  0  3.951828  0
C  C52  1  0.08149779  0.54154556  0.44393706  1  -0.001437  0  -0.06847  -0.103146  0  3.922507  0
C  C53  1  0.89092907  0.49499725  0.51885145  1  -0.030495  0  -0.069679  -0.105672  0  3.923671  0
C  C54  1  0.40373383  0.99942529  0.10573919  1  0.060467  0  0.002055  -0.027764  0  3.905956  0
C  C55  1  0.58334621  0.00347704  0.90551538  1  -0.023114  0  -0.004789  -0.046951  0  3.921192  0
C  C56  1  0.46222468  0.07171118  0.06307261  1  -0.055913  0  -0.004867  -0.065376  0  3.975811  0
C  C57  1  0.52382806  0.93204333  0.94772635  1  -0.004133  0  0.004647  -0.039777  0  3.904199  0
C  C58  1  0.54985697  0.07383144  0.96268322  1  0.012894  0  -0.078352  -0.120596  0  3.981264  0
C  C59  1  0.43481583  0.93090487  0.04786912  1  -0.03799  0  -0.067938  -0.101987  0  3.900376  0
C  C60  1  0.97778809  0.98183836  0.92951862  1  -0.001889  0  0.004308  -0.021656  0  3.913515  0
C  C61  1  0.99438897  0.98289859  0.11072109  1  0.046063  0  -0.001752  -0.043696  0  3.933671  0
C  C62  1  0.88123158  0.00936824  0.01805340  1  -0.004103  0  -0.001551  -0.057739  0  3.975251  0
C  C63  1  0.09119082  0.94974152  0.02509834  1  -0.069253  0  0.000532  -0.054717  0  3.954524  0
C  C64  1  0.89056555  0.01120607  0.10670793  1  -0.0706  0  -0.068262  -0.107232  0  3.909906  0
C  C65  1  0.08148898  0.94994294  0.93521275  1  -0.046094  0  -0.073455  -0.119281  0  3.930216  0
C  C66  1  0.40592423  0.60437809  0.49685513  1  0.091707  0  0.001087  -0.035511  0  3.904684  0
C  C67  1  0.59917362  0.41798536  0.49735723  1  -0.059483  0  -0.010103  -0.05337  0  3.955585  0
C  C68  1  0.45924987  0.55830578  0.41131778  1  -0.074648  0  -0.000416  -0.058581  0  3.968355  0
C  C69  1  0.54720728  0.46587265  0.58140671  1  -0.059394  0  -0.007604  -0.080693  0  3.977715  0
C  C70  1  0.55513872  0.46563793  0.41278598  1  0.05896  0  -0.071119  -0.110023  0  3.928006  0
C  C71  1  0.45136923  0.55876249  0.58000203  1  -0.07504  0  -0.065137  -0.093722  0  3.894284  0
C  C72  1  0.01467797  0.58347426  0.89282278  1  0.014832  0  -0.030101  -0.196469  0  3.942768  0
C  C73  1  0.02187957  0.48498809  0.88810984  1  0.00545  0  -0.016025  -0.025331  0  4.027075  0
C  C74  1  0.03244314  0.57865429  0.98019012  1  0.596253  0  0.098569  0.221814  0  4.019266  0
C  C75  1  0.04266499  0.47690027  0.78625905  1  0.577885  0  0.056182  0.143379  0  4.047206  0
C  C76  1  0.05952585  0.37747795  0.78203392  1  0.484028  0  0.053876  0.108569  0  4.121295  0
C  C77  1  0.01961017  0.39182103  0.08343868  1  0.004324  0  -0.038216  -0.217332  0  3.963298  0
C  C78  1  0.03772473  0.48053314  0.07566742  1  0.589822  0  0.099841  0.228113  0  4.024399  0
C  C79  1  0.02043823  0.38904171  0.98644277  1  0.069202  0  -0.022735  -0.035958  0  4.037765  0
C  C80  1  0.03526522  0.29022588  0.97845271  1  0.555775  0  0.055  0.151096  0  4.121602  0
C  C81  1  0.05382410  0.28592761  0.87865066  1  0.414565  0  0.036242  0.062604  0  4.130183  0
C  C82  1  0.40083512  0.98978637  0.51178810  1  0.007228  0  -0.000439  -0.034445  0  3.89389  0
C  C83  1  0.59142103  0.00462393  0.49612127  1  0.070148  0  -0.002722  -0.038201  0  3.925304  0
C  C84  1  0.45640307  0.90880391  0.58851782  1  0.008323  0  -0.000223  -0.051811  0  3.92882  0
C  C85  1  0.53803069  0.08283787  0.41764166  1  -0.052234  0  -0.003988  -0.064218  0  3.948322  0
C  C86  1  0.54892114  0.91991726  0.58035512  1  -0.012397  0  -0.072509  -0.101227  0  3.947057  0
C  C87  1  0.44169964  0.07597196  0.42897244  1  -0.043923  0  -0.072596  -0.104193  0  3.928311  0
C  C88  1  0.20929688  0.36472445  0.41473681  1  1.5326  0  0.23829  0.578172  0  4.067675  0
C  C89  1  0.77276172  0.68991947  0.52012067  1  1.569051  0  0.236839  0.581246  0  4.115549  0
C  C90  1  0.44607277  0.13383444  0.12879559  1  1.575281  0  0.235007  0.586654  0  4.125556  0
C  C91  1  0.54493697  0.85980993  0.88908735  1  1.55981  0  0.246674  0.603513  0  4.043848  0
C  C92  1  0.77197666  0.02337167  0.02210225  1  1.550163  0  0.239031  0.585933  0  4.111175  0
C  C93  1  0.20736772  0.92287887  0.01574749  1  1.53976  0  0.244567  0.586588  0  4.063808  0
C  C94  1  0.42188232  0.60624676  0.31351672  1  1.580241  0  0.237413  0.58256  0  4.124902  0
C  C95  1  0.58813289  0.42345017  0.67538994  1  1.545113  0  0.251813  0.613359  0  4.077685  0
C  C96  1  0.42921370  0.80518925  0.67338430  1  1.5679  0  0.233195  0.590278  0  4.121994  0
C  C97  1  0.57771794  0.17373801  0.31802379  1  1.567036  0  0.253318  0.621849  0  4.066796  0
O  O98  1  0.90820896  0.74419106  0.57276973  1  -1.184869  0  -0.348648  -0.628318  0  2.294481  0
O  O99  1  0.25802894  0.08127908  0.24266124  1  -1.172941  0  -0.354271  -0.620855  0  2.311086  0
O  O100  1  0.07687496  0.26177276  0.42941551  1  -1.171309  0  -0.356592  -0.613431  0  2.334173  0
O  O101  1  0.72899490  0.92704124  0.76518325  1  -1.170331  0  -0.349533  -0.604317  0  2.323765  0
O  O102  1  0.05949465  0.74463139  0.77332666  1  -1.185067  0  -0.362786  -0.639451  0  2.340624  0
O  O103  1  0.72792439  0.08730129  0.42258783  1  -1.175971  0  -0.349232  -0.613786  0  2.286718  0
O  O104  1  0.92503772  0.26396563  0.22982460  1  -1.182708  0  -0.350637  -0.617888  0  2.272274  0
O  O105  1  0.25019224  0.92233965  0.59549768  1  -1.172583  0  -0.353488  -0.613893  0  2.318048  0
O  O106  1  0.25874458  0.73605640  0.42775648  1  -1.166385  0  -0.343448  -0.608992  0  2.306627  0
O  O107  1  0.90732745  0.07564893  0.77968115  1  -1.17864  0  -0.346791  -0.614033  0  2.253882  0
O  O108  1  0.73438660  0.27411336  0.57778280  1  -1.177927  0  -0.345552  -0.615058  0  2.324221  0
O  O109  1  0.08100599  0.92417669  0.23694257  1  -1.165112  0  -0.343705  -0.5938  0  2.312616  0
O  O110  1  0.05564362  0.91707473  0.78097820  1  -1.182168  0  -0.350079  -0.607519  0  2.302597  0
O  O111  1  0.74000253  0.27703531  0.41915586  1  -1.176023  0  -0.343046  -0.597297  0  2.263873  0
O  O112  1  0.91577542  0.06417458  0.24904107  1  -1.189069  0  -0.346459  -0.609244  0  2.291965  0
O  O113  1  0.25844142  0.73921741  0.58053275  1  -1.166419  0  -0.3388  -0.590542  0  2.277027  0
O  O114  1  0.91507447  0.73145121  0.76923876  1  -1.171131  0  -0.332412  -0.596471  0  2.234453  0
O  O115  1  0.26072160  0.06638047  0.43494909  1  -1.1777  0  -0.34731  -0.597709  0  2.306267  0
O  O116  1  0.06044420  0.27706150  0.24978507  1  -1.187009  0  -0.334265  -0.614035  0  2.290015  0
O  O117  1  0.73117934  0.93102708  0.57211508  1  -1.174198  0  -0.349388  -0.604169  0  2.318442  0
O  O118  1  0.72403252  0.08222043  0.76744851  1  -1.178372  0  -0.352076  -0.615453  0  2.296559  0
O  O119  1  0.05993008  0.75058847  0.41612592  1  -1.174265  0  -0.342708  -0.592317  0  2.2807  0
O  O120  1  0.26580170  0.92045374  0.24971676  1  -1.166723  0  -0.342833  -0.590511  0  2.29097  0
O  O121  1  0.91763141  0.27191510  0.57862637  1  -1.176366  0  -0.341819  -0.602084  0  2.24266  0
O  O122  1  0.79150927  0.07447362  0.56862370  1  -1.239795  0  -0.695403  -1.067564  0  2.389619  0
O  O123  1  0.05725275  0.06777436  0.57853638  1  -1.24242  0  -0.697453  -1.075389  0  2.384452  0
O  O124  1  0.06379744  0.06967370  0.30303845  1  -1.235161  0  -0.695906  -1.07352  0  2.366558  0
O  O125  1  0.05867932  0.79925222  0.57170355  1  -1.250747  0  -0.696688  -1.076961  0  2.360008  0
O  O126  1  0.14289185  0.95108557  0.45824439  1  -1.19672  0  -0.795633  -1.154246  0  2.146208  0
O  O127  1  0.94470904  0.95426276  0.45409901  1  -1.193399  0  -0.790176  -1.142175  0  2.135114  0
O  O128  1  0.94571432  0.15072224  0.45658232  1  -1.198928  0  -0.788602  -1.145631  0  2.116052  0
O  O129  1  0.93982574  0.95384972  0.65402137  1  -1.194295  0  -0.788372  -1.143579  0  2.118511  0
O  O130  1  0.26102807  0.33084452  0.48846255  1  -1.14991  0  -0.35587  -0.526846  0  2.223184  0
O  O131  1  0.26184620  0.33964012  0.33125134  1  -1.087814  0  -0.239987  -0.392907  0  2.095866  0
O  O132  1  0.67860216  0.66712758  0.59305356  1  -1.138714  0  -0.321482  -0.466073  0  2.293637  0
O  O133  1  0.76950237  0.78449022  0.45912758  1  -1.118146  0  -0.269267  -0.441348  0  2.101264  0
O  O134  1  0.42462064  0.24487849  0.07992314  1  -1.109054  0  -0.327035  -0.454601  0  2.207777  0
O  O135  1  0.45829428  0.08731016  0.21857454  1  -1.110354  0  -0.256741  -0.424447  0  2.155227  0
O  O136  1  0.46818472  0.90459255  0.83748459  1  -1.156671  0  -0.341373  -0.518314  0  2.304897  0
O  O137  1  0.61671956  0.77190458  0.88551353  1  -1.098136  0  -0.251888  -0.40655  0  2.058338  0
O  O138  1  0.68071942  0.09909439  0.06490451  1  -1.135475  0  -0.320098  -0.468325  0  2.306859  0
O  O139  1  0.76579233  0.96645454  0.98844861  1  -1.099949  0  -0.263003  -0.432704  0  2.101338  0
O  O140  1  0.24764323  0.01034873  0.94424127  1  -1.111095  0  -0.340704  -0.50408  0  2.281313  0
O  O141  1  0.26685053  0.83410957  0.05656522  1  -1.081812  0  -0.235417  -0.388611  0  2.089232  0
O  O142  1  0.35915817  0.55647634  0.32257701  1  -1.090699  0  -0.327611  -0.456893  0  2.220418  0
O  O143  1  0.45151723  0.67758655  0.22906245  1  -1.102752  0  -0.251558  -0.408447  0  2.079182  0
O  O144  1  0.54782919  0.34529949  0.76811716  1  -1.106557  0  -0.324604  -0.466081  0  2.229588  0
O  O145  1  0.64433701  0.46090150  0.67700138  1  -1.122556  0  -0.253226  -0.442941  0  2.136942  0
O  O146  1  0.41188304  0.78590553  0.77974687  1  -1.146457  0  -0.341216  -0.478618  0  2.238254  0
O  O147  1  0.42686182  0.73889480  0.64894638  1  -1.112235  0  -0.271347  -0.452441  0  2.162168  0
O  O148  1  0.51484958  0.27719495  0.32284681  1  -1.096169  0  -0.324373  -0.462287  0  2.237849  0
O  O149  1  0.65639263  0.15976901  0.23416331  1  -1.150839  0  -0.265749  -0.468224  0  2.156504  0
O  O150  1  0.05537712  0.48356181  0.15499034  1  -1.117278  0  -0.329012  -0.388965  0  2.279152  0
O  O151  1  0.04246687  0.66209097  0.98450913  1  -1.12415  0  -0.331647  -0.388701  0  2.277897  0
O  O152  1  0.03832048  0.19192411  0.06366196  1  -1.191531  0  -0.372004  -0.478722  0  2.416339  0
O  O153  1  0.06993682  0.18868408  0.86972638  1  -1.144876  0  -0.356142  -0.456991  0  2.366023  0
O  O154  1  0.07993762  0.36624674  0.68504134  1  -1.132958  0  -0.34074  -0.424213  0  2.370959  0
O  O155  1  0.05473308  0.56293941  0.68683625  1  -1.181095  0  -0.373322  -0.462065  0  2.336115  0
