# generated using pymatgen
data_Ca2H24C8O19
_symmetry_space_group_name_H-M   'P 1'
_cell_length_a   6.27440328
_cell_length_b   8.01187485
_cell_length_c   10.23315714
_cell_angle_alpha   96.58726318
_cell_angle_beta   105.48882727
_cell_angle_gamma   106.58824406
_symmetry_Int_Tables_number   1
_chemical_formula_structural   Ca2H24C8O19
_chemical_formula_sum   'Ca2 H24 C8 O19'
_cell_volume   464.83775227
_cell_formula_units_Z   1
loop_
 _symmetry_equiv_pos_site_id
 _symmetry_equiv_pos_as_xyz
  1  'x, y, z'
loop_
 _atom_site_type_symbol
 _atom_site_label
 _atom_site_symmetry_multiplicity
 _atom_site_fract_x
 _atom_site_fract_y
 _atom_site_fract_z
 _atom_site_occupancy
 _atom_site_hle17_bader_spin_density
 _atom_site_hle17_ddec_charge
 _atom_site_hle17_ddec_spin_density
 _atom_site_hle17_ddec_sum_bond_order
 _atom_site_hle17_magmom
 _atom_site_hse06_10hf_bader_spin_density
 _atom_site_hse06_10hf_ddec_charge
 _atom_site_hse06_10hf_ddec_spin_density
 _atom_site_hse06_10hf_ddec_sum_bond_order
 _atom_site_hse06_10hf_magmom
 _atom_site_hse06_bader_spin_density
 _atom_site_hse06_ddec_charge
 _atom_site_hse06_ddec_spin_density
 _atom_site_hse06_ddec_sum_bond_order
 _atom_site_hse06_magmom
 _atom_site_pbe_bader_spin_density
 _atom_site_pbe_cm5_charge
 _atom_site_pbe_ddec_charge
 _atom_site_pbe_ddec_spin_density
 _atom_site_pbe_ddec_sum_bond_order
 _atom_site_pbe_magmom
Ca  Ca0  1  0.32094564  0.70599247  0.77646956  1  0  1.552438  0  1.047541  0  0  1.418838  0  1.386701  0  0  1.458247  0  1.34486  0  0  0.84004  1.389088  0  1.41646  0
Ca  Ca1  1  0.67577101  0.29337244  0.22299784  1  0  1.564229  0  1.040239  0  0  1.434782  0  1.378089  0  0  1.474218  0  1.335891  0  0  0.861302  1.405527  0  1.407439  0
H  H2  1  0.74416302  0.25523135  0.61163474  1  0  0.069098  0  0.930229  0  0  0.07371  0  0.998838  0  0  0.07701  0  0.995108  0  0  0.115148  0.071222  0  1.001796  0
H  H3  1  0.52109835  0.25367733  0.78166815  1  0  0.071131  0  0.94333  0  0  0.0753  0  1.012323  0  0  0.078692  0  1.008624  0  0  0.117865  0.072802  0  1.015131  0
H  H4  1  0.81426211  0.52689648  0.55890713  1  0  0.382718  0  0.907085  0  0  0.356243  0  0.979363  0  0  0.367841  0  0.966444  0  0  0.307075  0.348102  0  0.988392  0
H  H5  1  0.67823100  0.51621516  0.92794433  1  0  0.375326  0  0.893397  0  0  0.351677  0  0.964088  0  0  0.362059  0  0.952272  0  0  0.31192  0.344308  0  0.97249  0
H  H6  1  0.73831645  0.00447016  0.76270900  1  0  0.421538  0  0.888367  0  0  0.387956  0  0.955996  0  0  0.399058  0  0.939976  0  0  0.296529  0.380097  0  0.967329  0
H  H7  1  0.67089608  0.84662734  0.63034455  1  0  0.427885  0  0.870905  0  0  0.393974  0  0.938825  0  0  0.4044  0  0.923586  0  0  0.301277  0.386685  0  0.949489  0
H  H8  1  0.69514761  0.94178284  0.04856879  1  0  0.425205  0  0.87889  0  0  0.395772  0  0.939924  0  0  0.407008  0  0.923562  0  0  0.297724  0.387814  0  0.951485  0
H  H9  1  0.65071640  0.73953092  0.04662607  1  0  0.413416  0  0.874884  0  0  0.382407  0  0.952386  0  0  0.39243  0  0.93759  0  0  0.305491  0.375204  0  0.96301  0
H  H10  1  0.00126888  0.83641163  0.55559613  1  0  0.416615  0  0.886231  0  0  0.38325  0  0.953744  0  0  0.394617  0  0.937127  0  0  0.293706  0.375136  0  0.965598  0
H  H11  1  0.24168652  0.98560015  0.58297029  1  0  0.418575  0  0.878913  0  0  0.386626  0  0.944508  0  0  0.397506  0  0.928455  0  0  0.292952  0.37881  0  0.956055  0
H  H12  1  0.95462022  0.85664756  0.82359866  1  0  0.427538  0  0.868306  0  0  0.394843  0  0.937859  0  0  0.406094  0  0.921187  0  0  0.302775  0.386819  0  0.949733  0
H  H13  1  0.08940706  0.83670292  0.97087280  1  0  0.430309  0  0.870183  0  0  0.397347  0  0.936625  0  0  0.40816  0  0.920887  0  0  0.304025  0.389838  0  0.947528  0
H  H14  1  0.22516325  0.75389359  0.38087999  1  0  0.060068  0  0.931071  0  0  0.067739  0  0.994368  0  0  0.070531  0  0.991375  0  0  0.11366  0.065646  0  0.996767  0
H  H15  1  0.34779084  0.51232301  0.17890806  1  0  0.11559  0  0.933348  0  0  0.129786  0  0.994123  0  0  0.132621  0  0.992319  0  0  0.114983  0.12766  0  0.995609  0
H  H16  1  0.44553826  0.74841445  0.20401071  1  0  0.126592  0  0.958795  0  0  0.13558  0  1.026335  0  0  0.139283  0  1.023449  0  0  0.11086  0.132888  0  1.028469  0
H  H17  1  0.16066924  0.48194473  0.43392749  1  0  0.389469  0  0.912674  0  0  0.362115  0  0.984609  0  0  0.373735  0  0.969434  0  0  0.308579  0.353966  0  0.99352  0
H  H18  1  0.23639266  0.00461245  0.22444409  1  0  0.425881  0  0.87992  0  0  0.392994  0  0.945904  0  0  0.404226  0  0.92973  0  0  0.29928  0.385044  0  0.957347  0
H  H19  1  0.31004877  0.16129858  0.35840800  1  0  0.431272  0  0.867652  0  0  0.397094  0  0.93609  0  0  0.407793  0  0.920468  0  0  0.30203  0.389651  0  0.946971  0
H  H20  1  0.32176201  0.30725211  0.96041793  1  0  0.42146  0  0.880491  0  0  0.387171  0  0.95123  0  0  0.398581  0  0.934329  0  0  0.298923  0.378991  0  0.963345  0
H  H21  1  0.28370324  0.10103362  0.95026558  1  0  0.43005  0  0.866816  0  0  0.40098  0  0.92718  0  0  0.412232  0  0.910757  0  0  0.297223  0.39297  0  0.938851  0
H  H22  1  0.98312268  0.15978712  0.43582634  1  0  0.416585  0  0.887875  0  0  0.384709  0  0.953097  0  0  0.395959  0  0.936645  0  0  0.293963  0.37671  0  0.964789  0
H  H23  1  0.74261324  0.00953842  0.40852740  1  0  0.425976  0  0.871452  0  0  0.393512  0  0.937212  0  0  0.404685  0  0.920829  0  0  0.293799  0.385534  0  0.948914  0
H  H24  1  0.90252695  0.18141803  0.01565319  1  0  0.43447  0  0.870833  0  0  0.399247  0  0.940385  0  0  0.410824  0  0.923636  0  0  0.302452  0.391231  0  0.951972  0
H  H25  1  0.04003715  0.15851118  0.16477843  1  0  0.426112  0  0.874894  0  0  0.394061  0  0.941138  0  0  0.405248  0  0.924593  0  0  0.302831  0.386096  0  0.952899  0
C  C26  1  0.96640648  0.34179170  0.82129736  1  0  0.65677  0  3.854234  0  0  0.600859  0  4.158874  0  0  0.633736  0  4.151268  0  0  0.224441  0.578611  0  4.163253  0
C  C27  1  0.79494662  0.37147313  0.69659340  1  0  0.061032  0  3.658556  0  0  0.034249  0  3.916732  0  0  0.0359  0  3.923041  0  0  -0.000636  0.032902  0  3.912473  0
C  C28  1  0.57222303  0.37162053  0.73662336  1  0  0.050253  0  3.655179  0  0  0.022577  0  3.913308  0  0  0.023838  0  3.919582  0  0  -0.002502  0.021553  0  3.908925  0
C  C29  1  0.37273913  0.35151309  0.60656772  1  0  0.675556  0  3.809151  0  0  0.614895  0  4.119721  0  0  0.648393  0  4.111497  0  0  0.231845  0.592203  0  4.124508  0
C  C30  1  0.00012349  0.66723798  0.17152884  1  0  0.660041  0  3.820435  0  0  0.603206  0  4.124335  0  0  0.636007  0  4.116819  0  0  0.231517  0.581049  0  4.128624  0
C  C31  1  0.17629517  0.63899810  0.29510593  1  0  0.144688  0  3.652009  0  0  0.12428  0  3.904446  0  0  0.126742  0  3.911968  0  0  0.007382  0.122338  0  3.899263  0
C  C32  1  0.39488745  0.63620579  0.25437289  1  0  -0.343706  0  3.662909  0  0  -0.392601  0  3.920035  0  0  -0.398886  0  3.924748  0  0  -0.165061  -0.388135  0  3.916641  0
C  C33  1  0.59660676  0.65125627  0.38018566  1  0  0.747619  0  3.791985  0  0  0.691239  0  4.101946  0  0  0.725698  0  4.092895  0  0  0.231708  0.667921  0  4.107194  0
O  O34  1  0.16729931  0.45603114  0.87909046  1  0  -0.652715  0  1.985174  0  0  -0.590906  0  2.218286  0  0  -0.61709  0  2.209226  0  0  -0.333806  -0.572394  0  2.224007  0
O  O35  1  0.89004677  0.19741911  0.86089697  1  0  -0.655675  0  2.077079  0  0  -0.587342  0  2.301481  0  0  -0.613558  0  2.289558  0  0  -0.311574  -0.569203  0  2.309276  0
O  O36  1  0.90041715  0.53064403  0.65809910  1  0  -0.592117  0  2.161092  0  0  -0.541251  0  2.404172  0  0  -0.558935  0  2.392865  0  0  -0.416675  -0.528462  0  2.411629  0
O  O37  1  0.61507681  0.52985042  0.83161755  1  0  -0.573591  0  2.163628  0  0  -0.526244  0  2.402978  0  0  -0.542193  0  2.391563  0  0  -0.400361  -0.51464  0  2.410585  0
O  O38  1  0.30757186  0.48494413  0.58695120  1  0  -0.640724  0  2.045782  0  0  -0.575245  0  2.281264  0  0  -0.601951  0  2.272176  0  0  -0.326207  -0.556465  0  2.286639  0
O  O39  1  0.28426959  0.19934543  0.52359045  1  0  -0.671358  0  2.011374  0  0  -0.600415  0  2.230071  0  0  -0.626544  0  2.217173  0  0  -0.30744  -0.582387  0  2.238768  0
O  O40  1  0.67250324  0.87215073  0.72758623  1  0  -0.880922  0  1.860119  0  0  -0.819161  0  2.046973  0  0  -0.841454  0  2.01493  0  0  -0.607995  -0.803151  0  2.069095  0
O  O41  1  0.56999802  0.82244606  0.01431704  1  0  -0.862133  0  1.802891  0  0  -0.80243  0  1.985425  0  0  -0.823182  0  1.954692  0  0  -0.618668  -0.787536  0  2.006826  0
O  O42  1  0.17276699  0.86510993  0.59824786  1  0  -0.868654  0  1.803143  0  0  -0.811888  0  1.981491  0  0  -0.832385  0  1.948816  0  0  -0.616121  -0.797206  0  2.004384  0
O  O43  1  0.11503522  0.87391425  0.88527124  1  0  -0.875093  0  1.866417  0  0  -0.815114  0  2.050235  0  0  -0.8371  0  2.017533  0  0  -0.597417  -0.799339  0  2.072748  0
O  O44  1  0.79836300  0.54908564  0.11676696  1  0  -0.678951  0  1.98642  0  0  -0.610134  0  2.215051  0  0  -0.637621  0  2.206148  0  0  -0.335697  -0.590637  0  2.220491  0
O  O45  1  0.06662604  0.81023164  0.12951693  1  0  -0.645231  0  2.054645  0  0  -0.577843  0  2.277118  0  0  -0.603439  0  2.265613  0  0  -0.303613  -0.560189  0  2.28469  0
O  O46  1  0.07297803  0.47927340  0.33477987  1  0  -0.634765  0  2.158689  0  0  -0.581029  0  2.403794  0  0  -0.599921  0  2.39045  0  0  -0.442456  -0.567387  0  2.411307  0
O  O47  1  0.65439918  0.51379187  0.39897604  1  0  -0.684367  0  1.999756  0  0  -0.619897  0  2.238894  0  0  -0.647396  0  2.229582  0  0  -0.341061  -0.600564  0  2.244637  0
O  O48  1  0.69931054  0.80272615  0.46403969  1  0  -0.681737  0  1.990445  0  0  -0.604453  0  2.202522  0  0  -0.63116  0  2.189685  0  0  -0.308478  -0.586086  0  2.211271  0
O  O49  1  0.30978626  0.13672825  0.26103184  1  0  -0.890277  0  1.850667  0  0  -0.828366  0  2.036544  0  0  -0.851107  0  2.004205  0  0  -0.607297  -0.812156  0  2.058796  0
O  O50  1  0.40008266  0.22205236  0.99409168  1  0  -0.886247  0  1.798158  0  0  -0.827502  0  1.978211  0  0  -0.848563  0  1.945079  0  0  -0.627581  -0.812462  0  2.001331  0
O  O51  1  0.81153327  0.13030314  0.39250379  1  0  -0.882989  0  1.784919  0  0  -0.824866  0  1.963532  0  0  -0.845755  0  1.930474  0  0  -0.628916  -0.809934  0  1.986608  0
O  O52  1  0.88249535  0.15245232  0.10579762  1  0  -0.894256  0  1.885078  0  0  -0.832332  0  2.074577  0  0  -0.855131  0  2.041252  0  0  -0.613742  -0.816082  0  2.097471  0
