# generated using pymatgen
data_UH8C12(NO4)2
_symmetry_space_group_name_H-M   'P 1'
_cell_length_a   6.99473330
_cell_length_b   13.42011201
_cell_length_c   14.91760000
_cell_angle_alpha   90.00000000
_cell_angle_beta   90.00000000
_cell_angle_gamma   90.00000000
_symmetry_Int_Tables_number   1
_chemical_formula_structural   UH8C12(NO4)2
_chemical_formula_sum   'U4 H32 C48 N8 O32'
_cell_volume   1400.31666847
_cell_formula_units_Z   4
loop_
 _symmetry_equiv_pos_site_id
 _symmetry_equiv_pos_as_xyz
  1  'x, y, z'
loop_
 _atom_site_type_symbol
 _atom_site_label
 _atom_site_symmetry_multiplicity
 _atom_site_fract_x
 _atom_site_fract_y
 _atom_site_fract_z
 _atom_site_occupancy
 _atom_site_hle17_bader_spin_density
 _atom_site_hle17_ddec_charge
 _atom_site_hle17_ddec_spin_density
 _atom_site_hle17_ddec_sum_bond_order
 _atom_site_hle17_magmom
 _atom_site_hse06_10hf_bader_spin_density
 _atom_site_hse06_10hf_ddec_charge
 _atom_site_hse06_10hf_ddec_spin_density
 _atom_site_hse06_10hf_ddec_sum_bond_order
 _atom_site_hse06_10hf_magmom
 _atom_site_hse06_bader_spin_density
 _atom_site_hse06_ddec_charge
 _atom_site_hse06_ddec_spin_density
 _atom_site_hse06_ddec_sum_bond_order
 _atom_site_hse06_magmom
 _atom_site_pbe_bader_charge
 _atom_site_pbe_bader_spin_density
 _atom_site_pbe_cm5_charge
 _atom_site_pbe_ddec_charge
 _atom_site_pbe_ddec_spin_density
 _atom_site_pbe_ddec_sum_bond_order
 _atom_site_pbe_magmom
U  U0  1  0.94425044  0.48893482  0.49921703  1  0  2.408799  0  4.179303  0  0  2.477148  0  4.841508  0  0  2.588281  0  4.805862  0  2.8902  0  2.148863  2.397746  0  4.868841  0
U  U1  1  0.55572812  0.51106652  0.99921301  1  0  2.408593  0  4.178969  0  0  2.476702  0  4.841505  0  0  2.587963  0  4.805692  0  2.890342  0  2.148637  2.397311  0  4.8688  0
U  U2  1  0.05573050  0.98893437  0.00078565  1  0  2.408528  0  4.179224  0  0  2.476782  0  4.841564  0  0  2.587909  0  4.805947  0  2.890092  0  2.14864  2.39731  0  4.868983  0
U  U3  1  0.44426998  0.01106250  0.50078632  1  0  2.408548  0  4.179341  0  0  2.476707  0  4.841828  0  0  2.587944  0  4.806054  0  2.890096  0  2.148699  2.397343  0  4.869099  0
H  H4  1  0.74165801  0.57023369  0.23606411  1  0  0.132173  0  0.941137  0  0  0.138165  0  1.002262  0  0  0.141906  0  0.998498  0  0.203753  0  0.140204  0.135381  0  1.005096  0
H  H5  1  0.75834199  0.42976467  0.73606411  1  0  0.132102  0  0.941198  0  0  0.138095  0  1.002323  0  0  0.141836  0  0.998557  0  0.203762  0  0.140176  0.135312  0  1.005156  0
H  H6  1  0.25833580  0.07023637  0.26393589  1  0  0.132063  0  0.941241  0  0  0.138071  0  1.002346  0  0  0.141808  0  0.998584  0  0.203754  0  0.140184  0.135288  0  1.005178  0
H  H7  1  0.24166039  0.92976720  0.76393589  1  0  0.132088  0  0.941206  0  0  0.138068  0  1.002343  0  0  0.14181  0  0.998577  0  0.20382  0  0.140149  0.135284  0  1.005176  0
H  H8  1  0.79446918  0.73405125  0.47034241  1  0  0.140876  0  0.943418  0  0  0.150274  0  0.999394  0  0  0.154437  0  0.99536  0  0.155124  0  0.145534  0.147183  0  1.002454  0
H  H9  1  0.70553369  0.26594711  0.97033973  1  0  0.14087  0  0.943366  0  0  0.150274  0  0.999349  0  0  0.154437  0  0.995318  0  0.15516  0  0.145514  0.147181  0  1.002408  0
H  H10  1  0.20553321  0.23405319  0.02966027  1  0  0.140891  0  0.943324  0  0  0.150292  0  0.999301  0  0  0.154454  0  0.995272  0  0.15517  0  0.145524  0.147199  0  1.002361  0
H  H11  1  0.29446727  0.76594815  0.52965624  1  0  0.140925  0  0.943373  0  0  0.150325  0  0.999344  0  0  0.154488  0  0.995315  0  0.155105  0  0.145534  0.147234  0  1.002402  0
H  H12  1  0.84727748  0.71511996  0.14131898  1  0  0.14091  0  0.935765  0  0  0.150058  0  0.990772  0  0  0.154301  0  0.987802  0  0.189562  0  0.122505  0.146979  0  0.993131  0
H  H13  1  0.65272110  0.28487542  0.64132032  1  0  0.1409  0  0.935804  0  0  0.150058  0  0.990813  0  0  0.154293  0  0.98786  0  0.189599  0  0.122504  0.146979  0  0.993172  0
H  H14  1  0.15271633  0.21512339  0.35868169  1  0  0.140887  0  0.935748  0  0  0.150045  0  0.990762  0  0  0.154279  0  0.987823  0  0.189566  0  0.122498  0.146967  0  0.993119  0
H  H15  1  0.34728129  0.78488019  0.85868169  1  0  0.140863  0  0.935749  0  0  0.15001  0  0.990764  0  0  0.154249  0  0.987817  0  0.189556  0  0.122488  0.146932  0  0.993119  0
H  H16  1  0.89393258  0.88899258  0.38408457  1  0  0.141899  0  0.91373  0  0  0.148429  0  0.971476  0  0  0.153076  0  0.968  0  0.164755  0  0.132796  0.1451  0  0.974177  0
H  H17  1  0.60606743  0.11100503  0.88408926  1  0  0.141953  0  0.913785  0  0  0.148479  0  0.971508  0  0  0.153125  0  0.968031  0  0.16467  0  0.132823  0.145148  0  0.97421  0
H  H18  1  0.10606838  0.38899452  0.11591208  1  0  0.141946  0  0.913746  0  0  0.148474  0  0.971477  0  0  0.153122  0  0.967998  0  0.164682  0  0.132803  0.145144  0  0.974179  0
H  H19  1  0.39393067  0.61100906  0.61591476  1  0  0.141904  0  0.913743  0  0  0.148438  0  0.971482  0  0  0.153083  0  0.968006  0  0.164769  0  0.132806  0.145108  0  0.974182  0
H  H20  1  0.00064048  0.58194149  0.83106867  1  0  0.140574  0  0.909956  0  0  0.151379  0  0.960999  0  0  0.155521  0  0.958596  0  0.144524  0  0.132454  0.148362  0  0.962933  0
H  H21  1  0.49936143  0.41806432  0.33107001  1  0  0.140525  0  0.910032  0  0  0.15134  0  0.961066  0  0  0.155483  0  0.958661  0  0.144512  0  0.132443  0.148322  0  0.963001  0
H  H22  1  0.99936191  0.08194268  0.66893334  1  0  0.140529  0  0.910004  0  0  0.151358  0  0.961022  0  0  0.155499  0  0.958619  0  0.144611  0  0.132456  0.14834  0  0.962956  0
H  H23  1  0.50064525  0.91806536  0.16892932  1  0  0.140521  0  0.91003  0  0  0.15131  0  0.961091  0  0  0.155452  0  0.958689  0  0.144457  0  0.13245  0.148292  0  0.963025  0
H  H24  1  0.97003270  0.70712748  0.95723240  1  0  0.14034  0  0.905824  0  0  0.150066  0  0.959357  0  0  0.154212  0  0.954913  0  0.1911  0  0.152063  0.147038  0  0.962714  0
H  H25  1  0.52996874  0.29287013  0.45722972  1  0  0.140208  0  0.905993  0  0  0.150042  0  0.959425  0  0  0.154189  0  0.954986  0  0.191148  0  0.15202  0.147015  0  0.96278  0
H  H26  1  0.02996397  0.20712644  0.54276894  1  0  0.14035  0  0.9058  0  0  0.150068  0  0.959365  0  0  0.154219  0  0.954923  0  0.191336  0  0.152055  0.14704  0  0.962721  0
H  H27  1  0.47003508  0.79287118  0.04276894  1  0  0.140377  0  0.905845  0  0  0.150082  0  0.959384  0  0  0.154229  0  0.954942  0  0.191114  0  0.152035  0.147054  0  0.962742  0
H  H28  1  0.73552626  0.91958398  0.78702807  1  0  0.147962  0  0.960394  0  0  0.153656  0  1.020091  0  0  0.158417  0  1.015088  0  0.250812  0  0.141378  0.15015  0  1.023778  0
H  H29  1  0.76447518  0.08041587  0.28702807  1  0  0.147947  0  0.960432  0  0  0.153648  0  1.020129  0  0  0.15841  0  1.015125  0  0.250816  0  0.141384  0.150143  0  1.023815  0
H  H30  1  0.26447041  0.41958294  0.71296924  1  0  0.147985  0  0.96045  0  0  0.15369  0  1.020145  0  0  0.158451  0  1.015141  0  0.250819  0  0.141392  0.150185  0  1.02383  0
H  H31  1  0.23552721  0.58041542  0.21297260  1  0  0.147903  0  0.960436  0  0  0.153617  0  1.020127  0  0  0.158375  0  1.015131  0  0.250829  0  0.141382  0.150112  0  1.023812  0
H  H32  1  0.76204907  0.80492622  0.65367083  1  0  0.142811  0  0.924105  0  0  0.151764  0  0.979193  0  0  0.155692  0  0.976825  0  0.187932  0  0.124583  0.148933  0  0.981135  0
H  H33  1  0.73795523  0.19507363  0.15366949  1  0  0.142823  0  0.924221  0  0  0.151754  0  0.979313  0  0  0.155681  0  0.976945  0  0.18794  0  0.124585  0.148922  0  0.981255  0
H  H34  1  0.23795475  0.30492890  0.84633118  1  0  0.142854  0  0.92418  0  0  0.15179  0  0.979264  0  0  0.155716  0  0.976897  0  0.187861  0  0.124593  0.148958  0  0.981208  0
H  H35  1  0.26204859  0.69507468  0.34633118  1  0  0.142791  0  0.924109  0  0  0.151734  0  0.979199  0  0  0.155663  0  0.976829  0  0.187914  0  0.124573  0.148903  0  0.981142  0
C  C36  1  0.89483469  0.61333467  0.65571741  1  0  0.624262  0  3.922716  0  0  0.584541  0  4.226779  0  0  0.62009  0  4.219383  0  1.554917  0  0.203101  0.560343  0  4.230508  0
C  C37  1  0.60517247  0.38665847  0.15571406  1  0  0.624141  0  3.922599  0  0  0.584412  0  4.226662  0  0  0.61996  0  4.219278  0  1.555806  0  0.203027  0.560215  0  4.230391  0
C  C38  1  0.10515769  0.11333661  0.84428527  1  0  0.62414  0  3.922582  0  0  0.584398  0  4.226639  0  0  0.619943  0  4.219252  0  1.554676  0  0.20306  0.560202  0  4.230359  0
C  C39  1  0.39483850  0.88666473  0.34428125  1  0  0.62421  0  3.922669  0  0  0.584486  0  4.226719  0  0  0.620027  0  4.219347  0  1.554899  0  0.203072  0.56029  0  4.230449  0
C  C40  1  0.77911620  0.64224203  0.26378707  1  0  0.043027  0  3.569866  0  0  0.000901  0  3.831105  0  0  0.008725  0  3.841813  0  0.315315  0  0.05936  -0.004191  0  3.824134  0
C  C41  1  0.72087952  0.35775782  0.76378774  1  0  0.043142  0  3.570007  0  0  0.001034  0  3.831221  0  0  0.008858  0  3.841931  0  0.315313  0  0.059425  -0.004057  0  3.824249  0
C  C42  1  0.22087761  0.14224322  0.23621226  1  0  0.043189  0  3.569864  0  0  0.001064  0  3.831115  0  0  0.008893  0  3.841823  0  0.315363  0  0.059414  -0.004028  0  3.824144  0
C  C43  1  0.27912144  0.85775812  0.73621293  1  0  0.043114  0  3.569662  0  0  0.001047  0  3.830834  0  0  0.008873  0  3.841543  0  0.315261  0  0.059465  -0.004043  0  3.823862  0
C  C44  1  0.80879424  0.73664363  0.39784081  1  0  0.017189  0  3.551824  0  0  -0.026716  0  3.812001  0  0  -0.020977  0  3.823929  0  0.362455  0  0.060491  -0.030182  0  3.804097  0
C  C45  1  0.69120863  0.26335548  0.89783946  1  0  0.017194  0  3.551793  0  0  -0.026764  0  3.812014  0  0  -0.021027  0  3.823938  0  0.362517  0  0.060484  -0.030223  0  3.804103  0
C  C46  1  0.19120529  0.23664482  0.10216121  1  0  0.017124  0  3.551827  0  0  -0.026804  0  3.812028  0  0  -0.021069  0  3.823956  0  0.362473  0  0.060487  -0.030263  0  3.804118  0
C  C47  1  0.30879805  0.76335727  0.60215919  1  0  0.01702  0  3.551949  0  0  -0.0269  0  3.812149  0  0  -0.021167  0  3.824081  0  0.362426  0  0.060437  -0.030367  0  3.804246  0
C  C48  1  0.83686965  0.72343211  0.21370596  1  0  -0.107686  0  3.723082  0  0  -0.128872  0  3.975416  0  0  -0.134043  0  3.995499  0  0.021971  0  -0.069068  -0.125506  0  3.961907  0
C  C49  1  0.66313894  0.27656476  0.71370730  1  0  -0.10767  0  3.72324  0  0  -0.128886  0  3.975594  0  0  -0.134051  0  3.995661  0  0.022006  0  -0.069046  -0.125522  0  3.962084  0
C  C50  1  0.16313703  0.22343554  0.28629404  1  0  -0.107621  0  3.723006  0  0  -0.128841  0  3.975387  0  0  -0.134013  0  3.995453  0  0.022005  0  -0.069003  -0.125475  0  3.961875  0
C  C51  1  0.33687203  0.77656654  0.78629404  1  0  -0.107545  0  3.722885  0  0  -0.128761  0  3.975244  0  0  -0.133937  0  3.995321  0  0.021977  0  -0.069029  -0.125395  0  3.961735  0
C  C52  1  0.86349254  0.81952446  0.34930686  1  0  -0.077822  0  3.701725  0  0  -0.103327  0  3.964685  0  0  -0.106871  0  3.982379  0  0.025615  0  -0.057602  -0.101353  0  3.953031  0
C  C53  1  0.63650890  0.18047092  0.84930753  1  0  -0.077996  0  3.701996  0  0  -0.103452  0  3.964918  0  0  -0.106995  0  3.982614  0  0.025549  0  -0.057692  -0.101479  0  3.95326  0
C  C54  1  0.13650985  0.31952788  0.15069247  1  0  -0.077916  0  3.701929  0  0  -0.103397  0  3.964869  0  0  -0.10694  0  3.982559  0  0.02557  0  -0.057663  -0.101424  0  3.953212  0
C  C55  1  0.36349206  0.68047569  0.65069314  1  0  -0.077783  0  3.701776  0  0  -0.103281  0  3.96474  0  0  -0.106822  0  3.982429  0  0.025586  0  -0.057611  -0.101307  0  3.953087  0
C  C56  1  0.88241249  0.81317652  0.25617392  1  0  -0.025214  0  3.736018  0  0  -0.014833  0  3.974683  0  0  -0.016673  0  3.994494  0  -0.002126  0  -0.000692  -0.013549  0  3.961389  0
C  C57  1  0.61759324  0.18682109  0.75617526  1  0  -0.025134  0  3.73612  0  0  -0.014742  0  3.974757  0  0  -0.01658  0  3.994566  0  -0.002126  0  -0.000646  -0.013455  0  3.96146  0
C  C58  1  0.11759133  0.31317920  0.24382541  1  0  -0.025211  0  3.736077  0  0  -0.014804  0  3.974741  0  0  -0.01664  0  3.99455  0  -0.002128  0  -0.000654  -0.013518  0  3.961442  0
C  C59  1  0.38241058  0.68682288  0.74382541  1  0  -0.02524  0  3.736092  0  0  -0.014876  0  3.974753  0  0  -0.016712  0  3.994559  0  -0.002145  0  -0.000693  -0.01359  0  3.96146  0
C  C60  1  0.94395307  0.65616516  0.81834746  1  0  -0.077734  0  3.688689  0  0  -0.1019  0  3.947429  0  0  -0.104471  0  3.964082  0  0.013353  0  -0.052065  -0.100521  0  3.936572  0
C  C61  1  0.55604693  0.34383767  0.31834410  1  0  -0.077551  0  3.688566  0  0  -0.101688  0  3.94727  0  0  -0.104261  0  3.963927  0  0.013285  0  -0.051973  -0.100308  0  3.936409  0
C  C62  1  0.05604217  0.15616710  0.68165657  1  0  -0.077621  0  3.688775  0  0  -0.10178  0  3.94743  0  0  -0.104353  0  3.964085  0  0.013052  0  -0.052015  -0.100399  0  3.93657  0
C  C63  1  0.44395974  0.84383871  0.18165389  1  0  -0.077631  0  3.688626  0  0  -0.101786  0  3.947294  0  0  -0.104358  0  3.963948  0  0.013343  0  -0.05204  -0.100407  0  3.936435  0
C  C64  1  0.88333032  0.68399504  0.73249383  1  0  -0.021136  0  3.73215  0  0  -0.008502  0  3.967945  0  0  -0.011006  0  3.987288  0  -0.001156  0  0.001313  -0.006941  0  3.955195  0
C  C65  1  0.61667112  0.31600332  0.23248981  1  0  -0.021174  0  3.732389  0  0  -0.008515  0  3.968105  0  0  -0.011018  0  3.987447  0  -0.001412  0  0.001333  -0.006953  0  3.955354  0
C  C66  1  0.11666349  0.18399697  0.76751153  1  0  -0.021348  0  3.732489  0  0  -0.008609  0  3.968091  0  0  -0.011112  0  3.987435  0  -0.001186  0  0.001231  -0.007051  0  3.955344  0
C  C67  1  0.38333127  0.81600660  0.26750684  1  0  -0.021185  0  3.732276  0  0  -0.00855  0  3.968026  0  0  -0.011051  0  3.98737  0  -0.001246  0  0.001319  -0.006989  0  3.955276  0
C  C68  1  0.95116707  0.90209530  0.20425538  1  0  0.650202  0  3.911247  0  0  0.612417  0  4.215158  0  0  0.647892  0  4.204737  0  1.594488  0  0.220439  0.588131  0  4.221114  0
C  C69  1  0.54883293  0.09790455  0.70425269  1  0  0.650231  0  3.911071  0  0  0.612421  0  4.215007  0  0  0.647898  0  4.204588  0  1.594484  0  0.220465  0.588135  0  4.220965  0
C  C70  1  0.04883388  0.40209575  0.29574798  1  0  0.650277  0  3.91093  0  0  0.612443  0  4.214901  0  0  0.647918  0  4.204477  0  1.594491  0  0.220449  0.588157  0  4.220857  0
C  C71  1  0.45115945  0.59790485  0.79574261  1  0  0.650095  0  3.911372  0  0  0.612369  0  4.215202  0  0  0.647844  0  4.204781  0  1.594406  0  0.220391  0.588083  0  4.221161  0
C  C72  1  0.92886029  0.72293808  0.88850821  1  0  0.03445  0  3.548814  0  0  -0.01043  0  3.813457  0  0  -0.003595  0  3.82289  0  0.373164  0  0.07172  -0.01482  0  3.807326  0
C  C73  1  0.57114401  0.27706475  0.38850619  1  0  0.034467  0  3.548923  0  0  -0.010607  0  3.81374  0  0  -0.003774  0  3.823174  0  0.373215  0  0.071629  -0.014994  0  3.807606  0
C  C74  1  0.07113924  0.22293704  0.61149381  1  0  0.034471  0  3.548901  0  0  -0.010503  0  3.813674  0  0  -0.003673  0  3.823112  0  0.373199  0  0.071659  -0.014892  0  3.807541  0
C  C75  1  0.42886410  0.77706281  0.11149314  1  0  0.03444  0  3.549018  0  0  -0.0104  0  3.813613  0  0  -0.003566  0  3.823048  0  0.373164  0  0.071741  -0.01479  0  3.807482  0
C  C76  1  0.79599318  0.84493110  0.79097509  1  0  0.03308  0  3.535801  0  0  -0.006449  0  3.789454  0  0  0.000188  0  3.799554  0  0.315151  0  0.0612  -0.010812  0  3.782989  0
C  C77  1  0.70400111  0.15506875  0.29097308  1  0  0.033095  0  3.535861  0  0  -0.00647  0  3.789536  0  0  0.000168  0  3.799635  0  0.315164  0  0.061138  -0.010836  0  3.783075  0
C  C78  1  0.20400492  0.34492857  0.70902558  1  0  0.033068  0  3.535881  0  0  -0.006519  0  3.789566  0  0  0.000117  0  3.799667  0  0.315122  0  0.061138  -0.010879  0  3.78309  0
C  C79  1  0.29599413  0.65507054  0.20902558  1  0  0.033229  0  3.535731  0  0  -0.006372  0  3.789451  0  0  0.000268  0  3.799546  0  0.315208  0  0.061186  -0.010733  0  3.782977  0
C  C80  1  0.81046407  0.78000318  0.71942404  1  0  -0.091856  0  3.691016  0  0  -0.113098  0  3.942017  0  0  -0.117099  0  3.961373  0  0.01355  0  -0.0621  -0.110605  0  3.929222  0
C  C81  1  0.68954023  0.21999593  0.21942068  1  0  -0.091843  0  3.691289  0  0  -0.113036  0  3.942219  0  0  -0.117038  0  3.961577  0  0.01341  0  -0.062093  -0.110545  0  3.929425  0
C  C82  1  0.18954118  0.28000288  0.78058066  1  0  -0.091886  0  3.691229  0  0  -0.113113  0  3.942173  0  0  -0.117112  0  3.961526  0  0.013624  0  -0.062129  -0.110622  0  3.929387  0
C  C83  1  0.31046645  0.71999846  0.28057730  1  0  -0.091885  0  3.691021  0  0  -0.113073  0  3.941993  0  0  -0.117073  0  3.961347  0  0.013553  0  -0.062101  -0.110582  0  3.929204  0
N  N84  1  0.77273854  0.64935375  0.35452754  1  0  0.272483  0  3.667321  0  0  0.332639  0  3.936692  0  0  0.3333  0  3.957951  0  -0.646231  0  -0.105493  0.331319  0  3.922226  0
N  N85  1  0.72725861  0.35064685  0.85452687  1  0  0.272476  0  3.667392  0  0  0.33264  0  3.936757  0  0  0.333302  0  3.958022  0  -0.646255  0  -0.105478  0.331318  0  3.92229  0
N  N86  1  0.22725813  0.14935419  0.14547313  1  0  0.272463  0  3.667448  0  0  0.332627  0  3.936817  0  0  0.333288  0  3.958077  0  -0.646228  0  -0.105516  0.331304  0  3.922348  0
N  N87  1  0.27274235  0.85064715  0.64547246  1  0  0.272462  0  3.667404  0  0  0.332613  0  3.936772  0  0  0.333275  0  3.958036  0  -0.646187  0  -0.105498  0.331293  0  3.922307  0
N  N88  1  0.85398681  0.81500214  0.87362780  1  0  0.285012  0  3.666208  0  0  0.344974  0  3.93363  0  0  0.346505  0  3.954497  0  -0.642749  0  -0.097619  0.343142  0  3.919468  0
N  N89  1  0.64601033  0.18499920  0.37362780  1  0  0.284945  0  3.66616  0  0  0.344944  0  3.933588  0  0  0.346477  0  3.954459  0  -0.642717  0  -0.097551  0.343113  0  3.919427  0
N  N90  1  0.14600843  0.31500184  0.62637019  1  0  0.284951  0  3.666266  0  0  0.344963  0  3.933668  0  0  0.346493  0  3.95454  0  -0.643246  0  -0.097511  0.343134  0  3.919507  0
N  N91  1  0.35399062  0.68500024  0.12637287  1  0  0.28491  0  3.666515  0  0  0.344876  0  3.933935  0  0  0.346408  0  3.954807  0  -0.642777  0  -0.097586  0.343046  0  3.919775  0
O  O92  1  0.75398157  0.40693923  0.53730292  1  0  -0.724282  0  1.537886  0  0  -0.725793  0  1.814116  0  0  -0.746841  0  1.800047  0  -0.885754  0  -0.762521  -0.712517  0  1.824825  0
O  O93  1  0.74600986  0.59305541  0.03730024  1  0  -0.724217  0  1.537885  0  0  -0.725633  0  1.814074  0  0  -0.746713  0  1.799991  0  -0.885598  0  -0.762454  -0.712362  0  1.824773  0
O  O94  1  0.24601081  0.90694474  0.96269842  1  0  -0.724208  0  1.537926  0  0  -0.725664  0  1.814126  0  0  -0.746714  0  1.800071  0  -0.885621  0  -0.762443  -0.712373  0  1.82484  0
O  O95  1  0.25398967  0.09305436  0.46269775  1  0  -0.724188  0  1.537772  0  0  -0.725632  0  1.813978  0  0  -0.746709  0  1.799906  0  -0.885626  0  -0.762444  -0.712366  0  1.824674  0
O  O96  1  0.72927298  0.56798259  0.40193262  1  0  -0.55125  0  1.811487  0  0  -0.558703  0  2.075715  0  0  -0.591135  0  2.07867  0  -0.634966  0  -0.293431  -0.53458  0  2.072716  0
O  O97  1  0.77072560  0.43201800  0.90193329  1  0  -0.551187  0  1.811465  0  0  -0.558606  0  2.0757  0  0  -0.591056  0  2.078652  0  -0.634963  0  -0.293384  -0.534484  0  2.072698  0
O  O98  1  0.27072226  0.06798229  0.09806671  1  0  -0.551175  0  1.811498  0  0  -0.558617  0  2.07573  0  0  -0.591049  0  2.078688  0  -0.63495  0  -0.293401  -0.534484  0  2.072734  0
O  O99  1  0.22927679  0.93201681  0.59806671  1  0  -0.551167  0  1.811559  0  0  -0.558608  0  2.075816  0  0  -0.591057  0  2.078771  0  -0.634938  0  -0.293404  -0.534491  0  2.072814  0
O  O100  1  0.99084550  0.53275487  0.66277216  1  0  -0.639644  0  1.989256  0  0  -0.621997  0  2.252103  0  0  -0.652683  0  2.248672  0  -1.155423  0  -0.334474  -0.599728  0  2.253108  0
O  O101  1  0.50915880  0.46723828  0.16277283  1  0  -0.639605  0  1.989323  0  0  -0.621961  0  2.252205  0  0  -0.652662  0  2.248771  0  -1.155818  0  -0.334418  -0.599687  0  2.253199  0
O  O102  1  0.00915260  0.03275532  0.83722717  1  0  -0.63956  0  1.989236  0  0  -0.621904  0  2.252079  0  0  -0.652582  0  2.248637  0  -1.155225  0  -0.334437  -0.599626  0  2.253079  0
O  O103  1  0.49084788  0.96724379  0.33722717  1  0  -0.639582  0  1.989275  0  0  -0.621925  0  2.252124  0  0  -0.652611  0  2.248678  0  -1.155491  0  -0.334433  -0.599654  0  2.253114  0
O  O104  1  0.13186493  0.57321727  0.46275674  1  0  -0.722162  0  1.516214  0  0  -0.72438  0  1.784912  0  0  -0.745063  0  1.771827  0  -0.879071  0  -0.766283  -0.711452  0  1.794919  0
O  O105  1  0.36811983  0.42677513  0.96275875  1  0  -0.722035  0  1.516087  0  0  -0.724216  0  1.784831  0  0  -0.744926  0  1.771721  0  -0.879355  0  -0.766154  -0.711292  0  1.794829  0
O  O106  1  0.86811459  0.07322145  0.03724460  1  0  -0.722066  0  1.516026  0  0  -0.724288  0  1.78476  0  0  -0.744969  0  1.771682  0  -0.879015  0  -0.766161  -0.711344  0  1.794775  0
O  O107  1  0.63188399  0.92678064  0.53724259  1  0  -0.722084  0  1.516351  0  0  -0.724271  0  1.785119  0  0  -0.744975  0  1.772012  0  -0.879031  0  -0.766222  -0.711354  0  1.795115  0
O  O108  1  0.80938611  0.63493583  0.58263997  1  0  -0.639723  0  2.005948  0  0  -0.617996  0  2.256174  0  0  -0.648776  0  2.252126  0  -1.149471  0  -0.338432  -0.595649  0  2.257767  0
O  O109  1  0.69061818  0.36505806  0.08263729  1  0  -0.639693  0  2.005489  0  0  -0.617932  0  2.255704  0  0  -0.648723  0  2.251656  0  -1.149644  0  -0.338436  -0.595589  0  2.257296  0
O  O110  1  0.19061341  0.13493852  0.91736070  1  0  -0.639611  0  2.005652  0  0  -0.617879  0  2.255862  0  0  -0.648656  0  2.251817  0  -1.149475  0  -0.338405  -0.595526  0  2.257454  0
O  O111  1  0.30938849  0.86506133  0.41735668  1  0  -0.639733  0  2.005743  0  0  -0.617973  0  2.255953  0  0  -0.648763  0  2.251911  0  -1.149381  0  -0.338465  -0.595631  0  2.257544  0
O  O112  1  0.99815957  0.88406788  0.12147799  1  0  -0.699813  0  2.063056  0  0  -0.691658  0  2.345136  0  0  -0.727135  0  2.340248  0  -1.165856  0  -0.402851  -0.66554  0  2.347093  0
O  O113  1  0.50184043  0.11592973  0.62147463  1  0  -0.699855  0  2.063063  0  0  -0.691666  0  2.34513  0  0  -0.727158  0  2.340235  0  -1.165848  0  -0.402878  -0.665569  0  2.347094  0
O  O114  1  0.00183996  0.38407056  0.37852537  1  0  -0.699877  0  2.063019  0  0  -0.691702  0  2.345072  0  0  -0.727177  0  2.340179  0  -1.165839  0  -0.402874  -0.665601  0  2.347039  0
O  O115  1  0.49815195  0.61593003  0.87852067  1  0  -0.69974  0  2.062985  0  0  -0.691568  0  2.34502  0  0  -0.727064  0  2.340125  0  -1.165783  0  -0.402796  -0.66546  0  2.346968  0
O  O116  1  0.96263713  0.98428389  0.24231378  1  0  -0.56763  0  1.953172  0  0  -0.535032  0  2.182116  0  0  -0.55784  0  2.173754  0  -1.157943  0  -0.282043  -0.518595  0  2.187076  0
O  O117  1  0.53736288  0.01571373  0.74231244  1  0  -0.567688  0  1.953019  0  0  -0.535078  0  2.181973  0  0  -0.557889  0  2.173615  0  -1.157933  0  -0.282084  -0.518641  0  2.186931  0
O  O118  1  0.03736383  0.48428806  0.25768823  1  0  -0.567692  0  1.952916  0  0  -0.535071  0  2.181867  0  0  -0.55788  0  2.173508  0  -1.157957  0  -0.282082  -0.518632  0  2.186825  0
O  O119  1  0.46263379  0.51571626  0.75768555  1  0  -0.567647  0  1.953235  0  0  -0.535069  0  2.182152  0  0  -0.557878  0  2.173791  0  -1.157931  0  -0.282067  -0.518633  0  2.187113  0
O  O120  1  0.83135264  0.87733843  0.94198329  1  0  -0.550023  0  1.822678  0  0  -0.556671  0  2.08499  0  0  -0.58827  0  2.086705  0  -0.647066  0  -0.29333  -0.533195  0  2.082885  0
O  O121  1  0.66864880  0.12266068  0.44198195  1  0  -0.549951  0  1.82262  0  0  -0.556579  0  2.084904  0  0  -0.588197  0  2.086616  0  -0.647006  0  -0.293294  -0.533117  0  2.082793  0
O  O122  1  0.16864403  0.37734037  0.55801536  1  0  -0.54995  0  1.82263  0  0  -0.556604  0  2.084905  0  0  -0.5882  0  2.086612  0  -0.64652  0  -0.293286  -0.533138  0  2.082796  0
O  O123  1  0.33135073  0.62266097  0.05802006  1  0  -0.550043  0  1.822763  0  0  -0.556669  0  2.085073  0  0  -0.588292  0  2.08679  0  -0.646975  0  -0.293348  -0.533205  0  2.082961  0
