# generated using pymatgen
data_Cu2H15C15Br2(NO)3
_symmetry_space_group_name_H-M   'P 1'
_cell_length_a   7.01105358
_cell_length_b   11.15159252
_cell_length_c   11.30822970
_cell_angle_alpha   86.06311817
_cell_angle_beta   77.39930666
_cell_angle_gamma   77.63189290
_symmetry_Int_Tables_number   1
_chemical_formula_structural   Cu2H15C15Br2(NO)3
_chemical_formula_sum   'Cu4 H30 C30 Br4 N6 O6'
_cell_volume   842.58434493
_cell_formula_units_Z   2
loop_
 _symmetry_equiv_pos_site_id
 _symmetry_equiv_pos_as_xyz
  1  'x, y, z'
loop_
 _atom_site_type_symbol
 _atom_site_label
 _atom_site_symmetry_multiplicity
 _atom_site_fract_x
 _atom_site_fract_y
 _atom_site_fract_z
 _atom_site_occupancy
 _atom_site_hle17_bader_spin_density
 _atom_site_hle17_ddec_charge
 _atom_site_hle17_ddec_spin_density
 _atom_site_hle17_ddec_sum_bond_order
 _atom_site_hle17_magmom
 _atom_site_hse06_10hf_bader_spin_density
 _atom_site_hse06_10hf_ddec_charge
 _atom_site_hse06_10hf_ddec_spin_density
 _atom_site_hse06_10hf_ddec_sum_bond_order
 _atom_site_hse06_10hf_magmom
 _atom_site_hse06_bader_spin_density
 _atom_site_hse06_ddec_charge
 _atom_site_hse06_ddec_spin_density
 _atom_site_hse06_ddec_sum_bond_order
 _atom_site_hse06_magmom
 _atom_site_pbe_bader_spin_density
 _atom_site_pbe_cm5_charge
 _atom_site_pbe_ddec_charge
 _atom_site_pbe_ddec_spin_density
 _atom_site_pbe_ddec_sum_bond_order
 _atom_site_pbe_magmom
Cu  Cu0  1  0.60899532  0.13876979  0.98452074  1  0  0.451974  0  1.868404  0  0  0.354944  0  2.323586  0  0  0.35371  0  2.282818  0  0  0.453371  0.360822  0  2.34851  0
Cu  Cu1  1  0.39100813  0.86123160  0.01548169  1  0  0.452007  0  1.868527  0  0  0.354965  0  2.323712  0  0  0.353721  0  2.282947  0  0  0.453379  0.36084  0  2.348627  0
Cu  Cu2  1  0.19344299  0.23679134  0.22413303  1  0  0.425578  0  1.864452  0  0  0.318138  0  2.353934  0  0  0.328057  0  2.304634  0  0  0.332054  0.315617  0  2.384079  0
Cu  Cu3  1  0.80656307  0.76320638  0.77586398  1  0  0.425637  0  1.864368  0  0  0.318178  0  2.353883  0  0  0.328087  0  2.304562  0  0  0.332102  0.315685  0  2.383976  0
H  H4  1  0.88656597  0.28414335  0.97241735  1  0  0.114429  0  0.966414  0  0  0.112096  0  1.049221  0  0  0.118638  0  1.041672  0  0  0.104094  0.107102  0  1.054795  0
H  H5  1  0.11344618  0.71585806  0.02758031  1  0  0.11442  0  0.966395  0  0  0.112081  0  1.049277  0  0  0.118624  0  1.041729  0  0  0.104108  0.107093  0  1.054852  0
H  H6  1  0.51131631  0.44591553  0.29902658  1  0  0.120294  0  0.926091  0  0  0.127799  0  0.988543  0  0  0.13286  0  0.983652  0  0  0.114933  0.123783  0  0.992789  0
H  H7  1  0.48868853  0.55408586  0.70097123  1  0  0.120326  0  0.926162  0  0  0.127823  0  0.988618  0  0  0.132888  0  0.983722  0  0  0.114918  0.123794  0  0.992861  0
H  H8  1  0.66571952  0.67641579  0.98451511  1  0  0.079344  0  1.039727  0  0  0.078048  0  1.130904  0  0  0.086535  0  1.119829  0  0  0.08081  0.071329  0  1.139364  0
H  H9  1  0.33429935  0.32358747  0.01548412  1  0  0.079389  0  1.039758  0  0  0.078056  0  1.131008  0  0  0.086539  0  1.119937  0  0  0.080844  0.071344  0  1.139443  0
H  H10  1  0.92126578  0.57073128  0.58293024  1  0  0.072946  0  0.946694  0  0  0.089544  0  1.007386  0  0  0.090188  0  1.007401  0  0  0.099338  0.088644  0  1.007779  0
H  H11  1  0.07873939  0.42926920  0.41706848  1  0  0.072934  0  0.946672  0  0  0.089537  0  1.007362  0  0  0.09018  0  1.007382  0  0  0.099333  0.088653  0  1.007738  0
H  H12  1  0.14433904  0.59273988  0.61961635  1  0  0.085912  0  0.924574  0  0  0.100976  0  0.986343  0  0  0.102296  0  0.985221  0  0  0.107136  0.099729  0  0.987502  0
H  H13  1  0.85566292  0.40725691  0.38037865  1  0  0.085877  0  0.924588  0  0  0.100916  0  0.98639  0  0  0.102256  0  0.98525  0  0  0.107118  0.099666  0  0.987553  0
H  H14  1  0.04767868  0.34921025  0.60187875  1  0  0.071689  0  0.954658  0  0  0.079805  0  1.025496  0  0  0.081517  0  1.024027  0  0  0.097832  0.07837  0  1.026617  0
H  H15  1  0.95231476  0.65079020  0.39811897  1  0  0.071681  0  0.954598  0  0  0.079746  0  1.025503  0  0  0.081454  0  1.024032  0  0  0.097805  0.078313  0  1.026627  0
H  H16  1  0.24877747  0.37716398  0.66166986  1  0  0.06714  0  0.958734  0  0  0.076617  0  1.024921  0  0  0.077725  0  1.023676  0  0  0.100832  0.075666  0  1.026049  0
H  H17  1  0.75122506  0.62283098  0.33832253  1  0  0.067093  0  0.958735  0  0  0.076577  0  1.02492  0  0  0.077682  0  1.023673  0  0  0.100817  0.075628  0  1.02605  0
H  H18  1  0.85623709  0.95903475  0.17301990  1  0  0.079988  0  0.927871  0  0  0.092999  0  0.992867  0  0  0.093798  0  0.992628  0  0  0.096184  0.092222  0  0.993101  0
H  H19  1  0.14372886  0.04096104  0.82699175  1  0  0.079944  0  0.927774  0  0  0.092948  0  0.992807  0  0  0.093752  0  0.992565  0  0  0.096146  0.092164  0  0.99303  0
H  H20  1  0.59456271  0.98328077  0.23524022  1  0  0.082113  0  0.929543  0  0  0.096482  0  0.992001  0  0  0.096994  0  0.992314  0  0  0.100009  0.09573  0  0.992296  0
H  H21  1  0.40540045  0.01673615  0.76476947  1  0  0.082048  0  0.929522  0  0  0.096384  0  0.992019  0  0  0.096943  0  0.992283  0  0  0.099965  0.095619  0  0.99233  0
H  H22  1  0.63892671  0.06737227  0.41283351  1  0  0.070381  0  0.972664  0  0  0.075565  0  1.046312  0  0  0.076901  0  1.045268  0  0  0.086977  0.074438  0  1.047295  0
H  H23  1  0.36106180  0.93263460  0.58717419  1  0  0.07046  0  0.97262  0  0  0.075649  0  1.046246  0  0  0.076963  0  1.045225  0  0  0.087004  0.074524  0  1.047225  0
H  H24  1  0.90440298  0.04495419  0.35463971  1  0  0.070902  0  0.956029  0  0  0.077529  0  1.028708  0  0  0.078452  0  1.028065  0  0  0.094354  0.07668  0  1.02946  0
H  H25  1  0.09558530  0.95504440  0.64536241  1  0  0.070978  0  0.955924  0  0  0.077586  0  1.028611  0  0  0.078509  0  1.027961  0  0  0.094366  0.076735  0  1.029361  0
H  H26  1  0.09423212  0.85761031  0.27540667  1  0  0.077099  0  0.92271  0  0  0.095227  0  0.981739  0  0  0.095874  0  0.981492  0  0  0.103827  0.094425  0  0.982182  0
H  H27  1  0.90576707  0.14238188  0.72459258  1  0  0.077065  0  0.922698  0  0  0.095195  0  0.981731  0  0  0.095844  0  0.981486  0  0  0.103797  0.094386  0  0.982181  0
H  H28  1  0.26804501  0.95237436  0.27756853  1  0  0.079848  0  0.987451  0  0  0.089286  0  1.061842  0  0  0.091591  0  1.059608  0  0  0.089741  0.087174  0  1.063975  0
H  H29  1  0.73194909  0.04762425  0.72243187  1  0  0.079785  0  0.987481  0  0  0.089243  0  1.06186  0  0  0.091551  0  1.059627  0  0  0.089713  0.087134  0  1.063985  0
H  H30  1  0.42417144  0.81666511  0.42315097  1  0  0.07227  0  0.920948  0  0  0.08263  0  0.9859  0  0  0.083945  0  0.984829  0  0  0.101742  0.08157  0  0.986753  0
H  H31  1  0.57582936  0.18333536  0.57684924  1  0  0.072272  0  0.920943  0  0  0.082645  0  0.985885  0  0  0.083961  0  0.984818  0  0  0.101748  0.081585  0  0.986749  0
H  H32  1  0.18436562  0.77328814  0.46363237  1  0  0.082145  0  0.947982  0  0  0.090822  0  1.017059  0  0  0.092298  0  1.015877  0  0  0.100223  0.089631  0  1.018007  0
H  H33  1  0.81563560  0.22670681  0.53636906  1  0  0.082155  0  0.947993  0  0  0.090812  0  1.017103  0  0  0.092289  0  1.015921  0  0  0.100226  0.089625  0  1.018049  0
C  C34  1  0.78575478  0.48163279  0.96385961  1  0  -0.030595  0  3.794364  0  0  -0.006929  0  4.024306  0  0  -0.016046  0  4.048952  0  0  -0.009614  -0.002277  0  4.00935  0
C  C35  1  0.21425036  0.51836769  0.03613733  1  0  -0.030608  0  3.794487  0  0  -0.006995  0  4.02442  0  0  -0.016106  0  4.049068  0  0  -0.009652  -0.002349  0  4.009471  0
C  C36  1  0.79671632  0.36521953  0.02027948  1  0  -0.077728  0  3.670004  0  0  -0.117134  0  3.930923  0  0  -0.110837  0  3.942603  0  0  -0.071313  -0.121544  0  3.92468  0
C  C37  1  0.20329698  0.63478281  0.97971795  1  0  -0.077746  0  3.670214  0  0  -0.117171  0  3.931103  0  0  -0.110881  0  3.942786  0  0  -0.071347  -0.121586  0  3.924873  0
C  C38  1  0.69598796  0.35302548  0.14006115  1  0  -0.02059  0  3.804225  0  0  -0.001079  0  4.049991  0  0  -0.006411  0  4.066478  0  0  -0.00789  0.001654  0  4.040672  0
C  C39  1  0.30402743  0.64697502  0.85993612  1  0  -0.020555  0  3.80426  0  0  -0.001058  0  4.049989  0  0  -0.006386  0  4.066481  0  0  -0.007848  0.001668  0  4.040662  0
C  C40  1  0.58907953  0.45632573  0.20570385  1  0  -0.070492  0  3.63102  0  0  -0.114984  0  3.89545  0  0  -0.108754  0  3.908013  0  0  -0.071822  -0.120185  0  3.888466  0
C  C41  1  0.41093237  0.54367201  0.79429233  1  0  -0.070553  0  3.631015  0  0  -0.115035  0  3.895451  0  0  -0.108809  0  3.908006  0  0  -0.071812  -0.120232  0  3.888494  0
C  C42  1  0.57590475  0.57329010  0.14876033  1  0  -0.029647  0  3.784504  0  0  -0.009547  0  4.023948  0  0  -0.016484  0  4.044908  0  0  -0.009557  -0.005417  0  4.01127  0
C  C43  1  0.42410366  0.42670947  0.85123888  1  0  -0.029614  0  3.784558  0  0  -0.009552  0  4.024025  0  0  -0.016506  0  4.045022  0  0  -0.009693  -0.005431  0  4.011327  0
C  C44  1  0.67388475  0.58553667  0.02802651  1  0  -0.057515  0  3.644476  0  0  -0.087941  0  3.885492  0  0  -0.084288  0  3.900733  0  0  -0.069383  -0.090799  0  3.877347  0
C  C45  1  0.32612597  0.41446473  0.97197312  1  0  -0.057592  0  3.644734  0  0  -0.087964  0  3.885708  0  0  -0.084309  0  3.900944  0  0  -0.069358  -0.090809  0  3.877558  0
C  C46  1  0.89067386  0.48967621  0.83784310  1  0  0.419769  0  3.747025  0  0  0.383934  0  4.013337  0  0  0.407318  0  4.02162  0  0  0.227279  0.368299  0  4.008101  0
C  C47  1  0.10932835  0.51032426  0.16215426  1  0  0.419897  0  3.747073  0  0  0.384114  0  4.013313  0  0  0.407492  0  4.0216  0  0  0.22739  0.368462  0  4.008086  0
C  C48  1  0.01986373  0.54470855  0.64778969  1  0  -0.012182  0  3.633775  0  0  -0.067251  0  3.892892  0  0  -0.064183  0  3.90326  0  0  -0.077459  -0.068929  0  3.886262  0
C  C49  1  0.98013879  0.45529100  0.35220769  1  0  -0.012138  0  3.633694  0  0  -0.067192  0  3.892855  0  0  -0.064143  0  3.903218  0  0  -0.077422  -0.068872  0  3.886219  0
C  C50  1  0.08828904  0.40548971  0.66445095  1  0  0.067118  0  3.518191  0  0  0.010976  0  3.779547  0  0  0.018318  0  3.783181  0  0  -0.066639  0.006161  0  3.777238  0
C  C51  1  0.91171050  0.59450983  0.33554331  1  0  0.067206  0  3.518154  0  0  0.011096  0  3.779527  0  0  0.018452  0  3.783154  0  0  -0.066597  0.00625  0  3.777229  0
C  C52  1  0.70677943  0.22857267  0.19308701  1  0  0.420864  0  3.787775  0  0  0.382988  0  4.063484  0  0  0.407064  0  4.064807  0  0  0.228797  0.366633  0  4.063419  0
C  C53  1  0.29321899  0.77143055  0.80691423  1  0  0.420984  0  3.787848  0  0  0.38309  0  4.063481  0  0  0.407168  0  4.064801  0  0  0.228886  0.366745  0  4.063415  0
C  C54  1  0.72586267  0.02569445  0.21827104  1  0  0.007234  0  3.60417  0  0  -0.044181  0  3.856795  0  0  -0.041645  0  3.867924  0  0  -0.074301  -0.045529  0  3.84964  0
C  C55  1  0.27411279  0.97430780  0.78173883  1  0  0.007494  0  3.604058  0  0  -0.043927  0  3.856614  0  0  -0.041427  0  3.867736  0  0  -0.074199  -0.045262  0  3.849458  0
C  C56  1  0.75632243  0.07775444  0.33371594  1  0  0.057955  0  3.506922  0  0  0.003448  0  3.763189  0  0  0.009879  0  3.768782  0  0  -0.071072  -0.000826  0  3.759492  0
C  C57  1  0.24366374  0.92225059  0.66629045  1  0  0.057765  0  3.506974  0  0  0.003282  0  3.763179  0  0  0.009719  0  3.768808  0  0  -0.071124  -0.001  0  3.759504  0
C  C58  1  0.45384799  0.67995320  0.21648428  1  0  0.415774  0  3.735674  0  0  0.378733  0  4.006753  0  0  0.401958  0  4.012312  0  0  0.225858  0.363452  0  4.002805  0
C  C59  1  0.54616070  0.32004545  0.78351318  1  0  0.415677  0  3.735769  0  0  0.378616  0  4.006887  0  0  0.401844  0  4.01244  0  0  0.225862  0.363334  0  4.00293  0
C  C60  1  0.24970093  0.85701001  0.28007317  1  0  -0.016922  0  3.637722  0  0  -0.073505  0  3.898976  0  0  -0.07051  0  3.907519  0  0  -0.080143  -0.075334  0  3.893884  0
C  C61  1  0.75029990  0.14298586  0.71992382  1  0  -0.01674  0  3.637516  0  0  -0.073351  0  3.898781  0  0  -0.070366  0  3.907346  0  0  -0.080069  -0.075181  0  3.893689  0
C  C62  1  0.30984869  0.78318309  0.38921353  1  0  0.075903  0  3.505384  0  0  0.019556  0  3.768686  0  0  0.02667  0  3.772396  0  0  -0.062574  0.014863  0  3.765998  0
C  C63  1  0.69015240  0.21681645  0.61078583  1  0  0.075853  0  3.505365  0  0  0.019482  0  3.768732  0  0  0.026589  0  3.772458  0  0  -0.0626  0.014802  0  3.766006  0
Br  Br64  1  0.23108341  0.15389408  0.42140461  1  0  -0.595838  0  0.994356  0  0  -0.523449  0  1.310636  0  0  -0.543285  0  1.283546  0  0  -0.315067  -0.508517  0  1.328054  0
Br  Br65  1  0.76890866  0.84610177  0.57859362  1  0  -0.595849  0  0.994313  0  0  -0.523474  0  1.310607  0  0  -0.543302  0  1.283513  0  0  -0.315073  -0.508533  0  1.328001  0
Br  Br66  1  0.23479257  0.10305532  0.06206799  1  0  -0.493016  0  1.42753  0  0  -0.417925  0  1.854713  0  0  -0.433963  0  1.812721  0  0  -0.234442  -0.405857  0  1.88185  0
Br  Br67  1  0.76521437  0.89694424  0.93793053  1  0  -0.492998  0  1.427431  0  0  -0.417929  0  1.854657  0  0  -0.433967  0  1.81267  0  0  -0.234439  -0.405863  0  1.881796  0
N  N68  1  0.90399190  0.58670288  0.76879387  1  0  -0.420862  0  3.244323  0  0  -0.35419  0  3.566568  0  0  -0.370752  0  3.56929  0  0  -0.404666  -0.344512  0  3.564555  0
N  N69  1  0.09601583  0.41329852  0.23120176  1  0  -0.4209  0  3.244407  0  0  -0.354271  0  3.566673  0  0  -0.370839  0  3.569416  0  0  -0.404703  -0.344595  0  3.564669  0
N  N70  1  0.69273805  0.13438589  0.13704470  1  0  -0.433627  0  3.287024  0  0  -0.369261  0  3.602001  0  0  -0.382922  0  3.602646  0  0  -0.409587  -0.361655  0  3.60216  0
N  N71  1  0.30726106  0.86561549  0.86296011  1  0  -0.433772  0  3.287087  0  0  -0.369329  0  3.601962  0  0  -0.382995  0  3.602628  0  0  -0.409633  -0.361724  0  3.602105  0
N  N72  1  0.38224575  0.78799735  0.17494689  1  0  -0.415962  0  3.239313  0  0  -0.350178  0  3.558315  0  0  -0.363357  0  3.55938  0  0  -0.405737  -0.34286  0  3.557481  0
N  N73  1  0.61776262  0.21200222  0.82504967  1  0  -0.415984  0  3.239254  0  0  -0.350165  0  3.558239  0  0  -0.363345  0  3.55931  0  0  -0.405734  -0.342849  0  3.557406  0
O  O74  1  0.98286046  0.37961079  0.78682775  1  0  -0.289391  0  2.207267  0  0  -0.214145  0  2.433404  0  0  -0.233619  0  2.434566  0  0  -0.165843  -0.201073  0  2.4327  0
O  O75  1  0.01714384  0.62038784  0.21316945  1  0  -0.289503  0  2.207419  0  0  -0.214234  0  2.43351  0  0  -0.233717  0  2.434686  0  0  -0.165899  -0.201111  0  2.432784  0
O  O76  1  0.73862651  0.21061035  0.30642760  1  0  -0.296609  0  2.239926  0  0  -0.22798  0  2.48056  0  0  -0.247964  0  2.479873  0  0  -0.162994  -0.21396  0  2.480671  0
O  O77  1  0.26137196  0.78939286  0.69357629  1  0  -0.296696  0  2.239952  0  0  -0.228029  0  2.480542  0  0  -0.248012  0  2.479844  0  0  -0.163001  -0.214014  0  2.480653  0
O  O78  1  0.40369634  0.66140607  0.33893486  1  0  -0.30772  0  2.181555  0  0  -0.238438  0  2.41017  0  0  -0.257517  0  2.40903  0  0  -0.175328  -0.224713  0  2.410134  0
O  O79  1  0.59631174  0.33859442  0.66106344  1  0  -0.307673  0  2.181537  0  0  -0.238368  0  2.410163  0  0  -0.257444  0  2.409023  0  0  -0.17528  -0.224641  0  2.410124  0
