# generated using pymatgen
data_FeH4C8O5
_symmetry_space_group_name_H-M   'P 1'
_cell_length_a   12.22013393
_cell_length_b   12.37574669
_cell_length_c   12.37425952
_cell_angle_alpha   75.88634024
_cell_angle_beta   60.41563349
_cell_angle_gamma   60.41360814
_symmetry_Int_Tables_number   1
_chemical_formula_structural   FeH4C8O5
_chemical_formula_sum   'Fe4 H16 C32 O20'
_cell_volume   1415.22853920
_cell_formula_units_Z   4
loop_
 _symmetry_equiv_pos_site_id
 _symmetry_equiv_pos_as_xyz
  1  'x, y, z'
loop_
 _atom_site_type_symbol
 _atom_site_label
 _atom_site_symmetry_multiplicity
 _atom_site_fract_x
 _atom_site_fract_y
 _atom_site_fract_z
 _atom_site_occupancy
 _atom_site_pbe_bader_charge
 _atom_site_pbe_bader_spin_density
 _atom_site_pbe_cm5_charge
 _atom_site_pbe_ddec_charge
 _atom_site_pbe_ddec_spin_density
 _atom_site_pbe_ddec_sum_bond_order
 _atom_site_pbe_magmom
Fe  Fe0  1  0.18854587  0.99994473  0.62297018  1  1.758079  4.095367  0.88114  1.424361  4.565977  2.589373  4.064
Fe  Fe1  1  0.93853769  0.12299203  0.49997697  1  1.760854  4.094949  0.881194  1.424641  4.56602  2.589344  4.064
Fe  Fe2  1  0.56151664  0.87700747  0.50000645  1  1.757241  4.095542  0.881112  1.424467  4.566079  2.589781  4.064
Fe  Fe3  1  0.81150752  0.99999432  0.37702819  1  1.760595  4.094975  0.881058  1.424419  4.56602  2.589244  4.064
H  H4  1  0.37495785  0.06357221  0.43652899  1  0.589703  0.008587  0.311132  0.408097  0.004078  0.884285  0.008
H  H5  1  0.87505586  0.93648298  0.56353553  1  0.590148  0.008584  0.311128  0.408123  0.004078  0.88424  0.008
H  H6  1  0.18855803  0.93646692  0.43641976  1  0.590866  0.008586  0.31091  0.407924  0.004081  0.884502  0.008
H  H7  1  0.56143552  0.06351755  0.56351579  1  0.584427  0.008697  0.311197  0.408189  0.004078  0.884164  0.008
H  H8  1  0.11904311  0.00009774  0.99994056  1  0.133305  0.00074  0.119365  0.132868  0.00017  0.982263  0.0
H  H9  1  0.63094046  0.49993877  0.50009884  1  0.132718  0.000739  0.119337  0.132904  0.000169  0.982436  0.0
H  H10  1  0.88092363  0.00003453  0.99999783  1  0.132776  0.00074  0.119324  0.132816  0.00017  0.982537  0.0
H  H11  1  0.86894851  0.50000403  0.50015112  1  0.13288  0.00074  0.119376  0.132931  0.00017  0.982367  0.0
H  H12  1  0.54744860  0.94360061  0.80729856  1  0.100386  0.000565  0.108378  0.112616  0.000103  1.010297  0.0
H  H13  1  0.45158021  0.30724988  0.44382691  1  0.09192  0.000571  0.108084  0.112293  0.000103  1.010501  0.0
H  H14  1  0.64539443  0.05622966  0.80717762  1  0.092273  0.000567  0.108098  0.112291  0.000103  1.010435  0.0
H  H15  1  0.10458910  0.69274195  0.44374347  1  0.093863  0.000566  0.108272  0.11232  0.000103  1.010595  0.0
H  H16  1  0.24118024  0.30719549  0.55619307  1  0.095817  0.000569  0.108143  0.112316  0.000103  1.010517  0.0
H  H17  1  0.50887154  0.94377026  0.19275933  1  0.095589  0.000569  0.108171  0.112259  0.000103  1.010532  0.0
H  H18  1  0.20271646  0.69284100  0.55604131  1  0.099124  0.000566  0.108076  0.112317  0.000103  1.010397  0.0
H  H19  1  0.29830363  0.05637595  0.19276546  1  0.09196  0.00057  0.108349  0.112657  0.000103  1.010441  0.0
C  C20  1  0.34575685  0.94879251  0.77244511  1  1.582282  0.007814  0.235795  0.621738  0.006037  4.128695  0.007
C  C21  1  0.68288841  0.27239448  0.44897769  1  1.573074  0.007818  0.235954  0.622268  0.006018  4.128217  0.007
C  C22  1  0.88185846  0.05108172  0.77241277  1  1.577485  0.007807  0.235904  0.622038  0.006033  4.128066  0.007
C  C23  1  0.86815751  0.72755701  0.44889416  1  1.577708  0.007794  0.235947  0.622223  0.006025  4.128494  0.007
C  C24  1  0.04463870  0.27240556  0.55114541  1  1.569343  0.007898  0.235589  0.62152  0.00603  4.129122  0.007
C  C25  1  0.70536592  0.94893322  0.22757582  1  1.572566  0.00788  0.235992  0.622232  0.006032  4.128167  0.007
C  C26  1  0.40431446  0.72759156  0.55098385  1  1.585827  0.007772  0.236066  0.62245  0.006025  4.127215  0.007
C  C27  1  0.06699234  0.05123129  0.22752616  1  1.572703  0.007846  0.235934  0.622122  0.006037  4.129017  0.007
C  C28  1  0.33391790  0.97294642  0.89130681  1  -0.060558  0.014801  -0.012949  -0.03334  0.007012  3.986863  0.011
C  C29  1  0.55180834  0.39129362  0.47301476  1  -0.034207  0.014772  -0.013011  -0.03345  0.007014  3.987541  0.011
C  C30  1  0.77481321  0.02701260  0.89127693  1  -0.023174  0.01476  -0.012918  -0.033107  0.00701  3.986836  0.011
C  C31  1  0.97520037  0.60866532  0.47296655  1  -0.038372  0.014788  -0.012947  -0.033377  0.007012  3.987508  0.011
C  C32  1  0.05685017  0.39129086  0.52710065  1  -0.032776  0.014754  -0.012993  -0.033148  0.007017  3.986895  0.011
C  C33  1  0.69309967  0.97303847  0.10871321  1  -0.024893  0.014719  -0.012954  -0.033141  0.007002  3.987558  0.011
C  C34  1  0.41614256  0.60869881  0.52695917  1  -0.055299  0.014806  -0.013094  -0.033417  0.007014  3.986948  0.011
C  C35  1  0.19814400  0.02710907  0.10869459  1  -0.009591  0.014727  -0.013018  -0.033184  0.007006  3.987637  0.011
C  C36  1  0.20812046  0.00006019  0.99999176  1  0.006197  0.009074  -0.06243  -0.08915  0.004217  3.891021  0.005
C  C37  1  0.54188270  0.49997074  0.50001950  1  0.005406  0.009072  -0.062333  -0.089274  0.004216  3.891806  0.005
C  C38  1  0.79184834  0.00002927  0.00000621  1  -0.034617  0.009131  -0.062381  -0.089373  0.00422  3.891915  0.005
C  C39  1  0.95808555  0.49999065  0.50007676  1  -0.008151  0.009078  -0.062388  -0.089258  0.004213  3.891542  0.005
C  C40  1  0.44923779  0.97026212  0.89230457  1  -0.074947  0.008004  -0.07278  -0.126836  0.003728  3.90839  0.005
C  C41  1  0.43815826  0.39227388  0.47037955  1  -0.060277  0.007997  -0.072546  -0.126222  0.003735  3.907638  0.005
C  C42  1  0.65852595  0.02965683  0.89223916  1  -0.013682  0.007978  -0.072652  -0.1266  0.003734  3.90811  0.005
C  C43  1  0.09148468  0.60770559  0.47031606  1  -0.016344  0.00797  -0.072794  -0.126593  0.003729  3.908429  0.005
C  C44  1  0.16954599  0.39226189  0.52968516  1  -0.068015  0.00798  -0.072775  -0.12677  0.003722  3.908823  0.005
C  C45  1  0.58044148  0.97037623  0.10773950  1  -0.067616  0.008005  -0.072705  -0.126505  0.003735  3.908207  0.005
C  C46  1  0.30082799  0.60774699  0.52958357  1  -0.080477  0.008013  -0.072642  -0.126638  0.003729  3.908647  0.005
C  C47  1  0.31177235  0.02973798  0.10774700  1  -0.082933  0.008011  -0.072941  -0.127394  0.003728  3.909207  0.005
C  C48  1  0.43949585  0.00001400  0.00002843  1  0.096517  0.000942  -0.006624  0.067102  0.000257  4.012876  0.0
C  C49  1  0.31045436  0.50001873  0.50001772  1  0.049122  0.000947  -0.006664  0.066648  0.000253  4.012576  0.0
C  C50  1  0.56047656  0.00001786  0.99999289  1  -0.00436  0.000979  -0.006545  0.066845  0.000254  4.012665  0.0
C  C51  1  0.18951138  0.49997962  0.50002116  1  0.04449  0.000971  -0.006588  0.067018  0.000257  4.012759  0.0
O  O52  1  0.37503199  0.99968236  0.50033102  1  -1.14522  0.292223  -0.567264  -0.90384  0.142797  2.097353  0.232
O  O53  1  0.87511570  0.00026319  0.49962125  1  -1.143619  0.292024  -0.567291  -0.903895  0.142798  2.09748  0.232
O  O54  1  0.12472732  0.00031782  0.50025276  1  -1.144802  0.292007  -0.566891  -0.903506  0.142776  2.09736  0.232
O  O55  1  0.62534230  0.99963506  0.49971944  1  -1.138619  0.291974  -0.567293  -0.903834  0.142803  2.097347  0.232
O  O56  1  0.23192620  0.99139669  0.76400069  1  -1.126121  0.131891  -0.293945  -0.53565  0.0617  2.302291  0.106
O  O57  1  0.76250837  0.26390805  0.49166257  1  -1.125947  0.131839  -0.29391  -0.535771  0.061681  2.302035  0.106
O  O58  1  0.00412376  0.00849410  0.76398019  1  -1.126073  0.13186  -0.293975  -0.535775  0.061682  2.301789  0.106
O  O59  1  0.74584825  0.73602178  0.49162708  1  -1.125911  0.131887  -0.293913  -0.535789  0.061717  2.301868  0.106
O  O60  1  0.97336790  0.26398006  0.50856529  1  -1.12154  0.131869  -0.293941  -0.535668  0.061715  2.302013  0.106
O  O61  1  0.77647189  0.99165996  0.23606487  1  -1.122204  0.131921  -0.293898  -0.535783  0.061729  2.301564  0.106
O  O62  1  0.51814958  0.73607236  0.50827987  1  -1.126137  0.131819  -0.293899  -0.535768  0.061692  2.301258  0.106
O  O63  1  0.98732874  0.00861900  0.23597451  1  -1.124195  0.13189  -0.293943  -0.535705  0.0617  2.301899  0.106
O  O64  1  0.46905189  0.88936212  0.68818942  1  -1.145257  0.133366  -0.302122  -0.558218  0.062635  2.308328  0.108
O  O65  1  0.70322970  0.18814094  0.38958554  1  -1.136843  0.133721  -0.302096  -0.558465  0.06265  2.308356  0.108
O  O66  1  0.84284985  0.11045772  0.68811153  1  -1.139532  0.133804  -0.302215  -0.558469  0.062662  2.308382  0.108
O  O67  1  0.90717523  0.81182390  0.38945842  1  -1.139343  0.133719  -0.302159  -0.558406  0.062651  2.308491  0.108
O  O68  1  0.10866316  0.18808142  0.61042298  1  -1.14485  0.133628  -0.301852  -0.558013  0.062635  2.308909  0.108
O  O69  1  0.64161234  0.88941471  0.31181718  1  -1.145854  0.133595  -0.30225  -0.558485  0.062644  2.308483  0.108
O  O70  1  0.28102146  0.81184009  0.61040316  1  -1.146512  0.133519  -0.302181  -0.558579  0.062706  2.308676  0.108
O  O71  1  0.04657984  0.11063229  0.31181294  1  -1.138376  0.133745  -0.302315  -0.558615  0.062672  2.308938  0.108
