# generated using pymatgen
data_MnH12C13S(N2O3)2
_symmetry_space_group_name_H-M   'P 1'
_cell_length_a   6.95812593
_cell_length_b   10.79122222
_cell_length_c   19.52482809
_cell_angle_alpha   99.22921589
_cell_angle_beta   90.00178744
_cell_angle_gamma   89.99866198
_symmetry_Int_Tables_number   1
_chemical_formula_structural   MnH12C13S(N2O3)2
_chemical_formula_sum   'Mn4 H48 C52 S4 N16 O24'
_cell_volume   1447.07593231
_cell_formula_units_Z   4
loop_
 _symmetry_equiv_pos_site_id
 _symmetry_equiv_pos_as_xyz
  1  'x, y, z'
loop_
 _atom_site_type_symbol
 _atom_site_label
 _atom_site_symmetry_multiplicity
 _atom_site_fract_x
 _atom_site_fract_y
 _atom_site_fract_z
 _atom_site_occupancy
 _atom_site_hle17_ddec_charge
 _atom_site_hle17_ddec_spin_density
 _atom_site_hle17_ddec_sum_bond_order
 _atom_site_hle17_magmom
 _atom_site_hse06_10hf_ddec_charge
 _atom_site_hse06_10hf_ddec_spin_density
 _atom_site_hse06_10hf_ddec_sum_bond_order
 _atom_site_hse06_10hf_magmom
 _atom_site_hse06_ddec_charge
 _atom_site_hse06_ddec_spin_density
 _atom_site_hse06_ddec_sum_bond_order
 _atom_site_hse06_magmom
 _atom_site_pbe_cm5_charge
 _atom_site_pbe_ddec_charge
 _atom_site_pbe_ddec_spin_density
 _atom_site_pbe_ddec_sum_bond_order
 _atom_site_pbe_magmom
Mn  Mn0  1  0.83116685  0.65688410  0.82715282  1  1.169098  4.796398  1.771528  4.681  1.007095  4.720593  2.264108  4.54  1.059921  4.76227  2.198115  4.6  0.604387  0.967056  4.676559  2.313095  4.48
Mn  Mn1  1  0.33116740  0.34311324  0.67284088  1  1.169053  4.796366  1.771644  4.681  1.007092  4.720559  2.264209  4.54  1.059914  4.762244  2.198217  4.6  0.604401  0.967052  4.676485  2.313202  4.48
Mn  Mn2  1  0.16885025  0.34306378  0.17288687  1  1.168437  4.795746  1.773563  4.681  1.006873  4.719437  2.266247  4.539  1.059772  4.761608  2.200156  4.599  0.60426  0.96662  4.674291  2.315446  4.478
Mn  Mn3  1  0.66886119  0.65695792  0.32713255  1  1.168456  -4.803333  1.773688  -4.681  1.006896  -4.725948  2.266417  -4.539  1.059792  -4.7711  2.200289  -4.599  0.604382  0.966673  -4.678485  2.31565  -4.478
H  H4  1  0.15409868  0.73389645  0.77427375  1  0.426073  0.00019  0.871932  0.001  0.396804  0.001036  0.932323  0.002  0.406865  0.000729  0.917735  0.002  0.294123  0.389644  0.001316  0.942639  0.002
H  H5  1  0.65407842  0.26610780  0.72572425  1  0.426143  0.000189  0.871865  0.001  0.396867  0.001035  0.932264  0.002  0.406928  0.000729  0.917676  0.002  0.294153  0.389705  0.001314  0.942586  0.002
H  H6  1  0.84589973  0.26605914  0.22571389  1  0.426339  0.00019  0.871593  0.001  0.396992  0.001047  0.932102  0.002  0.407054  0.000739  0.917512  0.001  0.294064  0.38982  0.001323  0.942439  0.002
H  H7  1  0.34591424  0.73391154  0.27429267  1  0.426335  -0.000192  0.871626  -0.001  0.39698  -0.001051  0.932149  -0.002  0.407042  -0.000742  0.917559  -0.001  0.294078  0.389812  -0.001326  0.94248  -0.002
H  H8  1  0.10085713  0.45847720  0.82365151  1  0.433653  -0.000421  0.85586  0.001  0.403253  0.000272  0.91916  0.002  0.413653  -2.9e-05  0.903965  0.002  0.299672  0.395837  0.000558  0.929958  0.002
H  H9  1  0.60084590  0.54151458  0.67634888  1  0.433805  -0.000421  0.855526  0.001  0.403356  0.00027  0.919005  0.002  0.413758  -3.1e-05  0.903806  0.002  0.299697  0.395938  0.000553  0.929807  0.003
H  H10  1  0.89907804  0.54146596  0.17639391  1  0.433443  0.00075  0.856316  0.001  0.403027  0.001465  0.919512  0.002  0.41343  0.001231  0.904315  0.002  0.299655  0.395611  0.001661  0.930298  0.002
H  H11  1  0.39911514  0.45857730  0.32361002  1  0.433746  -0.000749  0.855743  -0.001  0.403186  -0.001464  0.919275  -0.002  0.413585  -0.001231  0.904083  -0.002  0.299682  0.395757  -0.001658  0.930086  -0.002
H  H12  1  0.57068756  0.78991878  0.72417922  1  0.081553  0.000126  0.935132  0.0  0.091482  0.000682  0.995889  0.001  0.093984  0.000442  0.993455  0.001  0.120053  0.089394  0.000934  0.998052  0.001
H  H13  1  0.07070038  0.21008465  0.77581983  1  0.081567  0.00015  0.93525  0.0  0.091489  0.000747  0.996008  0.001  0.093989  0.000486  0.993574  0.001  0.120061  0.089402  0.001021  0.998178  0.001
H  H14  1  0.42935972  0.21004423  0.27583059  1  0.081431  9.5e-05  0.934712  0.0  0.091325  0.000492  0.995549  0.001  0.093829  0.000336  0.993105  0.001  0.120009  0.089235  0.000644  0.997724  0.001
H  H15  1  0.92933683  0.78992447  0.22416852  1  0.081371  -6.5e-05  0.934994  0.0  0.091406  -0.000427  0.995666  -0.001  0.093912  -0.000292  0.993218  0.0  0.120026  0.089316  -0.000557  0.997849  -0.001
H  H16  1  0.43648972  0.00639314  0.72200622  1  0.104719  3.5e-05  0.970942  0.0  0.11305  2.8e-05  1.033569  0.0  0.115434  -3.8e-05  1.034476  0.0  0.105735  0.111298  0.0001  1.033196  0.0
H  H17  1  0.93648458  0.99361506  0.77798809  1  0.104617  3.6e-05  0.971044  0.0  0.112992  3.2e-05  1.033625  0.0  0.115376  -3.6e-05  1.034532  0.0  0.1057  0.111241  0.000106  1.033253  0.0
H  H18  1  0.56351731  0.99355771  0.27799123  1  0.104759  0.000494  0.970552  0.0  0.113103  0.000541  1.033193  0.0  0.115495  0.000494  1.034083  0.0  0.105773  0.111305  0.000584  1.03287  0.0
H  H19  1  0.06349084  0.00640342  0.22200673  1  0.104721  -0.0005  0.971075  0.0  0.113011  -0.00054  1.033733  0.0  0.115394  -0.000495  1.034638  0.0  0.105704  0.111263  -0.00058  1.03336  0.0
H  H20  1  0.46906639  0.16853153  0.82734617  1  0.111579  -0.000295  0.955533  0.0  0.119907  -0.00023  1.018804  0.0  0.123184  -0.000247  1.015966  0.0  0.112314  0.117239  -0.000194  1.021223  0.0
H  H21  1  0.96907200  0.83147157  0.67264650  1  0.111526  -0.000302  0.95548  0.0  0.119875  -0.00024  1.018766  0.0  0.123155  -0.000254  1.015921  0.0  0.112327  0.117205  -0.000206  1.021188  0.0
H  H22  1  0.53088747  0.83142312  0.17264292  1  0.111698  8e-05  0.955389  0.0  0.119993  0.000235  1.018632  0.0  0.123325  0.000217  1.015719  0.0  0.112452  0.117313  0.000261  1.021064  0.0
H  H23  1  0.03088329  0.16855067  0.32734763  1  0.111568  -7.3e-05  0.955428  0.0  0.119879  -0.000226  1.018705  0.0  0.123239  -0.000212  1.015755  0.0  0.112347  0.117196  -0.000249  1.021136  0.0
H  H24  1  0.86768586  0.97146722  0.11586361  1  0.104348  -0.000167  0.938097  0.0  0.115468  6e-06  1.000477  0.0  0.118336  -4.7e-05  0.998592  0.0  0.109866  0.113303  7.6e-05  1.002016  0.0
H  H25  1  0.36767432  0.02852760  0.38414126  1  0.104192  -6.5e-05  0.938259  0.0  0.115385  0.0  1.000571  0.0  0.118253  2.3e-05  0.998686  0.0  0.109833  0.113219  -2.8e-05  1.002112  0.0
H  H26  1  0.13232261  0.02856155  0.88414493  1  0.104233  -0.000168  0.938471  0.0  0.115384  3e-06  1.000763  0.0  0.118249  -5.2e-05  0.998877  0.0  0.109857  0.11322  7.6e-05  1.002301  0.0
H  H27  1  0.63233415  0.97144675  0.61585062  1  0.104268  6.1e-05  0.938489  0.0  0.115429  -4e-06  1.000778  0.0  0.118296  -2.9e-05  0.998893  0.0  0.10989  0.113262  2.8e-05  1.002321  0.0
H  H28  1  0.96109514  0.74215344  0.10183988  1  0.10687  0.000278  0.945363  0.0  0.117518  0.000445  1.004519  0.0  0.120714  0.000305  1.002814  0.0  0.109408  0.114985  0.000597  1.006178  0.0
H  H29  1  0.46109695  0.25784302  0.39816463  1  0.106938  0.000263  0.94529  0.0  0.117527  0.000151  1.004506  0.0  0.120723  0.000157  1.002803  0.0  0.10942  0.114989  0.000143  1.006167  0.0
H  H30  1  0.03893345  0.25787063  0.89816978  1  0.106986  0.000245  0.945346  0.0  0.117631  0.000453  1.004467  0.0  0.120815  0.000293  1.00277  0.0  0.109494  0.115105  0.000628  1.006106  0.0
H  H31  1  0.53893595  0.74213888  0.60181922  1  0.107101  -0.000293  0.945558  0.0  0.117668  -0.000144  1.004753  0.0  0.120853  -0.000172  1.003058  0.0  0.10948  0.115142  -0.000113  1.006399  0.0
H  H32  1  0.92725511  0.60951196  0.98541147  1  0.084984  4.4e-05  0.916632  0.0  0.095725  0.000506  0.976449  0.001  0.098239  0.000319  0.973548  0.0  0.123982  0.093676  0.000694  0.978857  0.001
H  H33  1  0.42725157  0.39049164  0.51458847  1  0.084923  8.7e-05  0.916501  0.0  0.095646  0.000528  0.976357  0.001  0.098161  0.000357  0.973455  0.0  0.123933  0.093594  0.000696  0.978765  0.001
H  H34  1  0.07273180  0.39050175  0.01460392  1  0.085053  3.5e-05  0.916594  0.0  0.095728  0.000487  0.976459  0.001  0.098241  0.000304  0.973564  0.0  0.123923  0.093681  0.00067  0.97886  0.001
H  H35  1  0.57274253  0.60950060  0.48539324  1  0.085007  -7.3e-05  0.91658  0.0  0.09572  -0.000507  0.976434  -0.001  0.098235  -0.000339  0.973531  0.0  0.123947  0.093672  -0.000671  0.97884  -0.001
H  H36  1  0.63090903  0.37601069  0.06580469  1  0.105457  -0.000238  0.968771  0.0  0.113417  -0.000275  1.031292  0.0  0.116342  -0.000284  1.027888  0.0  0.135746  0.111021  -0.000259  1.033979  0.0
H  H37  1  0.13090841  0.62399092  0.43419253  1  0.10542  0.000255  0.968903  0.0  0.113368  0.000301  1.031453  0.0  0.116288  0.000302  1.028053  0.0  0.135748  0.110975  0.000295  1.034137  0.0
H  H38  1  0.36913106  0.62399560  0.93418749  1  0.105387  -0.000259  0.968862  0.0  0.113286  -0.000308  1.031497  0.0  0.116214  -0.000313  1.028088  0.0  0.135691  0.110894  -0.000295  1.034182  0.0
H  H39  1  0.86914174  0.37598716  0.56580737  1  0.10564  -0.000271  0.96864  0.0  0.113318  -0.000308  1.031524  0.0  0.116247  -0.000313  1.028117  0.0  0.13574  0.110923  -0.000296  1.034208  0.0
H  H40  1  0.53980773  0.31298831  0.94065313  1  0.323049  7.1e-05  0.933239  0.0  0.300318  0.00013  0.998896  0.0  0.308934  8.9e-05  0.992306  0.0  0.308013  0.294211  0.000177  1.003509  0.0
H  H41  1  0.03980208  0.68701458  0.55934501  1  0.323072  7.2e-05  0.933194  0.0  0.300309  0.000132  0.998881  0.0  0.308928  9.2e-05  0.99229  0.0  0.30799  0.294212  0.000176  1.003491  0.0
H  H42  1  0.46025535  0.68704611  0.05934978  1  0.323153  7e-06  0.933201  0.0  0.300459  1.2e-05  0.998813  0.0  0.309082  6e-06  0.992213  0.0  0.308077  0.294348  2e-05  1.003436  0.0
H  H43  1  0.96025813  0.31295130  0.44065379  1  0.323214  -6e-06  0.933161  0.0  0.300517  -7e-06  0.998791  0.0  0.309139  -5e-06  0.992191  0.0  0.3081  0.294404  -9e-06  1.003413  0.0
H  H44  1  0.87932064  0.42070804  0.83184243  1  0.419603  7.4e-05  0.886707  0.0  0.387367  0.000846  0.953129  0.001  0.398156  0.000604  0.937324  0.001  0.291253  0.379796  0.001067  0.96417  0.001
H  H45  1  0.37930390  0.57928774  0.66815167  1  0.419575  6.9e-05  0.886767  0.0  0.387441  0.000834  0.953053  0.001  0.398231  0.000597  0.937246  0.001  0.291262  0.37987  0.001051  0.964092  0.001
H  H46  1  0.12061166  0.57923897  0.16817875  1  0.419484  9.5e-05  0.886808  0.0  0.387367  0.000856  0.953066  0.001  0.398155  0.000629  0.937263  0.001  0.291329  0.379794  0.001056  0.964108  0.001
H  H47  1  0.62064133  0.42077969  0.33181426  1  0.419493  -9.2e-05  0.886811  0.0  0.387284  -0.000846  0.953205  -0.001  0.398074  -0.000623  0.937396  -0.001  0.29126  0.379705  -0.001041  0.964253  -0.001
H  H48  1  0.17501515  0.78707482  0.85876565  1  0.394215  0.000165  0.926785  0.001  0.35197  0.000839  1.009117  0.002  0.363808  0.000559  0.992609  0.002  0.279758  0.343788  0.001083  1.020434  0.002
H  H49  1  0.67501230  0.21293292  0.64123442  1  0.394215  0.000166  0.926772  0.001  0.351966  0.000842  1.009113  0.002  0.363804  0.000561  0.992606  0.002  0.279779  0.343784  0.001087  1.02043  0.002
H  H50  1  0.82497032  0.21287416  0.14123060  1  0.394248  0.000168  0.926706  0.001  0.352044  0.000842  1.008998  0.002  0.36388  0.000563  0.992494  0.002  0.27968  0.343857  0.001086  1.020322  0.002
H  H51  1  0.32497030  0.78712216  0.35876727  1  0.394284  -0.00017  0.926652  -0.001  0.352088  -0.000847  1.008938  -0.002  0.363922  -0.000567  0.992437  -0.002  0.279758  0.343905  -0.001092  1.020256  -0.002
C  C52  1  0.57790574  0.86311523  0.76965584  1  0.141179  0.003689  3.688905  0.003  0.110274  0.006593  3.943476  0.005  0.118355  0.005321  3.958598  0.004  0.057888  0.104596  0.008422  3.933945  0.006
C  C53  1  0.07791281  0.13689279  0.73034626  1  0.141177  0.003783  3.688482  0.004  0.110302  0.006634  3.943078  0.005  0.118385  0.005361  3.958194  0.004  0.057877  0.104608  0.00845  3.933558  0.007
C  C54  1  0.42210560  0.13684311  0.23034945  1  0.141522  0.003598  3.688416  0.003  0.110626  0.006323  3.943009  0.005  0.118709  0.005129  3.958114  0.004  0.058095  0.104935  0.008053  3.933486  0.006
C  C55  1  0.92210428  0.86313321  0.26964616  1  0.141458  -0.003636  3.688222  -0.003  0.110521  -0.006316  3.942811  -0.005  0.118608  -0.00514  3.957911  -0.004  0.058144  0.104828  -0.008007  3.933308  -0.006
C  C56  1  0.50424439  0.98363800  0.76861032  1  -0.117182  -0.00099  3.739554  -0.001  -0.130788  -0.000238  3.996111  0.0  -0.136798  -0.000827  4.016402  -0.001  -0.082927  -0.127145  0.000389  3.983221  0.0
C  C57  1  0.00424569  0.01636160  0.73138303  1  -0.117107  -0.001076  3.739628  -0.001  -0.130745  -0.000301  3.996183  0.0  -0.136753  -0.000858  4.016472  -0.001  -0.08289  -0.127108  0.000259  3.983303  0.0
C  C58  1  0.49574971  0.01632695  0.23138532  1  -0.117467  -0.000876  3.739148  -0.001  -0.131049  -0.00019  3.995695  0.0  -0.137067  -0.000699  4.016011  -0.001  -0.082948  -0.127358  0.000336  3.982818  0.0
C  C59  1  0.99575559  0.98366442  0.26860785  1  -0.117164  0.000923  3.7392  0.001  -0.130717  0.000253  3.995753  0.0  -0.136731  0.000725  4.016075  0.001  -0.0828  -0.127074  -0.000192  3.982859  0.0
C  C60  1  0.52230795  0.07380636  0.82723812  1  -0.028419  0.003158  3.666589  0.003  -0.056403  0.00515  3.920228  0.004  -0.052707  0.004114  3.935557  0.003  -0.065214  -0.059293  0.007266  3.910853  0.006
C  C61  1  0.02231687  0.92620238  0.67276086  1  -0.028415  0.003188  3.666683  0.003  -0.056434  0.005044  3.920354  0.004  -0.052742  0.004034  3.935684  0.003  -0.065233  -0.059317  0.007104  3.910975  0.006
C  C62  1  0.47767178  0.92616048  0.17275513  1  -0.028675  0.003302  3.666567  0.003  -0.056611  0.005252  3.920221  0.004  -0.052949  0.004261  3.935526  0.003  -0.065351  -0.059487  0.007313  3.910834  0.006
C  C63  1  0.97766861  0.07382266  0.32723915  1  -0.028561  -0.003311  3.66631  -0.003  -0.056521  -0.005157  3.919961  -0.004  -0.05288  -0.004191  3.935256  -0.003  -0.065294  -0.059391  -0.007157  3.910586  -0.006
C  C64  1  0.61304388  0.04205846  0.88667839  1  -0.031457  -0.00068  3.789976  -0.001  -0.018367  -0.000113  4.028338  0.0  -0.021054  -0.000512  4.050207  -0.001  0.001759  -0.016745  0.000237  4.014045  0.0
C  C65  1  0.11305364  0.95794350  0.61331843  1  -0.031549  -0.00077  3.789665  -0.001  -0.018386  -0.000219  4.028076  0.0  -0.021072  -0.000595  4.049942  -0.001  0.00176  -0.016764  9.1e-05  4.013785  0.0
C  C66  1  0.38694159  0.95793182  0.11332312  1  -0.030912  -0.000755  3.789906  -0.001  -0.017691  -0.000222  4.028274  0.0  -0.020379  -0.000591  4.050153  -0.001  0.002062  -0.016082  6.3e-05  4.014003  0.0
C  C67  1  0.88693614  0.04206652  0.38667921  1  -0.031129  0.000802  3.789916  0.001  -0.017918  0.000328  4.028297  0.0  -0.020604  0.000663  4.050184  0.001  0.001969  -0.016313  8e-05  4.014029  0.0
C  C68  1  0.67862087  0.91632110  0.88402295  1  0.133016  0.002289  3.739136  0.002  0.121132  0.004814  3.986681  0.004  0.126413  0.003756  4.006845  0.003  0.121689  0.11731  0.006347  3.9735  0.005
C  C69  1  0.17862547  0.08368470  0.61597955  1  0.133371  0.002288  3.738513  0.002  0.121244  0.004685  3.986445  0.004  0.126527  0.003663  4.006604  0.003  0.12173  0.117411  0.006133  3.973261  0.005
C  C70  1  0.32136891  0.08367198  0.11598290  1  0.132771  0.002301  3.738682  0.002  0.120602  0.004752  3.98662  0.004  0.125877  0.003724  4.006787  0.003  0.121506  0.116783  0.006245  3.973426  0.005
C  C71  1  0.82137293  0.91632910  0.38401023  1  0.13301  -0.002254  3.73862  -0.002  0.120805  -0.004626  3.986695  -0.004  0.126081  -0.003633  4.006862  -0.003  0.121529  0.116987  -0.006024  3.973504  -0.005
C  C72  1  0.76090076  0.87394213  0.94488552  1  0.132752  0.002302  3.725666  0.002  0.125417  0.004563  3.968077  0.004  0.129881  0.003653  3.988681  0.003  0.120783  0.122233  0.005732  3.954407  0.005
C  C73  1  0.26089996  0.12605794  0.55511584  1  0.132843  0.002306  3.725488  0.002  0.12557  0.00458  3.967975  0.004  0.130034  0.003709  3.988577  0.003  0.12084  0.122396  0.005702  3.954289  0.005
C  C74  1  0.23907753  0.12606408  0.05512714  1  0.133339  0.002279  3.724709  0.002  0.126095  0.004562  3.967316  0.004  0.130553  0.003653  3.98792  0.003  0.120934  0.122939  0.005724  3.953611  0.005
C  C75  1  0.73907546  0.87394741  0.44487473  1  0.133011  -0.002348  3.72526  -0.002  0.125769  -0.004593  3.967824  -0.004  0.13023  -0.003721  3.988439  -0.003  0.120812  0.122605  -0.005701  3.954119  -0.005
C  C76  1  0.77723320  0.95708427  0.00898374  1  -0.022964  -0.000993  3.788319  -0.001  -0.012277  -0.000363  4.026248  0.0  -0.014236  -0.000776  4.04842  -0.001  0.001166  -0.011128  0.000123  4.011338  0.0
C  C77  1  0.27723488  0.04291452  0.49101792  1  -0.023205  -0.000992  3.788751  -0.001  -0.012472  -0.000401  4.026695  -0.001  -0.014431  -0.000822  4.048866  -0.001  0.001091  -0.011326  5.8e-05  4.011781  0.0
C  C78  1  0.22274078  0.04292570  0.99102619  1  -0.02338  -0.000972  3.788276  -0.001  -0.012657  -0.000368  4.026217  -0.001  -0.014621  -0.000775  4.048391  -0.001  0.000961  -0.01152  0.000112  4.011324  0.0
C  C79  1  0.72275778  0.95709271  0.50897128  1  -0.023611  0.001019  3.78909  0.001  -0.012834  0.000415  4.026993  0.001  -0.014797  0.000827  4.049169  0.001  0.000886  -0.011684  -3.4e-05  4.012075  0.0
C  C80  1  0.85211449  0.90894736  0.06645443  1  -0.041749  0.003414  3.681068  0.003  -0.072453  0.005168  3.942627  0.004  -0.069797  0.004317  3.959317  0.003  -0.067289  -0.074254  0.00659  3.931742  0.005
C  C81  1  0.35211374  0.09105047  0.43355156  1  -0.041573  0.003488  3.681402  0.003  -0.072323  0.005124  3.942879  0.004  -0.069662  0.004377  3.959559  0.003  -0.06725  -0.074135  0.006408  3.932008  0.005
C  C82  1  0.14787386  0.09107012  0.93355719  1  -0.041502  0.003379  3.68109  0.003  -0.072153  0.005166  3.942565  0.004  -0.069484  0.004312  3.959242  0.003  -0.067097  -0.073963  0.006589  3.931688  0.005
C  C83  1  0.64789185  0.90894643  0.56643979  1  -0.041589  -0.0035  3.681161  -0.003  -0.072283  -0.005114  3.942579  -0.004  -0.069621  -0.004376  3.959258  -0.003  -0.067171  -0.074101  -0.006384  3.931714  -0.005
C  C84  1  0.90410304  0.78368835  0.05882195  1  -0.09953  -0.001112  3.710814  -0.001  -0.116632  -0.00021  3.977494  0.0  -0.121336  -0.000833  3.99598  -0.001  -0.079365  -0.113878  0.000529  3.965729  0.0
C  C85  1  0.40410578  0.21630414  0.44118106  1  -0.099521  -0.001376  3.710697  -0.001  -0.116538  -0.000812  3.977325  -0.001  -0.121244  -0.001302  3.99581  -0.001  -0.079316  -0.113786  -0.000283  3.965564  0.0
C  C86  1  0.09589968  0.21633289  0.94119002  1  -0.099712  -0.001113  3.710746  -0.001  -0.116845  -0.000228  3.977518  0.0  -0.121522  -0.000854  3.995945  -0.001  -0.079568  -0.114105  0.000518  3.965795  0.0
C  C87  1  0.59590413  0.78368335  0.55881507  1  -0.099597  0.001344  3.710441  0.001  -0.116651  0.000802  3.977144  0.001  -0.121336  0.001269  3.995592  0.001  -0.0794  -0.113904  0.000314  3.965399  0.0
C  C88  1  0.88523237  0.70816175  0.99353609  1  0.156837  0.004217  3.669803  0.004  0.118714  0.006992  3.937  0.006  0.127555  0.005806  3.951684  0.005  0.062198  0.112524  0.008493  3.927596  0.007
C  C89  1  0.38523300  0.29183487  0.50646634  1  0.156863  0.004296  3.669635  0.004  0.118735  0.007024  3.936847  0.006  0.127577  0.005894  3.951528  0.005  0.062184  0.112543  0.008454  3.927443  0.007
C  C90  1  0.11476460  0.29184914  0.00647956  1  0.156534  0.004179  3.670203  0.004  0.118531  0.006965  3.93738  0.006  0.127367  0.005782  3.952071  0.005  0.062118  0.112337  0.008459  3.927974  0.007
C  C91  1  0.61477403  0.70815641  0.49352143  1  0.156563  -0.004309  3.66989  -0.004  0.118475  -0.007014  3.937095  -0.006  0.127324  -0.005894  3.951777  -0.005  0.06203  0.112276  -0.008434  3.927701  -0.007
C  C92  1  0.71661004  0.08409897  0.01015491  1  0.082267  2.9e-05  3.833673  0.0  0.07083  7.6e-05  4.093183  0.0  0.072094  -1.5e-05  4.117857  0.0  0.08414  0.070174  0.000164  4.076155  0.0
C  C93  1  0.21661993  0.91590060  0.48984512  1  0.082367  8.9e-05  3.833663  0.0  0.070799  0.000118  4.093322  0.0  0.072062  7.4e-05  4.117992  0.0  0.084099  0.070147  0.00016  4.076291  0.0
C  C94  1  0.28335244  0.91590822  0.98984760  1  0.08253  6e-06  3.833965  0.0  0.070993  6.2e-05  4.093652  0.0  0.072257  -2.5e-05  4.118316  0.0  0.084181  0.070338  0.000143  4.076635  0.0
C  C95  1  0.78336698  0.08409158  0.51015194  1  0.082669  -0.000106  3.833906  0.0  0.071117  -0.000103  4.093575  0.0  0.072382  -6.5e-05  4.118238  0.0  0.084159  0.070462  -0.000134  4.076553  0.0
C  C96  1  0.64034860  0.12402566  0.95080614  1  0.093081  8.6e-05  3.805751  0.0  0.074939  0.000169  4.061228  0.0  0.077048  7.2e-05  4.085851  0.0  0.090484  0.073649  0.000338  4.044447  0.0
C  C97  1  0.14035271  0.87597031  0.54919249  1  0.093154  7.2e-05  3.805917  0.0  0.075036  6.1e-05  4.061341  0.0  0.077151  7e-06  4.08596  0.0  0.090545  0.073759  0.000152  4.044565  0.0
C  C98  1  0.35962681  0.87597028  0.04918921  1  0.093064  9.9e-05  3.805893  0.0  0.074862  0.000159  4.061529  0.0  0.076985  6.5e-05  4.086137  0.0  0.090463  0.073566  0.000325  4.044766  0.0
C  C99  1  0.85964139  0.12402469  0.45080482  1  0.092969  -4e-05  3.806059  0.0  0.074842  -4.9e-05  4.06158  0.0  0.076959  5e-06  4.086193  0.0  0.090537  0.073545  -0.000133  4.044815  0.0
C  C100  1  0.64962858  0.28117339  0.03795548  1  0.252433  -0.000444  3.621916  0.0  0.18995  -0.000454  3.899714  0.0  0.203131  -0.000492  3.911956  0.0  0.158295  0.181294  -0.000427  3.891581  0.0
C  C101  1  0.14963860  0.71882235  0.46204142  1  0.252451  0.000156  3.621852  0.0  0.189897  0.00017  3.899676  0.0  0.203083  0.000194  3.911918  0.0  0.158238  0.181258  0.00011  3.891554  0.0
C  C102  1  0.35036120  0.71883101  0.96203756  1  0.25249  -0.000448  3.621422  0.0  0.19002  -0.000465  3.899287  0.0  0.203202  -0.000501  3.911522  0.0  0.158253  0.181369  -0.000443  3.891158  0.0
C  C103  1  0.85037418  0.28115761  0.53795865  1  0.252196  -0.000142  3.621929  0.0  0.1899  -0.000142  3.899804  0.0  0.203078  -0.000182  3.912031  0.0  0.158223  0.181252  -6.6e-05  3.891666  0.0
S  S104  1  0.00214789  0.56855435  0.66701010  1  1.563681  0.006879  5.816139  0.006  1.439519  0.012031  6.353451  0.009  1.495066  0.00939  6.319967  0.008  0.577294  1.400577  0.014507  6.374989  0.01
S  S105  1  0.50215716  0.43144430  0.83299186  1  1.563779  0.006886  5.816329  0.006  1.439582  0.012039  6.353697  0.009  1.495125  0.009396  6.320211  0.008  0.57729  1.40064  0.014515  6.37524  0.01
S  S106  1  0.99786489  0.43152233  0.33299148  1  1.564121  -0.001213  5.817942  -0.001  1.440466  -0.001637  6.354912  -0.001  1.496073  -0.001272  6.321389  -0.001  0.577944  1.401411  -0.002041  6.3765  -0.002
S  S107  1  0.49787718  0.56849239  0.16702634  1  1.563596  0.001205  5.818006  0.001  1.439973  0.001633  6.354942  0.001  1.4956  0.001252  6.321411  0.001  0.577696  1.400932  0.00205  6.376531  0.002
N  N108  1  0.66226624  0.83079456  0.82543794  1  -0.337739  0.028344  3.249031  0.017  -0.274078  0.03238  3.522166  0.017  -0.291404  0.028475  3.536496  0.013  -0.313999  -0.262241  0.036593  3.513061  0.02
N  N109  1  0.16227589  0.16920677  0.67455937  1  -0.337853  0.028263  3.248871  0.017  -0.274165  0.032314  3.522122  0.016  -0.291489  0.028433  3.53645  0.013  -0.314036  -0.262305  0.03647  3.512992  0.02
N  N110  1  0.33772785  0.16918909  0.17457782  1  -0.337871  0.028281  3.248569  0.017  -0.274105  0.032268  3.521816  0.016  -0.291425  0.028392  3.53611  0.013  -0.314217  -0.262259  0.036433  3.512767  0.02
N  N111  1  0.83773976  0.83081364  0.32542333  1  -0.337879  -0.028292  3.248895  -0.017  -0.27427  -0.032257  3.522385  -0.016  -0.29159  -0.028422  3.536671  -0.013  -0.314346  -0.262423  -0.036351  3.513341  -0.02
N  N112  1  0.81694642  0.75201220  0.93827569  1  -0.354348  0.028151  3.227937  0.015  -0.29291  0.033189  3.506792  0.016  -0.310896  0.029285  3.521821  0.013  -0.310943  -0.280377  0.037186  3.49702  0.019
N  N113  1  0.31694338  0.24798999  0.56172289  1  -0.354389  0.028085  3.227909  0.015  -0.292958  0.033007  3.506765  0.015  -0.310948  0.029132  3.521804  0.012  -0.310971  -0.280434  0.036899  3.496994  0.018
N  N114  1  0.18302612  0.24799587  0.06174021  1  -0.354241  0.028141  3.22757  0.015  -0.292921  0.033153  3.506412  0.016  -0.310906  0.02927  3.521455  0.013  -0.310778  -0.280381  0.037112  3.496626  0.019
N  N115  1  0.68304209  0.75201443  0.43826708  1  -0.354112  -0.028081  3.228068  -0.015  -0.292713  -0.033001  3.506864  -0.015  -0.310714  -0.029168  3.521915  -0.012  -0.310684  -0.280169  -0.036818  3.497083  -0.018
N  N116  1  0.72000527  0.18371582  0.06411668  1  -0.400647  -0.000296  3.082971  0.0  -0.345321  -0.00017  3.34471  0.0  -0.362422  -0.000331  3.361305  0.0  -0.324406  -0.333743  1.1e-05  3.333386  0.001
N  N117  1  0.22001245  0.81628371  0.43588441  1  -0.400689  0.000187  3.08295  0.0  -0.345317  7.1e-05  3.344722  -0.001  -0.362415  0.000199  3.361315  0.0  -0.32436  -0.333737  -6.1e-05  3.333396  -0.001
N  N118  1  0.27995721  0.81628856  0.93588199  1  -0.40087  -0.000293  3.082668  0.0  -0.345504  -0.000174  3.344441  0.0  -0.362604  -0.000333  3.361025  0.0  -0.324389  -0.333921  4e-06  3.333117  0.001
N  N119  1  0.77998164  0.18370941  0.56411222  1  -0.400815  -0.000192  3.083388  0.0  -0.345479  -7.5e-05  3.345107  0.001  -0.362576  -0.000201  3.361691  0.0  -0.32444  -0.3339  5.9e-05  3.33378  0.001
N  N120  1  0.59955611  0.24932756  0.97014459  1  -0.329895  -3.7e-05  3.393068  0.0  -0.264467  6.2e-05  3.629063  0.0  -0.282913  -3.2e-05  3.646312  0.0  -0.369509  -0.252098  0.00019  3.617303  0.0
N  N121  1  0.09956289  0.75067362  0.52985458  1  -0.329955  9e-05  3.393031  0.0  -0.264375  0.000148  3.628843  0.0  -0.282826  9.4e-05  3.646099  0.0  -0.369467  -0.252046  0.000197  3.617116  0.0
N  N122  1  0.40043655  0.75066932  0.02985187  1  -0.329984  -0.000116  3.392514  0.0  -0.264545  -9.6e-05  3.628556  0.0  -0.282989  -0.000143  3.645776  0.0  -0.369541  -0.252173  -2e-05  3.616812  0.0
N  N123  1  0.90044558  0.24931854  0.47014607  1  -0.329967  -1.8e-05  3.392855  0.0  -0.26451  1.8e-05  3.628721  0.0  -0.282957  2.1e-05  3.645958  0.0  -0.369524  -0.252141  2.9e-05  3.616969  0.0
O  O124  1  0.08493767  0.76865083  0.81733466  1  -0.858026  0.034368  1.93806  0.023  -0.795036  0.043157  2.160678  0.027  -0.820398  0.038825  2.127319  0.024  -0.581094  -0.775187  0.046816  2.183347  0.03
O  O125  1  0.58492920  0.23135712  0.68266290  1  -0.85804  0.034384  1.938138  0.023  -0.795053  0.043174  2.160776  0.027  -0.820417  0.038841  2.127418  0.024  -0.581126  -0.775202  0.046835  2.18345  0.03
O  O126  1  0.91505068  0.23121549  0.18266391  1  -0.858431  0.034382  1.937793  0.023  -0.795414  0.043167  2.160307  0.027  -0.820766  0.038853  2.126932  0.024  -0.580973  -0.775553  0.046794  2.183022  0.03
O  O127  1  0.41505771  0.76877591  0.31733964  1  -0.858388  -0.034454  1.937782  -0.023  -0.795407  -0.043249  2.160333  -0.027  -0.820763  -0.038956  2.126948  -0.024  -0.581057  -0.775537  -0.046857  2.183035  -0.03
O  O128  1  0.97864864  0.48626857  0.84723792  1  -0.835773  0.030145  1.854584  0.017  -0.77545  0.039855  2.05331  0.023  -0.797594  0.035827  2.017491  0.02  -0.572538  -0.75853  0.043503  2.078194  0.026
O  O129  1  0.47862278  0.51372593  0.65276023  1  -0.835933  0.03015  1.854428  0.017  -0.775623  0.039839  2.053033  0.023  -0.797767  0.035823  2.017207  0.02  -0.572582  -0.758703  0.043472  2.077922  0.026
O  O130  1  0.02127791  0.51368496  0.15279563  1  -0.835478  0.030285  1.854952  0.017  -0.77514  0.039928  2.053339  0.023  -0.797289  0.036034  2.017524  0.02  -0.572574  -0.758194  0.043409  2.078232  0.026
O  O131  1  0.52131958  0.48633962  0.34720552  1  -0.835805  -0.030355  1.854671  -0.017  -0.775258  -0.039983  2.053325  -0.023  -0.79741  -0.036117  2.017507  -0.02  -0.57258  -0.758302  -0.043432  2.078233  -0.025
O  O132  1  0.83298784  0.61086681  0.71327249  1  -0.766706  0.032133  2.016112  0.019  -0.691829  0.041202  2.290879  0.026  -0.71832  0.036774  2.269973  0.022  -0.348001  -0.671974  0.045461  2.304672  0.029
O  O133  1  0.33299394  0.38912764  0.78673070  1  -0.766738  0.032114  2.016167  0.019  -0.691868  0.041193  2.290914  0.026  -0.71836  0.036757  2.270013  0.022  -0.348002  -0.672015  0.045451  2.304709  0.029
O  O134  1  0.16688121  0.38942546  0.28659377  1  -0.76668  0.027704  2.01793  0.014  -0.692045  0.034649  2.292751  0.018  -0.71867  0.031862  2.27195  0.016  -0.347987  -0.672017  0.03719  2.306533  0.02
O  O135  1  0.66687658  0.61057657  0.21341926  1  -0.766239  -0.027737  2.018212  -0.014  -0.691783  -0.034686  2.293198  -0.018  -0.718441  -0.031914  2.272411  -0.016  -0.347878  -0.671771  -0.037213  2.306983  -0.02
O  O136  1  0.05549250  0.43866427  0.67613328  1  -0.743277  0.030497  2.01776  0.017  -0.680859  0.040093  2.303696  0.024  -0.706688  0.035631  2.283745  0.02  -0.349492  -0.66126  0.044469  2.31668  0.028
O  O137  1  0.55550075  0.56134123  0.82386527  1  -0.743441  0.030501  2.017551  0.017  -0.68097  0.040106  2.303458  0.024  -0.7068  0.035641  2.283508  0.02  -0.349597  -0.66137  0.044483  2.316441  0.028
O  O138  1  0.94443980  0.56149803  0.32407061  1  -0.742722  -0.030372  2.018807  -0.017  -0.680884  -0.039475  2.30509  -0.022  -0.7067  -0.035526  2.285006  -0.019  -0.349663  -0.661196  -0.043262  2.318116  -0.025
O  O139  1  0.44446316  0.43848827  0.17594356  1  -0.742454  0.030311  2.018024  0.017  -0.680749  0.039419  2.304436  0.022  -0.706579  0.035442  2.28437  0.019  -0.349582  -0.661024  0.043221  2.317375  0.025
O  O140  1  0.94493009  0.57203410  0.59435693  1  -0.698821  0.003081  1.934202  0.004  -0.649921  0.004458  2.174444  0.005  -0.670637  0.003323  2.158515  0.004  -0.353446  -0.634676  0.005689  2.184696  0.007
O  O141  1  0.44495105  0.42796365  0.90564267  1  -0.698644  0.00304  1.934257  0.004  -0.649789  0.0044  2.174535  0.005  -0.670505  0.003262  2.158605  0.004  -0.353382  -0.634547  0.005657  2.184793  0.007
O  O142  1  0.05538162  0.42774043  0.40557910  1  -0.699071  0.001591  1.934351  0.002  -0.650327  0.002057  2.174542  0.002  -0.671033  0.001691  2.158591  0.002  -0.353849  -0.635107  0.002446  2.184842  0.002
O  O143  1  0.55541240  0.57227522  0.09443391  1  -0.699177  -0.001601  1.934053  -0.002  -0.650379  -0.002029  2.17421  -0.002  -0.671091  -0.001686  2.158254  -0.002  -0.353908  -0.635159  -0.002357  2.184505  -0.002
O  O144  1  0.16846789  0.65567193  0.68699932  1  -0.753935  -0.000427  1.954009  0.0  -0.687363  8e-05  2.187643  0.001  -0.709933  -0.000396  2.169963  0.001  -0.351832  -0.67108  0.00064  2.199397  0.002
O  O145  1  0.66845833  0.34431804  0.81300164  1  -0.753973  -0.000411  1.954309  0.0  -0.687356  9.7e-05  2.187934  0.001  -0.709925  -0.00038  2.170262  0.001  -0.35173  -0.671051  0.000667  2.199651  0.002
O  O146  1  0.83155351  0.34441520  0.31297297  1  -0.754162  -8.7e-05  1.954561  0.0  -0.687538  -0.000172  2.187978  0.0  -0.710148  -8.1e-05  2.170333  0.0  -0.35179  -0.671205  -0.000275  2.199697  0.0
O  O147  1  0.33157026  0.65558101  0.18703520  1  -0.754062  0.000101  1.955125  0.0  -0.687394  0.000193  2.188491  0.0  -0.709991  0.000101  2.170824  0.0  -0.351741  -0.67109  0.000303  2.200233  0.0
