# generated using pymatgen
data_H4PbC7SO4
_symmetry_space_group_name_H-M   'P 1'
_cell_length_a   7.89160914
_cell_length_b   8.80998157
_cell_length_c   12.28298001
_cell_angle_alpha   89.99886639
_cell_angle_beta   106.09330704
_cell_angle_gamma   90.00215145
_symmetry_Int_Tables_number   1
_chemical_formula_structural   H4PbC7SO4
_chemical_formula_sum   'H16 Pb4 C28 S4 O16'
_cell_volume   820.50744021
_cell_formula_units_Z   4
loop_
 _symmetry_equiv_pos_site_id
 _symmetry_equiv_pos_as_xyz
  1  'x, y, z'
loop_
 _atom_site_type_symbol
 _atom_site_label
 _atom_site_symmetry_multiplicity
 _atom_site_fract_x
 _atom_site_fract_y
 _atom_site_fract_z
 _atom_site_occupancy
 _atom_site_hle17_bader_spin_density
 _atom_site_hle17_ddec_charge
 _atom_site_hle17_ddec_spin_density
 _atom_site_hle17_ddec_sum_bond_order
 _atom_site_hle17_magmom
 _atom_site_hse06_10hf_bader_spin_density
 _atom_site_hse06_10hf_ddec_charge
 _atom_site_hse06_10hf_ddec_spin_density
 _atom_site_hse06_10hf_ddec_sum_bond_order
 _atom_site_hse06_10hf_magmom
 _atom_site_hse06_bader_spin_density
 _atom_site_hse06_ddec_charge
 _atom_site_hse06_ddec_spin_density
 _atom_site_hse06_ddec_sum_bond_order
 _atom_site_hse06_magmom
 _atom_site_pbe_bader_spin_density
 _atom_site_pbe_cm5_charge
 _atom_site_pbe_ddec_charge
 _atom_site_pbe_ddec_spin_density
 _atom_site_pbe_ddec_sum_bond_order
 _atom_site_pbe_magmom
H  H0  1  0.88202539  0.49805136  0.87973741  1  0  0.101304  0  0.969222  0  0  0.10926  0  1.034999  0  0  0.113167  0  1.032344  0  0  0.101767  0.10647  0  1.036927  0
H  H1  1  0.61796855  0.99803805  0.12026415  1  0  0.101314  0  0.96934  0  0  0.109293  0  1.035072  0  0  0.113202  0  1.032411  0  0  0.101809  0.106508  0  1.037005  0
H  H2  1  0.11798779  0.50194688  0.12027037  1  0  0.101311  0  0.969237  0  0  0.109249  0  1.035011  0  0  0.113158  0  1.032351  0  0  0.101757  0.10646  0  1.036942  0
H  H3  1  0.38204202  0.00196134  0.87972933  1  0  0.101372  0  0.969237  0  0  0.109313  0  1.035013  0  0  0.113222  0  1.032351  0  0  0.101804  0.10653  0  1.036946  0
H  H4  1  0.88170201  0.34150858  0.05094908  1  0  0.093119  0  0.954007  0  0  0.105908  0  1.0111  0  0  0.10874  0  1.009434  0  0  0.104655  0.103828  0  1.012433  0
H  H5  1  0.61829113  0.84150413  0.94904724  1  0  0.093153  0  0.953929  0  0  0.105882  0  1.011095  0  0  0.108714  0  1.009428  0  0  0.10464  0.103808  0  1.012423  0
H  H6  1  0.11830589  0.65848740  0.94905532  1  0  0.09315  0  0.95393  0  0  0.105954  0  1.010992  0  0  0.108837  0  1.009258  0  0  0.10469  0.103849  0  1.012354  0
H  H7  1  0.38169702  0.15849526  0.05094223  1  0  0.093046  0  0.95398  0  0  0.105834  0  1.011095  0  0  0.108665  0  1.009428  0  0  0.104628  0.103761  0  1.012421  0
H  H8  1  0.84320665  0.06171306  0.03149519  1  0  0.087277  0  0.970521  0  0  0.099102  0  1.029883  0  0  0.101338  0  1.029945  0  0  0.101105  0.097519  0  1.029929  0
H  H9  1  0.65679410  0.56171845  0.96850321  1  0  0.087285  0  0.970535  0  0  0.099106  0  1.029899  0  0  0.101342  0  1.029962  0  0  0.101101  0.097523  0  1.029947  0
H  H10  1  0.15680125  0.93828178  0.96851084  1  0  0.087382  0  0.970409  0  0  0.099172  0  1.029805  0  0  0.101408  0  1.029868  0  0  0.101114  0.097589  0  1.029853  0
H  H11  1  0.34317954  0.43828320  0.03148529  1  0  0.08739  0  0.970376  0  0  0.099185  0  1.029761  0  0  0.101419  0  1.02983  0  0  0.101127  0.097602  0  1.029806  0
H  H12  1  0.80541393  0.93939658  0.84251464  1  0  0.102765  0  0.943707  0  0  0.112446  0  1.005278  0  0  0.116452  0  1.001936  0  0  0.106583  0.109561  0  1.007736  0
H  H13  1  0.69459884  0.43938839  0.15748868  1  0  0.102813  0  0.9436  0  0  0.112485  0  1.005193  0  0  0.116502  0  1.001833  0  0  0.106595  0.109601  0  1.007651  0
H  H14  1  0.19459793  0.06060394  0.15749128  1  0  0.102814  0  0.943694  0  0  0.112472  0  1.005307  0  0  0.116489  0  1.001947  0  0  0.106574  0.109585  0  1.00777  0
H  H15  1  0.30538271  0.56061440  0.84250367  1  0  0.102784  0  0.943711  0  0  0.11246  0  1.005289  0  0  0.116486  0  1.001921  0  0  0.106583  0.109579  0  1.007744  0
Pb  Pb16  1  0.47643210  0.28987896  0.42822586  1  0  1.416524  0  1.511628  0  0  1.241165  0  1.915363  0  0  1.295933  0  1.870661  0  0  0.653557  1.200959  0  1.947064  0
Pb  Pb17  1  0.02356396  0.78987836  0.57180198  1  0  1.416472  0  1.511729  0  0  1.241093  0  1.915491  0  0  1.295848  0  1.87078  0  0  0.653505  1.200885  0  1.947191  0
Pb  Pb18  1  0.52352700  0.71012269  0.57177550  1  0  1.416436  0  1.511768  0  0  1.241064  0  1.915512  0  0  1.295823  0  1.870815  0  0  0.653538  1.200857  0  1.947212  0
Pb  Pb19  1  0.97641619  0.21011307  0.42821862  1  0  1.416493  0  1.511698  0  0  1.241131  0  1.915447  0  0  1.295887  0  1.87074  0  0  0.653522  1.200922  0  1.947149  0
C  C20  1  0.83674258  0.30708693  0.76842071  1  0  -0.046269  0  3.639832  0  0  -0.027481  0  3.885672  0  0  -0.028838  0  3.907735  0  0  -0.016822  -0.02658  0  3.870994  0
C  C21  1  0.66325978  0.80706978  0.23157856  1  0  -0.046025  0  3.639664  0  0  -0.027284  0  3.885564  0  0  -0.028642  0  3.907637  0  0  -0.016746  -0.026384  0  3.870888  0
C  C22  1  0.16324951  0.69291699  0.23157598  1  0  -0.046001  0  3.639739  0  0  -0.02735  0  3.885709  0  0  -0.028703  0  3.907772  0  0  -0.016826  -0.026448  0  3.87103  0
C  C23  1  0.33673496  0.19293187  0.76841615  1  0  -0.046098  0  3.639699  0  0  -0.027293  0  3.885506  0  0  -0.028651  0  3.907572  0  0  -0.016781  -0.026391  0  3.87083  0
C  C24  1  0.86277399  0.37546971  0.87388252  1  0  -0.081439  0  3.744378  0  0  -0.103489  0  3.992573  0  0  -0.10646  0  4.014091  0  0  -0.08869  -0.101479  0  3.97805  0
C  C25  1  0.63722705  0.87546368  0.12612205  1  0  -0.081668  0  3.744535  0  0  -0.103735  0  3.99275  0  0  -0.106708  0  4.014271  0  0  -0.088811  -0.101733  0  3.978236  0
C  C26  1  0.13723523  0.62452854  0.12612130  1  0  -0.081582  0  3.744382  0  0  -0.103572  0  3.992606  0  0  -0.106549  0  4.014143  0  0  -0.088717  -0.101562  0  3.978079  0
C  C27  1  0.36277559  0.12454024  0.87387652  1  0  -0.081763  0  3.744404  0  0  -0.103841  0  3.992642  0  0  -0.106813  0  4.01416  0  0  -0.088814  -0.101839  0  3.978131  0
C  C28  1  0.86296362  0.28774858  0.96851235  1  0  -0.048482  0  3.73738  0  0  -0.061444  0  3.982573  0  0  -0.062338  0  4.003467  0  0  -0.080681  -0.060632  0  3.968284  0
C  C29  1  0.63703931  0.78774744  0.03148811  1  0  -0.048407  0  3.737301  0  0  -0.06132  0  3.982509  0  0  -0.062212  0  4.0034  0  0  -0.080626  -0.060514  0  3.968226  0
C  C30  1  0.13704957  0.71224967  0.03149137  1  0  -0.048479  0  3.737336  0  0  -0.061435  0  3.982483  0  0  -0.062365  0  4.003364  0  0  -0.080716  -0.060608  0  3.968203  0
C  C31  1  0.36296071  0.21225421  0.96850510  1  0  -0.048176  0  3.737292  0  0  -0.061111  0  3.982467  0  0  -0.062003  0  4.00336  0  0  -0.080596  -0.060306  0  3.968177  0
C  C32  1  0.84120548  0.13082749  0.95770662  1  0  -0.069077  0  3.768775  0  0  -0.081217  0  4.017081  0  0  -0.084333  0  4.039584  0  0  -0.08696  -0.079139  0  4.001753  0
C  C33  1  0.65880191  0.63082678  0.04229361  1  0  -0.069096  0  3.76889  0  0  -0.081234  0  4.017184  0  0  -0.08435  0  4.039687  0  0  -0.087012  -0.079156  0  4.001862  0
C  C34  1  0.15880770  0.86916735  0.04229873  1  0  -0.069179  0  3.768829  0  0  -0.081303  0  4.01715  0  0  -0.084425  0  4.039674  0  0  -0.086965  -0.079224  0  4.001816  0
C  C35  1  0.34119679  0.36917033  0.95769693  1  0  -0.069225  0  3.768796  0  0  -0.081357  0  4.01716  0  0  -0.084477  0  4.039668  0  0  -0.087003  -0.079276  0  4.001831  0
C  C36  1  0.81990179  0.06201913  0.85271776  1  0  -0.056462  0  3.718634  0  0  -0.082748  0  3.971505  0  0  -0.082497  0  3.990915  0  0  -0.079553  -0.08276  0  3.958368  0
C  C37  1  0.68012139  0.56201851  0.14728709  1  0  -0.056521  0  3.718777  0  0  -0.082828  0  3.971671  0  0  -0.082575  0  3.99107  0  0  -0.079486  -0.082841  0  3.958529  0
C  C38  1  0.18012326  0.93797684  0.14728971  1  0  -0.056403  0  3.718693  0  0  -0.082697  0  3.971542  0  0  -0.082449  0  3.990946  0  0  -0.079499  -0.082707  0  3.9584  0
C  C39  1  0.31988127  0.43798655  0.85270498  1  0  -0.056501  0  3.718765  0  0  -0.082806  0  3.97164  0  0  -0.082563  0  3.99104  0  0  -0.079548  -0.082815  0  3.958495  0
C  C40  1  0.81561068  0.14864033  0.75626414  1  0  -0.083709  0  3.716674  0  0  -0.068804  0  3.956145  0  0  -0.076725  0  3.978459  0  0  -0.0174  -0.063625  0  3.941253  0
C  C41  1  0.68440927  0.64862242  0.24373809  1  0  -0.083701  0  3.716716  0  0  -0.068769  0  3.956133  0  0  -0.076696  0  3.978446  0  0  -0.017406  -0.063584  0  3.941237  0
C  C42  1  0.18440117  0.85136133  0.24374260  1  0  -0.083942  0  3.716944  0  0  -0.068985  0  3.95637  0  0  -0.076916  0  3.978688  0  0  -0.017408  -0.063804  0  3.941474  0
C  C43  1  0.31559208  0.35137696  0.75625211  1  0  -0.083829  0  3.716777  0  0  -0.068921  0  3.956186  0  0  -0.076844  0  3.978498  0  0  -0.017386  -0.063741  0  3.941293  0
C  C44  1  0.78788266  0.06937222  0.64501211  1  0  0.694774  0  3.867976  0  0  0.628017  0  4.181479  0  0  0.665185  0  4.170868  0  0  0.220172  0.602595  0  4.18797  0
C  C45  1  0.71213288  0.56936125  0.35499371  1  0  0.694589  0  3.868345  0  0  0.62791  0  4.181728  0  0  0.665077  0  4.171108  0  0  0.220084  0.60248  0  4.188214  0
C  C46  1  0.21212260  0.93062262  0.35499507  1  0  0.694481  0  3.868541  0  0  0.627832  0  4.181869  0  0  0.665001  0  4.171263  0  0  0.220009  0.602404  0  4.188351  0
C  C47  1  0.28787505  0.43063813  0.64499767  1  0  0.694752  0  3.868527  0  0  0.628108  0  4.181838  0  0  0.665274  0  4.171211  0  0  0.220135  0.60268  0  4.188329  0
S  S48  1  0.82917963  0.43181290  0.64856636  1  0  0.729486  0  4.100282  0  0  0.652542  0  4.564547  0  0  0.68315  0  4.556527  0  0  0.345612  0.631131  0  4.569328  0
S  S49  1  0.67081174  0.93178021  0.35143405  1  0  0.729319  0  4.100246  0  0  0.652403  0  4.564499  0  0  0.682997  0  4.556497  0  0  0.345699  0.630988  0  4.569271  0
S  S50  1  0.17081379  0.56819102  0.35142811  1  0  0.729379  0  4.100533  0  0  0.652492  0  4.564806  0  0  0.683097  0  4.55679  0  0  0.345653  0.631079  0  4.569581  0
S  S51  1  0.32915793  0.06821010  0.64855943  1  0  0.729253  0  4.101331  0  0  0.652282  0  4.565598  0  0  0.682889  0  4.557592  0  0  0.345596  0.630871  0  4.570372  0
O  O52  1  0.62331364  0.43755248  0.59843179  1  0  -0.717806  0  2.089977  0  0  -0.6234  0  2.354609  0  0  -0.652918  0  2.345574  0  0  -0.331114  -0.601942  0  2.359486  0
O  O53  1  0.87669109  0.93751397  0.40159129  1  0  -0.717723  0  2.089745  0  0  -0.623373  0  2.354502  0  0  -0.652825  0  2.345319  0  0  -0.331059  -0.601912  0  2.359375  0
O  O54  1  0.37668111  0.56247414  0.40155642  1  0  -0.717765  0  2.090119  0  0  -0.623422  0  2.354837  0  0  -0.652908  0  2.345725  0  0  -0.331117  -0.60196  0  2.359707  0
O  O55  1  0.12330755  0.06248201  0.59842529  1  0  -0.717655  0  2.090584  0  0  -0.623229  0  2.355235  0  0  -0.652735  0  2.346156  0  0  -0.331003  -0.601769  0  2.360102  0
O  O56  1  0.88081138  0.58575430  0.70344870  1  0  -0.687686  0  1.977716  0  0  -0.620409  0  2.239298  0  0  -0.647879  0  2.232135  0  0  -0.341881  -0.600662  0  2.243499  0
O  O57  1  0.61922457  0.08573179  0.29656298  1  0  -0.687607  0  1.977807  0  0  -0.620308  0  2.239293  0  0  -0.647776  0  2.232132  0  0  -0.342003  -0.600564  0  2.243499  0
O  O58  1  0.11920445  0.41424167  0.29655061  1  0  -0.687655  0  1.977853  0  0  -0.620395  0  2.23944  0  0  -0.647865  0  2.232273  0  0  -0.341938  -0.600647  0  2.243639  0
O  O59  1  0.38077278  0.91426873  0.70343790  1  0  -0.687601  0  1.978138  0  0  -0.620264  0  2.239582  0  0  -0.647727  0  2.232412  0  0  -0.341946  -0.600528  0  2.243802  0
O  O60  1  0.75143298  0.14969879  0.55491960  1  0  -0.728922  0  2.177095  0  0  -0.650597  0  2.437994  0  0  -0.682244  0  2.430425  0  0  -0.294228  -0.628244  0  2.442538  0
O  O61  1  0.74858304  0.64969223  0.44508842  1  0  -0.728876  0  2.177158  0  0  -0.650583  0  2.437985  0  0  -0.682228  0  2.430418  0  0  -0.294251  -0.628228  0  2.442532  0
O  O62  1  0.24855644  0.85029265  0.44508801  1  0  -0.728675  0  2.177098  0  0  -0.650364  0  2.437904  0  0  -0.68201  0  2.430338  0  0  -0.294125  -0.628009  0  2.442446  0
O  O63  1  0.25143544  0.35031397  0.55490973  1  0  -0.728951  0  2.177483  0  0  -0.650696  0  2.438334  0  0  -0.682336  0  2.430762  0  0  -0.294227  -0.628338  0  2.442879  0
O  O64  1  0.80149406  0.92472156  0.64588043  1  0  -0.70537  0  2.071605  0  0  -0.628823  0  2.32768  0  0  -0.659705  0  2.318447  0  0  -0.296094  -0.606946  0  2.333362  0
O  O65  1  0.69851416  0.42470806  0.35412961  1  0  -0.70531  0  2.071754  0  0  -0.628746  0  2.327671  0  0  -0.659668  0  2.318541  0  0  -0.296041  -0.606897  0  2.333432  0
O  O66  1  0.19850459  0.07527896  0.35413126  1  0  -0.705267  0  2.071676  0  0  -0.628749  0  2.327654  0  0  -0.659646  0  2.31845  0  0  -0.296045  -0.606899  0  2.33341  0
O  O67  1  0.30149508  0.57528905  0.64587095  1  0  -0.70533  0  2.071897  0  0  -0.62878  0  2.327805  0  0  -0.659699  0  2.318664  0  0  -0.296089  -0.606932  0  2.333568  0
