# generated using pymatgen
data_CoH4C4O5
_symmetry_space_group_name_H-M   'P 1'
_cell_length_a   5.82441335
_cell_length_b   8.06694104
_cell_length_c   11.20023341
_cell_angle_alpha   89.98737227
_cell_angle_beta   90.00755455
_cell_angle_gamma   90.02383268
_symmetry_Int_Tables_number   1
_chemical_formula_structural   CoH4C4O5
_chemical_formula_sum   'Co4 H16 C16 O20'
_cell_volume   526.24513336
_cell_formula_units_Z   4
loop_
 _symmetry_equiv_pos_site_id
 _symmetry_equiv_pos_as_xyz
  1  'x, y, z'
loop_
 _atom_site_type_symbol
 _atom_site_label
 _atom_site_symmetry_multiplicity
 _atom_site_fract_x
 _atom_site_fract_y
 _atom_site_fract_z
 _atom_site_occupancy
 _atom_site_hle17_ddec_charge
 _atom_site_hle17_ddec_spin_density
 _atom_site_hle17_ddec_sum_bond_order
 _atom_site_hle17_magmom
 _atom_site_hse06_10hf_ddec_charge
 _atom_site_hse06_10hf_ddec_spin_density
 _atom_site_hse06_10hf_ddec_sum_bond_order
 _atom_site_hse06_10hf_magmom
 _atom_site_hse06_ddec_charge
 _atom_site_hse06_ddec_spin_density
 _atom_site_hse06_ddec_sum_bond_order
 _atom_site_hse06_magmom
 _atom_site_pbe_cm5_charge
 _atom_site_pbe_ddec_charge
 _atom_site_pbe_ddec_spin_density
 _atom_site_pbe_ddec_sum_bond_order
 _atom_site_pbe_magmom
Co  Co0  1  0.79110171  0.11459853  0.98168384  1  1.086543  2.816023  1.839948  2.595  1.059243  2.82119  2.234646  2.664  1.137673  2.877767  2.164457  2.74  0.654364  0.992362  2.750315  2.289093  2.576
Co  Co1  1  0.70891645  0.88539082  0.48170279  1  1.086439  -2.815902  1.839488  -2.595  1.059122  -2.821195  2.234267  -2.664  1.137576  -2.87777  2.164087  -2.74  0.654269  0.992176  -2.750317  2.288765  -2.576
Co  Co2  1  0.20887116  0.61459453  0.51824330  1  1.086457  2.815942  1.839855  2.595  1.059099  2.821309  2.234583  2.664  1.137555  2.877846  2.16441  2.74  0.654168  0.992215  2.750482  2.289004  2.576
Co  Co3  1  0.29106190  0.38543632  0.01829387  1  1.086243  -2.816043  1.840791  -2.595  1.058862  -2.821256  2.235657  -2.664  1.137287  -2.87781  2.165474  -2.74  0.654194  0.991932  -2.750411  2.290177  -2.576
H  H4  1  0.73821014  0.75098783  0.77714785  1  0.119208  0.000369  0.902307  0.001  0.127909  0.000231  0.963456  0.0  0.130952  0.000128  0.960858  0.0  0.116417  0.125739  0.000407  0.965416  0.001
H  H5  1  0.76188990  0.24893845  0.27703928  1  0.119239  -0.00037  0.902296  -0.001  0.127875  -0.000232  0.96345  0.0  0.130883  -0.000128  0.960901  0.0  0.116387  0.125745  -0.000408  0.965371  -0.001
H  H6  1  0.26190048  0.25117613  0.72290882  1  0.119168  0.00037  0.902368  0.001  0.127712  0.000231  0.963786  0.0  0.13074  0.000128  0.961213  0.0  0.116291  0.125546  0.000408  0.965768  0.001
H  H7  1  0.23848122  0.74895138  0.22266448  1  0.11922  -0.00037  0.90263  -0.001  0.127736  -0.000231  0.963746  0.0  0.130802  -0.000128  0.961115  0.0  0.116294  0.125582  -0.000408  0.965691  -0.001
H  H8  1  0.98817866  0.85003125  0.71835283  1  0.110115  7.6e-05  0.94206  0.0  0.116893  0.000159  1.011068  0.0  0.118988  0.000156  1.009215  0.0  0.118448  0.115301  0.000116  1.012714  0.0
H  H9  1  0.51180983  0.15002035  0.21826799  1  0.110114  -7.6e-05  0.942386  0.0  0.116743  -0.000159  1.011513  0.0  0.118847  -0.000157  1.009648  0.0  0.118323  0.115151  -0.000116  1.01317  0.0
H  H10  1  0.01179789  0.34979746  0.78170290  1  0.109965  7.8e-05  0.942398  0.0  0.116772  0.00016  1.011432  0.0  0.118867  0.000157  1.009578  0.0  0.118354  0.115181  0.000117  1.013092  0.0
H  H11  1  0.48829017  0.65010793  0.28167600  1  0.110195  -7.7e-05  0.942433  0.0  0.116969  -0.00016  1.011267  0.0  0.119063  -0.000158  1.009411  0.0  0.118461  0.115375  -0.000117  1.012913  0.0
H  H12  1  0.25136910  0.83451571  0.84129504  1  0.117473  0.000255  0.925027  0.0  0.129991  0.000182  0.980934  0.0  0.132768  9.8e-05  0.979159  0.0  0.120445  0.12764  0.000267  0.982794  0.0
H  H13  1  0.24864371  0.16570665  0.34124295  1  0.11741  -0.000259  0.925599  0.0  0.130173  -0.000185  0.981265  0.0  0.132894  -0.0001  0.979484  0.0  0.120637  0.127886  -0.000269  0.983076  0.0
H  H14  1  0.74844861  0.33410413  0.65872662  1  0.117396  0.000256  0.926045  0.0  0.130213  0.000183  0.981685  0.0  0.132955  9.9e-05  0.979908  0.0  0.120669  0.127919  0.000267  0.983504  0.0
H  H15  1  0.75179196  0.66555987  0.15874315  1  0.117475  -0.000255  0.925461  0.0  0.130051  -0.000183  0.981335  0.0  0.132795  -9.9e-05  0.979548  0.0  0.120585  0.127742  -0.000267  0.983175  0.0
H  H16  1  0.17931265  0.76766537  0.98711918  1  0.122516  0.000364  0.948545  0.001  0.122957  0.000375  1.020908  0.001  0.126936  0.000299  1.017407  0.0  0.117331  0.120035  0.000508  1.023566  0.001
H  H17  1  0.32081567  0.23238469  0.48707079  1  0.122587  -0.000366  0.948466  -0.001  0.123196  -0.000375  1.020707  -0.001  0.127132  -0.000299  1.017184  0.0  0.117475  0.120303  -0.000508  1.023382  -0.001
H  H18  1  0.82032901  0.26772178  0.51285619  1  0.122168  0.000362  0.948804  0.0  0.12284  0.000374  1.020898  0.001  0.126775  0.000297  1.01738  0.0  0.117355  0.119959  0.000507  1.023541  0.001
H  H19  1  0.67972225  0.73226079  0.01289729  1  0.122266  -0.000364  0.948767  -0.001  0.122827  -0.000376  1.020946  -0.001  0.126767  -0.000299  1.017421  0.0  0.117403  0.119952  -0.000511  1.023585  -0.001
C  C20  1  0.69790430  0.01031551  0.73842023  1  0.686953  -0.002054  3.820908  -0.002  0.644181  -0.001503  4.127679  -0.001  0.681362  -0.001131  4.120205  -0.001  0.218947  0.616838  -0.001944  4.132397  -0.002
C  C21  1  0.80197954  0.98956274  0.23843011  1  0.686758  0.00206  3.822509  0.002  0.643941  0.001504  4.129177  0.001  0.681102  0.001131  4.121708  0.001  0.218653  0.616605  0.001944  4.133901  0.002
C  C22  1  0.30190069  0.51057427  0.76158283  1  0.685423  -0.002046  3.822109  -0.002  0.643244  -0.001494  4.128051  -0.001  0.68041  -0.001125  4.120569  -0.001  0.218153  0.61591  -0.001929  4.132768  -0.002
C  C23  1  0.19792291  0.48960236  0.26153348  1  0.686249  0.002054  3.822392  0.002  0.643072  0.001502  4.129665  0.001  0.680241  0.00113  4.122212  0.001  0.218424  0.615733  0.001942  4.134364  0.002
C  C24  1  0.84258687  0.86486452  0.77984820  1  -0.086476  0.001303  3.590867  0.001  -0.143723  0.001464  3.850629  0.001  -0.141318  0.001007  3.851376  0.001  -0.066993  -0.145165  0.001992  3.849387  0.002
C  C25  1  0.65740059  0.13511547  0.27978970  1  -0.086676  -0.001307  3.590846  -0.001  -0.143582  -0.001463  3.850569  -0.001  -0.141153  -0.001005  3.851346  -0.001  -0.066941  -0.145075  -0.001992  3.849336  -0.002
C  C26  1  0.15734038  0.36490118  0.72018186  1  -0.08596  0.001293  3.589912  0.001  -0.143444  0.001455  3.850141  0.001  -0.141023  0.000999  3.850894  0.001  -0.067011  -0.144923  0.001982  3.848959  0.002
C  C27  1  0.34274700  0.63510062  0.22013084  1  -0.086869  -0.001306  3.591859  -0.001  -0.143521  -0.001466  3.850779  -0.001  -0.141132  -0.001009  3.851564  -0.001  -0.066935  -0.144966  -0.001995  3.849524  -0.002
C  C28  1  0.15949459  0.86966236  0.92344546  1  -0.085683  -0.000923  3.583854  -0.002  -0.136071  -3.2e-05  3.828828  -0.001  -0.135207  -0.000245  3.829108  -0.001  -0.068892  -0.136685  0.000167  3.829251  -0.001
C  C29  1  0.34052945  0.13042523  0.42338376  1  -0.085768  0.000934  3.583671  0.002  -0.13645  3.6e-05  3.829032  0.001  -0.135363  0.000247  3.829061  0.001  -0.069172  -0.137237  -0.000163  3.829604  0.001
C  C30  1  0.84030846  0.36951333  0.57663294  1  -0.085392  -0.000916  3.584551  -0.002  -0.136186  -3.1e-05  3.830147  -0.001  -0.135122  -0.000246  3.830197  -0.001  -0.069186  -0.136957  0.000168  3.830712  -0.001
C  C31  1  0.65977152  0.63034243  0.07662326  1  -0.084942  0.000908  3.58407  0.002  -0.135581  2.6e-05  3.829212  0.001  -0.134482  0.000238  3.829268  0.001  -0.068926  -0.136364  -0.000176  3.829783  0.001
C  C32  1  0.27073920  0.02425493  0.97287599  1  0.70999  0.002443  3.794239  0.004  0.664534  0.00394  4.100106  0.006  0.704802  0.003031  4.087351  0.005  0.224083  0.633985  0.005015  4.10934  0.007
C  C33  1  0.22922742  0.97580431  0.47281457  1  0.710001  -0.002459  3.793084  -0.004  0.664295  -0.003953  4.099626  -0.006  0.704517  -0.00304  4.086865  -0.005  0.224047  0.633784  -0.005037  4.108862  -0.007
C  C34  1  0.72901234  0.52412355  0.52730607  1  0.710745  0.002418  3.792834  0.004  0.665069  0.003922  4.099342  0.006  0.705282  0.003018  4.086577  0.005  0.224507  0.634536  0.004996  4.108572  0.007
C  C35  1  0.77099118  0.47580763  0.02720753  1  0.709737  -0.002441  3.794716  -0.004  0.664254  -0.003946  4.10079  -0.006  0.704401  -0.003037  4.088139  -0.005  0.22425  0.633719  -0.005024  4.110019  -0.007
O  O36  1  0.67338537  0.13386272  0.80825789  1  -0.612546  0.034169  2.04176  0.058  -0.58477  0.024414  2.312811  0.038  -0.621714  0.019903  2.301527  0.03  -0.304957  -0.555836  0.027979  2.320565  0.044
O  O37  1  0.82646190  0.86609762  0.30832346  1  -0.612277  -0.034154  2.04345  -0.058  -0.58441  -0.024405  2.31453  -0.038  -0.621334  -0.019898  2.303237  -0.03  -0.304645  -0.555488  -0.027966  2.322305  -0.044
O  O38  1  0.32633142  0.63407982  0.69168395  1  -0.611898  0.034166  2.042567  0.058  -0.583882  0.024409  2.312854  0.038  -0.620806  0.019901  2.301567  0.03  -0.304248  -0.554971  0.027971  2.320602  0.044
O  O39  1  0.17347038  0.36602586  0.19172456  1  -0.611696  -0.034153  2.042376  -0.058  -0.583817  -0.024404  2.313568  -0.038  -0.620723  -0.019898  2.302263  -0.03  -0.30446  -0.554902  -0.027957  2.321306  -0.044
O  O40  1  0.60586192  0.00208900  0.63604588  1  -0.61259  -0.029778  2.072126  -0.049  -0.578099  -0.023388  2.345564  -0.035  -0.615415  -0.019025  2.335307  -0.027  -0.309379  -0.548746  -0.027231  2.351921  -0.041
O  O41  1  0.89399332  0.99781846  0.13605872  1  -0.612772  0.029787  2.072944  0.049  -0.57832  0.023404  2.34648  0.035  -0.615631  0.019038  2.336219  0.027  -0.309502  -0.548977  0.027253  2.352836  0.041
O  O42  1  0.39400331  0.50234350  0.86392816  1  -0.612104  -0.029756  2.073076  -0.049  -0.577993  -0.023387  2.346506  -0.035  -0.615276  -0.019024  2.336221  -0.027  -0.309367  -0.548663  -0.027227  2.352875  -0.041
O  O43  1  0.10572014  0.49792663  0.36384191  1  -0.612624  0.029749  2.072527  0.049  -0.578004  0.023365  2.34591  0.035  -0.615289  0.019004  2.335622  0.027  -0.309505  -0.548694  0.02721  2.352281  0.041
O  O44  1  0.15791728  0.16230837  0.96590132  1  -0.66708  -0.005957  2.208489  -0.007  -0.640374  -0.003331  2.521574  -0.002  -0.680792  -0.002415  2.501476  -0.001  -0.304697  -0.607474  -0.004649  2.534696  -0.004
O  O45  1  0.34195134  0.83772816  0.46570292  1  -0.666977  0.006013  2.207661  0.007  -0.640203  0.003357  2.520864  0.002  -0.680658  0.002437  2.500867  0.001  -0.304661  -0.607306  0.004673  2.533935  0.004
O  O46  1  0.84181841  0.66220453  0.53425375  1  -0.667457  -0.006031  2.206852  -0.007  -0.640634  -0.003371  2.520057  -0.002  -0.681033  -0.002447  2.499984  -0.001  -0.305014  -0.607742  -0.004693  2.533104  -0.004
O  O47  1  0.65808049  0.33775184  0.03412920  1  -0.666894  0.006016  2.208252  0.007  -0.640067  0.00336  2.52115  0.002  -0.680436  0.002439  2.501135  0.001  -0.304658  -0.607166  0.004678  2.534177  0.004
O  O48  1  0.46801544  0.00749082  0.01581542  1  -0.611528  0.024261  2.088956  0.042  -0.577691  0.0196  2.358585  0.03  -0.610441  0.016038  2.345048  0.024  -0.30093  -0.55222  0.023313  2.367676  0.036
O  O49  1  0.03205092  0.99256804  0.51590847  1  -0.611513  -0.024292  2.087547  -0.042  -0.577628  -0.019614  2.357356  -0.03  -0.610346  -0.016043  2.343756  -0.024  -0.300854  -0.552145  -0.023341  2.366423  -0.036
O  O50  1  0.53171135  0.50736195  0.48433307  1  -0.61188  0.024377  2.088469  0.042  -0.577997  0.019679  2.358324  0.03  -0.610794  0.016102  2.344815  0.024  -0.30097  -0.552495  0.023409  2.367389  0.036
O  O51  1  0.96830062  0.49260679  0.98425524  1  -0.611726  -0.024354  2.08912  -0.042  -0.577898  -0.019658  2.358905  -0.03  -0.61067  -0.016084  2.345427  -0.024  -0.301014  -0.552386  -0.023386  2.367978  -0.036
O  O52  1  0.92038072  0.89434978  0.89938249  1  -0.276598  0.024766  2.473708  0.043  -0.204728  0.020928  2.724216  0.034  -0.228365  0.017157  2.728628  0.028  -0.214009  -0.18549  0.025066  2.719226  0.041
O  O53  1  0.57965705  0.10570746  0.39934239  1  -0.276475  -0.024784  2.474026  -0.043  -0.204853  -0.020938  2.724741  -0.034  -0.228567  -0.017162  2.729099  -0.028  -0.214055  -0.185551  -0.025082  2.719791  -0.041
O  O54  1  0.07944417  0.39420400  0.60063118  1  -0.276701  0.024776  2.473338  0.043  -0.204881  0.020934  2.724265  0.034  -0.228592  0.01716  2.728655  0.028  -0.213785  -0.185577  0.025082  2.719305  0.041
O  O55  1  0.42063921  0.60555445  0.10063920  1  -0.276948  -0.024798  2.474241  -0.043  -0.204969  -0.020957  2.724634  -0.034  -0.22869  -0.017177  2.729011  -0.028  -0.21417  -0.185652  -0.025112  2.719687  -0.041
