# generated using pymatgen
data_ZnH8C10(N2O3)2
_symmetry_space_group_name_H-M   'P 1'
_cell_length_a   6.60763492
_cell_length_b   9.74497298
_cell_length_c   10.43929042
_cell_angle_alpha   103.55611861
_cell_angle_beta   89.99957363
_cell_angle_gamma   90.00104157
_symmetry_Int_Tables_number   1
_chemical_formula_structural   ZnH8C10(N2O3)2
_chemical_formula_sum   'Zn2 H16 C20 N8 O12'
_cell_volume   653.47177048
_cell_formula_units_Z   2
loop_
 _symmetry_equiv_pos_site_id
 _symmetry_equiv_pos_as_xyz
  1  'x, y, z'
loop_
 _atom_site_type_symbol
 _atom_site_label
 _atom_site_symmetry_multiplicity
 _atom_site_fract_x
 _atom_site_fract_y
 _atom_site_fract_z
 _atom_site_occupancy
 _atom_site_pbe_bader_spin_density
 _atom_site_pbe_cm5_charge
 _atom_site_pbe_ddec_charge
 _atom_site_pbe_ddec_spin_density
 _atom_site_pbe_ddec_sum_bond_order
 _atom_site_pbe_magmom
Zn  Zn0  1  0.00000279  0.50000183  0.99999884  1  0  0.718804  1.029029  0  2.246753  0
Zn  Zn1  1  0.50000126  0.50000109  0.50000040  1  0  0.718815  1.02901  0  2.246733  0
H  H2  1  0.88613441  0.31773867  0.13482925  1  0  0.292631  0.373325  0  0.975305  0
H  H3  1  0.38614363  0.68225816  0.36516893  1  0  0.292596  0.373179  0  0.975443  0
H  H4  1  0.11387112  0.68225820  0.86516857  1  0  0.292584  0.373218  0  0.975404  0
H  H5  1  0.61386645  0.31774616  0.63483327  1  0  0.292615  0.373238  0  0.975388  0
H  H6  1  0.68254352  0.36160950  0.08026652  1  0  0.303228  0.393952  0  0.933788  0
H  H7  1  0.18254799  0.63839226  0.41973272  1  0  0.303211  0.393848  0  0.933903  0
H  H8  1  0.31745900  0.63839269  0.91973429  1  0  0.303188  0.393916  0  0.933843  0
H  H9  1  0.81745604  0.36161515  0.58026627  1  0  0.303211  0.393853  0  0.933899  0
H  H10  1  0.67540386  0.62421640  0.91363594  1  0  0.295703  0.392938  0  0.940187  0
H  H11  1  0.17540649  0.37578572  0.58637376  1  0  0.295746  0.392968  0  0.940195  0
H  H12  1  0.32460016  0.37577635  0.08636585  1  0  0.295733  0.39293  0  0.940198  0
H  H13  1  0.82460510  0.62422285  0.41363024  1  0  0.295768  0.393057  0  0.940066  0
H  H14  1  0.73542731  0.49409247  0.79201877  1  0  0.293958  0.402769  0  0.919748  0
H  H15  1  0.23542903  0.50591037  0.70799078  1  0  0.293919  0.402719  0  0.91985  0
H  H16  1  0.26457672  0.50590864  0.20798087  1  0  0.293956  0.402755  0  0.91981  0
H  H17  1  0.76457651  0.49409198  0.29201773  1  0  0.293961  0.40279  0  0.919756  0
C  C18  1  0.00589799  0.10772313  0.50565231  1  0  0.125603  0.310929  0  4.141963  0
C  C19  1  0.50589091  0.89227993  0.99434981  1  0  0.125626  0.311104  0  4.142027  0
C  C20  1  0.99409090  0.89228115  0.49434796  1  0  0.125546  0.310911  0  4.141981  0
C  C21  1  0.49408134  0.10772013  0.00564961  1  0  0.125612  0.311042  0  4.142452  0
C  C22  1  0.99365821  0.98040979  0.39781880  1  0  0.000391  -0.103431  0  3.932723  0
C  C23  1  0.49364533  0.01958612  0.10217387  1  0  0.000405  -0.103552  0  3.932985  0
C  C24  1  0.00632766  0.01958907  0.60217367  1  0  0.000499  -0.10317  0  3.932463  0
C  C25  1  0.50632086  0.98040241  0.89782707  1  0  0.000498  -0.103247  0  3.932465  0
C  C26  1  0.98517748  0.95378424  0.26049202  1  0  -0.025561  -0.111702  0  4.229071  0
C  C27  1  0.48516992  0.04621804  0.23950868  1  0  -0.025542  -0.111689  0  4.228924  0
C  C28  1  0.01481746  0.04622223  0.73951253  1  0  -0.02556  -0.111832  0  4.229279  0
C  C29  1  0.51482351  0.95377974  0.76048262  1  0  -0.0256  -0.111786  0  4.229082  0
C  C30  1  0.97166593  0.81451530  0.18519977  1  0  0.220218  0.331043  0  4.004668  0
C  C31  1  0.47166575  0.18548893  0.31480139  1  0  0.220164  0.330986  0  4.005047  0
C  C32  1  0.02833355  0.18548370  0.81479944  1  0  0.220161  0.330996  0  4.004946  0
C  C33  1  0.52833828  0.81451533  0.68519792  1  0  0.220235  0.33103  0  4.00497  0
C  C34  1  0.98876965  0.06519753  0.19569790  1  0  0.193333  0.276435  0  4.081838  0
C  C35  1  0.48876792  0.93480267  0.30430140  1  0  0.193394  0.276542  0  4.081863  0
C  C36  1  0.01122833  0.93480456  0.80429810  1  0  0.193354  0.276483  0  4.081846  0
C  C37  1  0.51123308  0.06519544  0.69570529  1  0  0.19336  0.276389  0  4.081829  0
N  N38  1  0.95946520  0.69771516  0.12506357  1  0  -0.323003  -0.39767  0  3.126676  0
N  N39  1  0.45946743  0.30227951  0.37493955  1  0  -0.322976  -0.397614  0  3.127067  0
N  N40  1  0.04054942  0.30228599  0.87493798  1  0  -0.323041  -0.397695  0  3.126541  0
N  N41  1  0.54054416  0.69772048  0.62505698  1  0  -0.323071  -0.397689  0  3.126805  0
N  N42  1  0.99324628  0.15994181  0.14462013  1  0  -0.31007  -0.395998  0  2.920422  0
N  N43  1  0.49325214  0.84005725  0.35537221  1  0  -0.310142  -0.396058  0  2.920501  0
N  N44  1  0.00676380  0.84005602  0.85537310  1  0  -0.31015  -0.396071  0  2.920258  0
N  N45  1  0.50675794  0.15995239  0.64463297  1  0  -0.310158  -0.396015  0  2.920093  0
O  O46  1  0.01172019  0.23708755  0.51064379  1  0  -0.292601  -0.462443  0  2.284255  0
O  O47  1  0.51171433  0.76290509  0.98935907  1  0  -0.292662  -0.462605  0  2.283974  0
O  O48  1  0.98828232  0.76291354  0.48935488  1  0  -0.292574  -0.462461  0  2.284217  0
O  O49  1  0.48827154  0.23707812  0.01063888  1  0  -0.292579  -0.462436  0  2.284686  0
O  O50  1  0.80746295  0.40320049  0.12613303  1  0  -0.551017  -0.750394  0  2.151988  0
O  O51  1  0.30746530  0.59679542  0.37386631  1  0  -0.551004  -0.750164  0  2.152095  0
O  O52  1  0.19253805  0.59679748  0.87386692  1  0  -0.550969  -0.750255  0  2.152045  0
O  O53  1  0.69253570  0.40320679  0.62613546  1  0  -0.551  -0.750223  0  2.152099  0
O  O54  1  0.74892685  0.53356124  0.88838221  1  0  -0.582155  -0.774262  0  2.105542  0
O  O55  1  0.24892704  0.46643541  0.61162506  1  0  -0.582164  -0.774257  0  2.105667  0
O  O56  1  0.25107718  0.46643890  0.11162106  1  0  -0.582188  -0.774245  0  2.105468  0
O  O57  1  0.75108001  0.53356471  0.38837724  1  0  -0.582242  -0.774419  0  2.105419  0
