# generated using pymatgen
data_ZnH5C14N(O3F)2
_symmetry_space_group_name_H-M   'P 1'
_cell_length_a   7.56500820
_cell_length_b   10.84998197
_cell_length_c   34.98952177
_cell_angle_alpha   89.84692823
_cell_angle_beta   91.33757589
_cell_angle_gamma   89.65078698
_symmetry_Int_Tables_number   1
_chemical_formula_structural   ZnH5C14N(O3F)2
_chemical_formula_sum   'Zn4 H20 C56 N4 O24 F8'
_cell_volume   2871.09977171
_cell_formula_units_Z   4
loop_
 _symmetry_equiv_pos_site_id
 _symmetry_equiv_pos_as_xyz
  1  'x, y, z'
loop_
 _atom_site_type_symbol
 _atom_site_label
 _atom_site_symmetry_multiplicity
 _atom_site_fract_x
 _atom_site_fract_y
 _atom_site_fract_z
 _atom_site_occupancy
 _atom_site_pbe_bader_charge
 _atom_site_pbe_bader_spin_density
 _atom_site_pbe_cm5_charge
 _atom_site_pbe_ddec_charge
 _atom_site_pbe_ddec_spin_density
 _atom_site_pbe_ddec_sum_bond_order
 _atom_site_pbe_magmom
Zn  Zn0  1  0.71099689  0.99504126  0.50122484  1  1.317397  0  0.73633  0.976082  0  2.138125  0
Zn  Zn1  1  0.34810665  0.99663531  0.49937085  1  1.313999  0  0.731823  0.963438  0  2.088206  0
Zn  Zn2  1  0.19879358  0.99224260  0.99872290  1  1.315762  0  0.736118  0.975617  0  2.137874  0
Zn  Zn3  1  0.56151007  0.99074854  0.00053779  1  1.315889  0  0.73187  0.963586  0  2.086339  0
H  H4  1  0.72280818  0.95833629  0.87751083  1  0.174712  0  0.11211  0.127335  0  1.03181  0
H  H5  1  0.69815493  0.95351914  0.80696343  1  0.071487  0  0.106973  0.106824  0  0.995981  0
H  H6  1  0.14243505  0.04394325  0.81339122  1  0.106969  0  0.115084  0.124322  0  0.983603  0
H  H7  1  0.76527478  0.04489798  0.68665868  1  0.087484  0  0.114837  0.124085  0  0.984047  0
H  H8  1  0.21106065  0.95403550  0.69278768  1  0.099254  0  0.1071  0.107133  0  0.994864  0
H  H9  1  0.18712047  0.96021408  0.62223107  1  0.160978  0  0.112038  0.127392  0  1.031066  0
H  H10  1  0.25191645  0.00089622  0.75343836  1  0.063437  0  0.104218  0.099213  0  1.000734  0
H  H11  1  0.65596844  0.00072916  0.74650151  1  0.084597  0  0.104018  0.099123  0  1.001496  0
H  H12  1  0.71726372  0.02105464  0.12378649  1  0.152679  0  0.109573  0.12239  0  1.032353  0
H  H13  1  0.69845881  0.02988008  0.19432298  1  0.054967  0  0.104317  0.103302  0  1.001208  0
H  H14  1  0.13516528  0.97035453  0.18451058  1  0.108735  0  0.113635  0.121859  0  0.986387  0
H  H15  1  0.77414999  0.97323407  0.31561498  1  0.073187  0  0.113246  0.120955  0  0.987174  0
H  H16  1  0.20955844  0.03122215  0.30548348  1  0.055998  0  0.104337  0.103529  0  1.001782  0
H  H17  1  0.19086496  0.02429968  0.37608389  1  0.155103  0  0.109591  0.121621  0  1.032527  0
H  H18  1  0.25218169  0.00020751  0.24488804  1  0.058623  0  0.102749  0.09749  0  1.004575  0
H  H19  1  0.65654081  0.00187774  0.25507604  1  0.031646  0  0.103037  0.097319  0  1.003318  0
H  H20  1  0.39592499  0.72807797  0.56010266  1  0.101353  0  0.111569  0.146184  0  1.003298  0
H  H21  1  0.39979075  0.26841816  0.56270634  1  0.135841  0  0.112288  0.14573  0  1.003111  0
H  H22  1  0.51405629  0.72338786  0.93973906  1  0.086814  0  0.111551  0.146141  0  1.002933  0
H  H23  1  0.50849170  0.26382591  0.93703834  1  0.081416  0  0.112399  0.145968  0  1.002899  0
C  C24  1  0.59919478  0.76406104  0.50185489  1  1.566542  0  0.229038  0.638717  0  4.116113  0
C  C25  1  0.45088824  0.99776325  0.57186707  1  1.545704  0  0.217594  0.593352  0  4.170354  0
C  C26  1  0.60015870  0.22680660  0.50389129  1  1.610139  0  0.228189  0.637285  0  4.114681  0
C  C27  1  0.45988397  0.99760311  0.42830960  1  1.556686  0  0.224225  0.609368  0  4.14115  0
C  C28  1  0.31141784  0.76025829  0.99813175  1  1.546575  0  0.22865  0.63796  0  4.114504  0
C  C29  1  0.45870579  0.99430086  0.92803095  1  1.555227  0  0.217347  0.592316  0  4.169732  0
C  C30  1  0.30947311  0.22311834  0.99605575  1  1.550383  0  0.227986  0.63764  0  4.117067  0
C  C31  1  0.44878827  0.99284462  0.07166219  1  1.549137  0  0.224601  0.609882  0  4.139125  0
C  C32  1  0.44977059  0.00335633  0.88558339  1  0.047973  0  -0.006925  -0.077044  0  3.933038  0
C  C33  1  0.59670619  0.97793661  0.86306452  1  -0.029493  0  -0.067711  -0.061791  0  3.934868  0
C  C34  1  0.58175284  0.97615823  0.82340762  1  -0.042945  0  -0.077556  -0.120462  0  3.920164  0
C  C35  1  0.41806756  0.99901191  0.80446369  1  0.029412  0  0.002409  0.138136  0  4.031621  0
C  C36  1  0.27096340  0.02512882  0.82694322  1  -0.004788  0  -0.079257  -0.18872  0  3.940458  0
C  C37  1  0.28865433  0.02847261  0.86635294  1  0.171443  0  0.089048  0.075296  0  3.944437  0
C  C38  1  0.39032440  0.99760930  0.76316663  1  -0.0272  0  -0.081041  -0.11901  0  3.980151  0
C  C39  1  0.51762805  0.99774980  0.73674772  1  -0.117366  0  -0.081287  -0.118925  0  3.980918  0
C  C40  1  0.63717300  0.02633511  0.67304872  1  0.02078  0  -0.078989  -0.187773  0  3.94031  0
C  C41  1  0.49025491  0.99982840  0.69544336  1  0.028422  0  0.002526  0.137103  0  4.03356  0
C  C42  1  0.32716332  0.97727026  0.67642186  1  -0.064999  0  -0.077752  -0.120435  0  3.919976  0
C  C43  1  0.31264387  0.97981259  0.63675605  1  0.028392  0  -0.067214  -0.060908  0  3.933356  0
C  C44  1  0.45932665  0.00585810  0.61431907  1  -0.01071  0  -0.00745  -0.079508  0  3.934175  0
C  C45  1  0.61984076  0.03049012  0.63363057  1  0.181023  0  0.089071  0.076183  0  3.942688  0
C  C46  1  0.43982234  0.99049188  0.11413186  1  0.07736  0  -0.003447  -0.069297  0  3.913901  0
C  C47  1  0.59068390  0.00877914  0.13760482  1  0.057625  0  -0.067895  -0.060482  0  3.929766  0
C  C48  1  0.57891365  0.01331318  0.17714844  1  -0.059865  0  -0.080745  -0.125316  0  3.930279  0
C  C49  1  0.41492502  0.99973223  0.19512104  1  0.040642  0  0.000751  0.135841  0  4.035933  0
C  C50  1  0.26406959  0.98149964  0.17169292  1  -0.060805  0  -0.080607  -0.190601  0  3.94369  0
C  C51  1  0.27788823  0.97641150  0.13234843  1  0.1324  0  0.090577  0.077475  0  3.939211  0
C  C52  1  0.39010231  0.00256608  0.23624015  1  -0.00682  0  -0.082276  -0.119804  0  3.983133  0
C  C53  1  0.51854650  0.00348712  0.26371323  1  -0.059984  0  -0.082604  -0.119168  0  3.981029  0
C  C54  1  0.64498859  0.98452482  0.32835971  1  -0.011647  0  -0.080289  -0.189475  0  3.944972  0
C  C55  1  0.49375204  0.00175739  0.30484509  1  0.020531  0  0.0009  0.135659  0  4.037237  0
C  C56  1  0.32942651  0.01541930  0.32275453  1  0.031022  0  -0.081078  -0.126775  0  3.933218  0
C  C57  1  0.31770597  0.01190614  0.36231279  1  -0.039318  0  -0.067186  -0.05793  0  3.928247  0
C  C58  1  0.46899353  0.99451122  0.38585941  1  0.011845  0  -0.003991  -0.070774  0  3.913327  0
C  C59  1  0.63128810  0.98035361  0.36771827  1  0.226383  0  0.090356  0.077843  0  3.93802  0
C  C60  1  0.60194911  0.62651244  0.50470630  1  0.103839  0  -0.014371  -0.160568  0  3.9409  0
C  C61  1  0.50067504  0.56306340  0.53257413  1  0.044539  0  0.00147  0.084968  0  3.971149  0
C  C62  1  0.70010764  0.55925600  0.47931196  1  0.558142  0  0.101885  0.16434  0  4.087903  0
C  C63  1  0.40210971  0.62794134  0.56018644  1  0.058178  0  -0.099134  -0.237346  0  3.96719  0
C  C64  1  0.31012879  0.56456587  0.58712998  1  0.429154  0  0.092548  0.188628  0  4.110685  0
C  C65  1  0.60306966  0.36443298  0.50594600  1  0.029575  0  -0.01386  -0.159229  0  3.936218  0
C  C66  1  0.70044605  0.42929144  0.47991789  1  0.479404  0  0.101941  0.166858  0  4.082429  0
C  C67  1  0.50141776  0.43049140  0.53325987  1  0.007065  0  0.003404  0.086421  0  3.964209  0
C  C68  1  0.40379795  0.36846513  0.56156043  1  0.084148  0  -0.096253  -0.229854  0  3.963215  0
C  C69  1  0.31097442  0.43450424  0.58783581  1  0.506779  0  0.093173  0.186613  0  4.109444  0
C  C70  1  0.30860831  0.62275939  0.99531041  1  0.105107  0  -0.015373  -0.162411  0  3.942208  0
C  C71  1  0.40934222  0.55891365  0.96735990  1  0.001523  0  0.002064  0.085743  0  3.970743  0
C  C72  1  0.21063273  0.55599025  0.02076352  1  0.517502  0  0.102493  0.165367  0  4.085951  0
C  C73  1  0.50765534  0.62330937  0.93967635  1  0.086008  0  -0.099589  -0.237573  0  3.967422  0
C  C74  1  0.59890915  0.55948265  0.91264635  1  0.535731  0  0.092056  0.18791  0  4.111693  0
C  C75  1  0.30672935  0.36078618  0.99401484  1  0.090153  0  -0.013729  -0.158981  0  3.938179  0
C  C76  1  0.21009056  0.42603683  0.02015327  1  0.508952  0  0.102585  0.167176  0  4.083126  0
C  C77  1  0.40811329  0.42637750  0.96664471  1  0.109279  0  0.003303  0.086409  0  3.965829  0
C  C78  1  0.50486708  0.36389042  0.93823749  1  0.12638  0  -0.09652  -0.230582  0  3.963661  0
C  C79  1  0.59747531  0.42946683  0.91189746  1  0.380949  0  0.093344  0.187827  0  4.109581  0
N  N80  1  0.12690602  0.06322852  0.88675976  1  0.413683  0  0.060093  0.523827  0  4.240054  0
N  N81  1  0.78113941  0.06549618  0.61326954  1  0.422131  0  0.059154  0.52156  0  4.240395  0
N  N82  1  0.10932902  0.95291780  0.11134907  1  0.411123  0  0.058478  0.518793  0  4.241097  0
N  N83  1  0.80044711  0.95785285  0.38881202  1  0.415956  0  0.057558  0.517522  0  4.242823  0
O  O84  1  0.74959143  0.81867492  0.50227909  1  -1.106373  0  -0.307982  -0.515539  0  2.240845  0
O  O85  1  0.44891687  0.81625657  0.49947806  1  -1.165065  0  -0.303506  -0.560488  0  2.311177  0
O  O86  1  0.29901205  0.99822580  0.55439959  1  -1.118379  0  -0.306481  -0.512228  0  2.217693  0
O  O87  1  0.59798732  0.98877172  0.55541040  1  -1.168787  0  -0.308154  -0.580682  0  2.411072  0
O  O88  1  0.44971037  0.17603078  0.50195260  1  -1.165647  0  -0.302921  -0.560369  0  2.308959  0
O  O89  1  0.75032287  0.17071508  0.50412947  1  -1.108732  0  -0.306647  -0.514757  0  2.249009  0
O  O90  1  0.60694887  0.00185091  0.44645915  1  -1.177126  0  -0.307118  -0.574448  0  2.411435  0
O  O91  1  0.30763270  0.99739211  0.44387866  1  -1.111464  0  -0.302751  -0.506607  0  2.230645  0
O  O92  1  0.16096415  0.81607042  0.99769000  1  -1.11333  0  -0.307359  -0.51475  0  2.239021  0
O  O93  1  0.46165968  0.81121495  0.00048992  1  -1.16446  0  -0.30319  -0.559316  0  2.308284  0
O  O94  1  0.61068217  0.99312566  0.94545584  1  -1.121551  0  -0.306662  -0.512326  0  2.215653  0
O  O95  1  0.31177973  0.98613973  0.94455738  1  -1.170602  0  -0.308218  -0.581177  0  2.412614  0
O  O96  1  0.45994870  0.17103144  0.99798406  1  -1.164139  0  -0.303446  -0.56131  0  2.310983  0
O  O97  1  0.15926749  0.16837307  0.99575254  1  -1.109166  0  -0.306015  -0.514273  0  2.248743  0
O  O98  1  0.30159566  0.99781317  0.05353801  1  -1.172509  0  -0.307311  -0.574338  0  2.40964  0
O  O99  1  0.60097761  0.99128340  0.05608202  1  -1.11191  0  -0.302587  -0.50691  0  2.230627  0
O  O100  1  0.11973966  0.16799771  0.90024162  1  -0.414238  0  -0.117988  -0.305475  0  1.888009  0
O  O101  1  0.00699406  0.98608575  0.88667331  1  -0.459829  0  -0.121726  -0.32183  0  1.932896  0
O  O102  1  0.78641425  0.17032956  0.59964623  1  -0.419953  0  -0.117836  -0.304937  0  1.890077  0
O  O103  1  0.90245176  0.98838020  0.61349079  1  -0.462587  0  -0.120614  -0.32037  0  1.932281  0
O  O104  1  0.08120619  0.84662681  0.10055112  1  -0.412904  0  -0.118262  -0.305107  0  1.891428  0
O  O105  1  0.00467608  0.04097563  0.10872102  1  -0.438371  0  -0.121401  -0.317719  0  1.909149  0
O  O106  1  0.83169547  0.85168776  0.39976727  1  -0.415112  0  -0.117912  -0.304704  0  1.890012  0
O  O107  1  0.90252268  0.04647507  0.39132508  1  -0.460423  0  -0.12052  -0.316541  0  1.910611  0
F  F108  1  0.79351757  0.37085054  0.45285140  1  -0.615792  0  -0.088741  -0.105956  0  1.359874  0
F  F109  1  0.79339991  0.61504994  0.45190255  1  -0.610253  0  -0.084045  -0.098503  0  1.380606  0
F  F110  1  0.21620187  0.62595286  0.61369721  1  -0.626104  0  -0.104034  -0.131391  0  1.325541  0
F  F111  1  0.21841357  0.37609118  0.61512936  1  -0.620659  0  -0.102641  -0.128715  0  1.329682  0
F  F112  1  0.11760979  0.36798313  0.04731931  1  -0.614513  0  -0.089028  -0.106254  0  1.359754  0
F  F113  1  0.11792904  0.61218393  0.04825155  1  -0.611564  0  -0.084549  -0.098913  0  1.380289  0
F  F114  1  0.69266635  0.62042988  0.88603006  1  -0.625241  0  -0.103486  -0.130999  0  1.324978  0
F  F115  1  0.68933432  0.37063442  0.88452301  1  -0.626557  0  -0.102366  -0.128984  0  1.331707  0
