# generated using pymatgen
data_CdH6C5(NO3)2
_symmetry_space_group_name_H-M   'P 1'
_cell_length_a   7.45388706
_cell_length_b   10.49951719
_cell_length_c   11.70585812
_cell_angle_alpha   84.14656788
_cell_angle_beta   71.46917703
_cell_angle_gamma   71.24367567
_symmetry_Int_Tables_number   1
_chemical_formula_structural   CdH6C5(NO3)2
_chemical_formula_sum   'Cd4 H24 C20 N8 O24'
_cell_volume   822.49900664
_cell_formula_units_Z   4
loop_
 _symmetry_equiv_pos_site_id
 _symmetry_equiv_pos_as_xyz
  1  'x, y, z'
loop_
 _atom_site_type_symbol
 _atom_site_label
 _atom_site_symmetry_multiplicity
 _atom_site_fract_x
 _atom_site_fract_y
 _atom_site_fract_z
 _atom_site_occupancy
 _atom_site_hle17_bader_spin_density
 _atom_site_hle17_ddec_charge
 _atom_site_hle17_ddec_spin_density
 _atom_site_hle17_ddec_sum_bond_order
 _atom_site_hle17_magmom
 _atom_site_hse06_10hf_bader_spin_density
 _atom_site_hse06_10hf_ddec_charge
 _atom_site_hse06_10hf_ddec_spin_density
 _atom_site_hse06_10hf_ddec_sum_bond_order
 _atom_site_hse06_10hf_magmom
 _atom_site_hse06_bader_spin_density
 _atom_site_hse06_ddec_charge
 _atom_site_hse06_ddec_spin_density
 _atom_site_hse06_ddec_sum_bond_order
 _atom_site_hse06_magmom
 _atom_site_pbe_bader_spin_density
 _atom_site_pbe_cm5_charge
 _atom_site_pbe_ddec_charge
 _atom_site_pbe_ddec_spin_density
 _atom_site_pbe_ddec_sum_bond_order
 _atom_site_pbe_magmom
Cd  Cd0  1  0.99731818  0.40228658  0.15625135  1  0  1.254325  0  1.618363  0  0  1.077177  0  2.061775  0  0  1.13162  0  2.004407  0  0  0.788317  1.037583  0  2.101965  0
Cd  Cd1  1  0.84617407  0.09784649  0.15631205  1  0  1.253759  0  1.618468  0  0  1.076729  0  2.061857  0  0  1.131132  0  2.004534  0  0  0.788047  1.037166  0  2.102023  0
Cd  Cd2  1  0.00268292  0.59771303  0.84374803  1  0  1.254325  0  1.618361  0  0  1.077176  0  2.061774  0  0  1.131619  0  2.004406  0  0  0.788326  1.037581  0  2.101966  0
Cd  Cd3  1  0.15382531  0.90215312  0.84368904  1  0  1.253731  0  1.618485  0  0  1.0767  0  2.061894  0  0  1.131104  0  2.00457  0  0  0.788043  1.037146  0  2.102041  0
H  H4  1  0.77795521  0.48694149  0.44687739  1  0  0.310578  0  0.88068  0  0  0.286222  0  0.950193  0  0  0.295523  0  0.941498  0  0  0.332682  0.279583  0  0.956482  0
H  H5  1  0.77516022  0.01307169  0.44676568  1  0  0.309963  0  0.882154  0  0  0.285746  0  0.951354  0  0  0.29505  0  0.942667  0  0  0.332546  0.279121  0  0.957594  0
H  H6  1  0.22204655  0.51305912  0.55312227  1  0  0.310574  0  0.880671  0  0  0.286218  0  0.950184  0  0  0.29552  0  0.94149  0  0  0.332676  0.279579  0  0.956473  0
H  H7  1  0.22484173  0.98692791  0.55323285  1  0  0.309946  0  0.882191  0  0  0.285731  0  0.951371  0  0  0.295032  0  0.942688  0  0  0.332537  0.279106  0  0.957608  0
H  H8  1  0.44443561  0.87212843  0.35271657  1  0  0.141443  0  0.954654  0  0  0.148429  0  1.019508  0  0  0.152907  0  1.016046  0  0  0.114005  0.145114  0  1.02228  0
H  H9  1  0.20317628  0.62807459  0.35255854  1  0  0.141702  0  0.953772  0  0  0.147679  0  1.019764  0  0  0.152186  0  1.016254  0  0  0.113687  0.144375  0  1.022527  0
H  H10  1  0.55556238  0.12787116  0.64728308  1  0  0.141433  0  0.95466  0  0  0.148418  0  1.019516  0  0  0.152895  0  1.016055  0  0  0.114001  0.145104  0  1.022289  0
H  H11  1  0.79682113  0.37192501  0.64744311  1  0  0.141691  0  0.953755  0  0  0.147669  0  1.019748  0  0  0.152176  0  1.016239  0  0  0.113692  0.144366  0  1.022509  0
H  H12  1  0.28890191  0.52270748  0.14056739  1  0  0.42744  0  0.877059  0  0  0.393114  0  0.945573  0  0  0.404557  0  0.929102  0  0  0.288395  0.384887  0  0.957407  0
H  H13  1  0.57054067  0.97726133  0.14046685  1  0  0.426943  0  0.87779  0  0  0.393334  0  0.945211  0  0  0.404725  0  0.9288  0  0  0.288969  0.385154  0  0.956989  0
H  H14  1  0.71109833  0.47729212  0.85943285  1  0  0.427487  0  0.877014  0  0  0.393161  0  0.945523  0  0  0.404605  0  0.929051  0  0  0.288415  0.384934  0  0.957357  0
H  H15  1  0.42946089  0.02273727  0.85953253  1  0  0.426918  0  0.877828  0  0  0.393334  0  0.945211  0  0  0.404724  0  0.928801  0  0  0.28896  0.385153  0  0.956989  0
H  H16  1  0.30873991  0.41078238  0.24400037  1  0  0.423943  0  0.874797  0  0  0.395222  0  0.934676  0  0  0.405088  0  0.920344  0  0  0.295025  0.388214  0  0.944863  0
H  H17  1  0.44710016  0.08930435  0.24380556  1  0  0.42544  0  0.873232  0  0  0.39662  0  0.93332  0  0  0.406505  0  0.918961  0  0  0.295442  0.389599  0  0.943534  0
H  H18  1  0.69126100  0.58921823  0.75600016  1  0  0.42394  0  0.874803  0  0  0.395218  0  0.934681  0  0  0.405085  0  0.920347  0  0  0.295019  0.388211  0  0.944868  0
H  H19  1  0.55290121  0.91069526  0.75619497  1  0  0.425437  0  0.873235  0  0  0.396622  0  0.933315  0  0  0.406506  0  0.918955  0  0  0.295447  0.3896  0  0.943529  0
H  H20  1  0.69609281  0.34784223  0.06647882  1  0  0.44053  0  0.856567  0  0  0.404392  0  0.926502  0  0  0.41726  0  0.90805  0  0  0.295118  0.395254  0  0.939594  0
H  H21  1  0.23743538  0.15222872  0.06635897  1  0  0.439885  0  0.857421  0  0  0.404064  0  0.926799  0  0  0.416887  0  0.908435  0  0  0.295185  0.394957  0  0.939829  0
H  H22  1  0.30390697  0.65215838  0.93352141  1  0  0.440508  0  0.856595  0  0  0.40437  0  0.926528  0  0  0.417238  0  0.908078  0  0  0.295111  0.395231  0  0.939621  0
H  H23  1  0.76256459  0.84777088  0.93364012  1  0  0.4399  0  0.857401  0  0  0.404066  0  0.926797  0  0  0.416889  0  0.908434  0  0  0.295185  0.394959  0  0.939827  0
H  H24  1  0.60869943  0.36312295  0.21724837  1  0  0.422976  0  0.888867  0  0  0.387666  0  0.958966  0  0  0.399877  0  0.941586  0  0  0.28927  0.379012  0  0.97127  0
H  H25  1  0.17468456  0.13691338  0.21694674  1  0  0.424413  0  0.886758  0  0  0.388747  0  0.957543  0  0  0.400966  0  0.940144  0  0  0.290199  0.3801  0  0.969833  0
H  H26  1  0.39130364  0.63687666  0.78275044  1  0  0.422962  0  0.888893  0  0  0.387652  0  0.958994  0  0  0.399863  0  0.941613  0  0  0.289265  0.378997  0  0.971298  0
H  H27  1  0.82531608  0.86308724  0.78305264  1  0  0.424383  0  0.886793  0  0  0.38871  0  0.95759  0  0  0.40093  0  0.940191  0  0  0.290184  0.380063  0  0.96988  0
C  C28  1  0.67550585  0.69235932  0.24913915  1  0  0.03346  0  3.755792  0  0  0.03028  0  4.021899  0  0  0.029484  0  4.040249  0  0  0.086802  0.030679  0  4.009396  0
C  C29  1  0.07512710  0.80763651  0.24900213  1  0  0.032794  0  3.757252  0  0  0.028832  0  4.024734  0  0  0.02801  0  4.043143  0  0  0.085852  0.029231  0  4.012227  0
C  C30  1  0.32449327  0.30764028  0.75086079  1  0  0.033483  0  3.75571  0  0  0.030307  0  4.021806  0  0  0.02951  0  4.040156  0  0  0.086813  0.030706  0  4.009303  0
C  C31  1  0.92487049  0.19236207  0.75099838  1  0  0.032819  0  3.757199  0  0  0.028869  0  4.024656  0  0  0.028047  0  4.043065  0  0  0.085839  0.029271  0  4.012146  0
C  C32  1  0.54615659  0.77120568  0.35064171  1  0  -0.180266  0  3.658474  0  0  -0.218926  0  3.926336  0  0  -0.222413  0  3.943999  0  0  -0.09228  -0.216543  0  3.914636  0
C  C33  1  0.10329888  0.72891736  0.35050701  1  0  -0.179631  0  3.658904  0  0  -0.216667  0  3.927166  0  0  -0.220175  0  3.944825  0  0  -0.091585  -0.214264  0  3.915434  0
C  C34  1  0.45384186  0.22879291  0.64935795  1  0  -0.180231  0  3.6584  0  0  -0.21889  0  3.926262  0  0  -0.222375  0  3.943925  0  0  -0.092265  -0.216508  0  3.914563  0
C  C35  1  0.89669938  0.27108224  0.64949379  1  0  -0.179606  0  3.658869  0  0  -0.216643  0  3.927136  0  0  -0.220152  0  3.944797  0  0  -0.091581  -0.214241  0  3.915404  0
C  C36  1  0.57581542  0.69076362  0.44990425  1  0  0.049231  0  3.701186  0  0  0.034827  0  3.969901  0  0  0.035206  0  3.986566  0  0  0.0908  0.034513  0  3.958664  0
C  C37  1  0.97454328  0.80939508  0.44978656  1  0  0.047932  0  3.700646  0  0  0.032637  0  3.970577  0  0  0.033025  0  3.987247  0  0  0.090369  0.032318  0  3.959339  0
C  C38  1  0.42418342  0.30923597  0.55009455  1  0  0.04919  0  3.701119  0  0  0.034783  0  3.969847  0  0  0.035161  0  3.98651  0  0  0.090806  0.034468  0  3.958612  0
C  C39  1  0.02545538  0.19060553  0.55021339  1  0  0.047957  0  3.700636  0  0  0.032616  0  3.970596  0  0  0.033003  0  3.987265  0  0  0.090371  0.032296  0  3.959358  0
C  C40  1  0.72612066  0.71709275  0.11686441  1  0  0.664482  0  3.892153  0  0  0.60557  0  4.193939  0  0  0.640647  0  4.185311  0  0  0.222775  0.581751  0  4.19898  0
C  C41  1  0.15724409  0.78294024  0.11672379  1  0  0.665229  0  3.89383  0  0  0.606327  0  4.195709  0  0  0.641454  0  4.187068  0  0  0.223018  0.582479  0  4.200755  0
C  C42  1  0.27387800  0.28290785  0.88313553  1  0  0.664424  0  3.892184  0  0  0.605529  0  4.193961  0  0  0.640609  0  4.185334  0  0  0.222758  0.581712  0  4.198999  0
C  C43  1  0.84275463  0.21705836  0.88327700  1  0  0.665154  0  3.893784  0  0  0.606246  0  4.195644  0  0  0.641373  0  4.187007  0  0  0.223014  0.582401  0  4.200687  0
C  C44  1  0.48741662  0.71259092  0.58207769  1  0  0.644671  0  3.952287  0  0  0.594194  0  4.254114  0  0  0.628118  0  4.244795  0  0  0.209069  0.571239  0  4.25963  0
C  C45  1  0.93016395  0.78745053  0.58201185  1  0  0.645939  0  3.950632  0  0  0.59563  0  4.25282  0  0  0.629569  0  4.243448  0  0  0.209134  0.572662  0  4.258373  0
C  C46  1  0.51258288  0.28740969  0.41792140  1  0  0.64481  0  3.952263  0  0  0.594338  0  4.254069  0  0  0.628264  0  4.244745  0  0  0.209126  0.571382  0  4.259586  0
C  C47  1  0.06983649  0.21255109  0.41798867  1  0  0.646009  0  3.950592  0  0  0.59574  0  4.252738  0  0  0.62968  0  4.243364  0  0  0.209174  0.572773  0  4.258291  0
N  N48  1  0.71452309  0.57256314  0.40479797  1  0  -0.122965  0  3.495521  0  0  -0.072049  0  3.733905  0  0  -0.081572  0  3.751975  0  0  -0.254894  -0.065702  0  3.721711  0
N  N49  1  0.88074719  0.92749447  0.40466876  1  0  -0.122869  0  3.497194  0  0  -0.071484  0  3.735732  0  0  -0.081019  0  3.753843  0  0  -0.25468  -0.065123  0  3.723509  0
N  N50  1  0.28547669  0.42743747  0.59520226  1  0  -0.122988  0  3.495499  0  0  -0.072073  0  3.733889  0  0  -0.081597  0  3.75196  0  0  -0.254904  -0.065725  0  3.721694  0
N  N51  1  0.11925344  0.07250614  0.59533062  1  0  -0.122916  0  3.497268  0  0  -0.071498  0  3.735801  0  0  -0.081033  0  3.753913  0  0  -0.254686  -0.065138  0  3.723579  0
N  N52  1  0.77547137  0.57192600  0.28548162  1  0  -0.244377  0  3.189907  0  0  -0.201053  0  3.468316  0  0  -0.212911  0  3.486225  0  0  -0.235867  -0.192452  0  3.455754  0
N  N53  1  0.93889095  0.92807473  0.28532984  1  0  -0.243873  0  3.190588  0  0  -0.200673  0  3.469632  0  0  -0.212517  0  3.487547  0  0  -0.235798  -0.192085  0  3.457095  0
N  N54  1  0.22453085  0.42807361  0.71451805  1  0  -0.244383  0  3.189876  0  0  -0.201058  0  3.468286  0  0  -0.212918  0  3.486196  0  0  -0.235881  -0.192457  0  3.455725  0
N  N55  1  0.06111061  0.07192387  0.71466954  1  0  -0.243844  0  3.190557  0  0  -0.200663  0  3.469591  0  0  -0.212506  0  3.487505  0  0  -0.235767  -0.192075  0  3.457056  0
O  O56  1  0.85897515  0.61947601  0.05203257  1  0  -0.661155  0  2.064648  0  0  -0.586296  0  2.328076  0  0  -0.617561  0  2.316116  0  0  -0.321661  -0.564099  0  2.335608  0
O  O57  1  0.09012338  0.88079853  0.05182753  1  0  -0.660772  0  2.066173  0  0  -0.585799  0  2.329383  0  0  -0.617013  0  2.317354  0  0  -0.321195  -0.563672  0  2.337048  0
O  O58  1  0.14102575  0.38052461  0.94796796  1  0  -0.661145  0  2.064697  0  0  -0.586281  0  2.328128  0  0  -0.617539  0  2.316146  0  0  -0.321654  -0.564085  0  2.33566  0
O  O59  1  0.90987422  0.11920006  0.94817298  1  0  -0.660804  0  2.066253  0  0  -0.585743  0  2.32934  0  0  -0.616957  0  2.317314  0  0  -0.321178  -0.563617  0  2.337005  0
O  O60  1  0.64206909  0.82989041  0.07710157  1  0  -0.596397  0  1.992693  0  0  -0.529313  0  2.200879  0  0  -0.5547  0  2.189133  0  0  -0.293504  -0.511564  0  2.208643  0
O  O61  1  0.28076672  0.67000336  0.07702828  1  0  -0.597845  0  1.994294  0  0  -0.529984  0  2.202341  0  0  -0.555449  0  2.190584  0  0  -0.29378  -0.512169  0  2.210103  0
O  O62  1  0.35792824  0.17010817  0.92289779  1  0  -0.596324  0  1.992603  0  0  -0.529303  0  2.200823  0  0  -0.554688  0  2.189073  0  0  -0.293494  -0.511552  0  2.208583  0
O  O63  1  0.71923181  0.32999624  0.92297366  1  0  -0.597811  0  1.994153  0  0  -0.529969  0  2.202206  0  0  -0.555433  0  2.190449  0  0  -0.293802  -0.512167  0  2.209987  0
O  O64  1  0.55159665  0.61479978  0.64840398  1  0  -0.647046  0  1.964546  0  0  -0.589331  0  2.183009  0  0  -0.613715  0  2.171769  0  0  -0.327092  -0.572277  0  2.190274  0
O  O65  1  0.79866844  0.88495853  0.64824436  1  0  -0.648306  0  1.963218  0  0  -0.590553  0  2.182005  0  0  -0.614979  0  2.170812  0  0  -0.327399  -0.573508  0  2.189313  0
O  O66  1  0.44840576  0.38519882  0.35159455  1  0  -0.647121  0  1.964616  0  0  -0.589404  0  2.183067  0  0  -0.613791  0  2.171833  0  0  -0.327109  -0.572351  0  2.190335  0
O  O67  1  0.20133002  0.11504308  0.35175672  1  0  -0.648341  0  1.963192  0  0  -0.59062  0  2.181992  0  0  -0.615046  0  2.170798  0  0  -0.327443  -0.573576  0  2.1893  0
O  O68  1  0.35632189  0.82349551  0.61840791  1  0  -0.638209  0  1.986135  0  0  -0.584613  0  2.225852  0  0  -0.610508  0  2.215857  0  0  -0.31758  -0.566445  0  2.232115  0
O  O69  1  0.02511680  0.67665363  0.61841582  1  0  -0.639406  0  1.985246  0  0  -0.585686  0  2.225036  0  0  -0.611615  0  2.215114  0  0  -0.31813  -0.567492  0  2.231268  0
O  O70  1  0.64367948  0.17650410  0.38159261  1  0  -0.638261  0  1.986101  0  0  -0.584667  0  2.225821  0  0  -0.610563  0  2.215824  0  0  -0.317613  -0.566497  0  2.232086  0
O  O71  1  0.97488430  0.32334900  0.38158499  1  0  -0.63944  0  1.985206  0  0  -0.585733  0  2.224997  0  0  -0.611662  0  2.215074  0  0  -0.318135  -0.567539  0  2.231228  0
O  O72  1  0.28249898  0.42965820  0.16569742  1  0  -0.838236  0  1.875535  0  0  -0.773317  0  2.070026  0  0  -0.795808  0  2.035293  0  0  -0.590003  -0.757297  0  2.094505  0
O  O73  1  0.55170397  0.07036432  0.16554676  1  0  -0.839379  0  1.873769  0  0  -0.775031  0  2.067736  0  0  -0.797503  0  2.03309  0  0  -0.591452  -0.758965  0  2.092035  0
O  O74  1  0.71750238  0.57034141  0.83430310  1  0  -0.838282  0  1.875533  0  0  -0.773374  0  2.07005  0  0  -0.795859  0  2.035303  0  0  -0.590009  -0.757352  0  2.09453  0
O  O75  1  0.44829825  0.92963529  0.83445291  1  0  -0.839361  0  1.873806  0  0  -0.775023  0  2.067752  0  0  -0.7975  0  2.033119  0  0  -0.591458  -0.758959  0  2.092053  0
O  O76  1  0.73041127  0.33514064  0.14457903  1  0  -0.883027  0  2.003915  0  0  -0.801187  0  2.233237  0  0  -0.830111  0  2.194609  0  0  -0.578666  -0.780448  0  2.260081  0
O  O77  1  0.12521470  0.16483540  0.14448209  1  0  -0.883296  0  2.002503  0  0  -0.801459  0  2.231439  0  0  -0.830213  0  2.192593  0  0  -0.579144  -0.780864  0  2.258451  0
O  O78  1  0.26959247  0.66485999  0.85542008  1  0  -0.882994  0  2.00397  0  0  -0.801136  0  2.233259  0  0  -0.830062  0  2.19463  0  0  -0.578654  -0.7804  0  2.260105  0
O  O79  1  0.87478554  0.83516421  0.85551814  1  0  -0.883251  0  2.002493  0  0  -0.801413  0  2.231448  0  0  -0.830167  0  2.192604  0  0  -0.579124  -0.780819  0  2.258459  0
