# generated using pymatgen
data_ZnH14C27S2N(O5F)2
_symmetry_space_group_name_H-M   'P 1'
_cell_length_a   14.86241620
_cell_length_b   19.61651888
_cell_length_c   18.60163840
_cell_angle_alpha   88.48378236
_cell_angle_beta   86.14848035
_cell_angle_gamma   87.50706431
_symmetry_Int_Tables_number   1
_chemical_formula_structural   ZnH14C27S2N(O5F)2
_chemical_formula_sum   'Zn2 H28 C54 S4 N2 O20 F4'
_cell_volume   5404.40950618
_cell_formula_units_Z   2
loop_
 _symmetry_equiv_pos_site_id
 _symmetry_equiv_pos_as_xyz
  1  'x, y, z'
loop_
 _atom_site_type_symbol
 _atom_site_label
 _atom_site_symmetry_multiplicity
 _atom_site_fract_x
 _atom_site_fract_y
 _atom_site_fract_z
 _atom_site_occupancy
 _atom_site_pbe_bader_charge
 _atom_site_pbe_bader_spin_density
 _atom_site_pbe_cm5_charge
 _atom_site_pbe_ddec_charge
 _atom_site_pbe_ddec_spin_density
 _atom_site_pbe_ddec_sum_bond_order
 _atom_site_pbe_magmom
Zn  Zn0  1  0.51925219  0.60444977  0.49722509  1  1.316996  0  0.68161  0.868608  0  2.287245  0
Zn  Zn1  1  0.50101140  0.44354037  0.48595686  1  1.423789  0  0.730221  1.058812  0  2.229297  0
H  H2  1  0.74024891  0.42047874  0.43356035  1  0.126783  0  0.105684  0.124198  0  1.01358  0
H  H3  1  0.02068821  0.32635859  0.32911341  1  0.038343  0  0.102046  0.10389  0  0.994375  0
H  H4  1  0.13719023  0.55604575  0.57172279  1  0.077823  0  0.104116  0.108994  0  0.989737  0
H  H5  1  0.85884605  0.35521846  0.35972498  1  0.097079  0  0.107071  0.11954  0  0.98652  0
H  H6  1  0.55989494  0.47182054  0.29721116  1  0.104052  0  0.110579  0.121607  0  0.98816  0
H  H7  1  0.45075567  0.62352931  0.70615382  1  0.102204  0  0.094911  0.100965  0  1.022994  0
H  H8  1  0.41812364  0.40720718  0.70673370  1  0.126597  0  0.100375  0.112041  0  1.023772  0
H  H9  1  0.33462055  0.61692411  0.30273814  1  0.0826  0  0.10924  0.114004  0  0.984961  0
H  H10  1  0.54233726  0.45283498  0.16783641  1  0.063014  0  0.104466  0.104124  0  1.004227  0
H  H11  1  0.44404467  0.62103471  0.83970938  1  0.053676  0  0.096563  0.09364  0  1.016083  0
H  H12  1  0.40826656  0.40394704  0.84065688  1  0.049915  0  0.097818  0.095558  0  1.009426  0
H  H13  1  0.25565777  0.48508071  0.50473383  1  0.107592  0  0.110519  0.124487  0  0.989545  0
H  H14  1  0.30983046  0.59285160  0.17539355  1  0.068805  0  0.101615  0.100153  0  1.008845  0
H  H15  1  0.35879780  0.61785272  0.06878942  1  0.056406  0  0.100013  0.096932  0  1.012938  0
H  H16  1  0.48530339  0.41187705  0.94303140  1  0.074248  0  0.100632  0.098717  0  1.005426  0
H  H17  1  0.35581210  0.61259646  0.93758656  1  0.052499  0  0.098912  0.096134  0  1.009918  0
H  H18  1  0.48246179  0.41504189  0.07505027  1  0.045958  0  0.103644  0.102535  0  1.003636  0
H  H19  1  0.76584984  0.78041116  0.37153562  1  0.637894  0  0.353582  0.408701  0  0.833323  0
H  H20  1  0.36005746  0.24049707  0.72313105  1  0.637261  0  0.353068  0.403858  0  0.838639  0
H  H21  1  0.31817858  0.77401134  0.66175504  1  0.646094  0  0.358343  0.408542  0  0.830198  0
H  H22  1  0.41095012  0.32856714  0.36488197  1  0.678856  0  0.3053  0.375773  0  0.958851  0
H  H23  1  0.57653555  0.93796361  0.66392814  1  0.076942  0  0.111583  0.116544  0  0.979157  0
H  H24  1  0.58624565  0.06363450  0.42814809  1  0.123495  0  0.114377  0.122492  0  0.985611  0
H  H25  1  0.59960811  0.93865089  0.43134650  1  0.080202  0  0.111325  0.115825  0  0.980255  0
H  H26  1  0.56724536  0.06377868  0.66081415  1  0.103975  0  0.110029  0.116304  0  0.985646  0
H  H27  1  0.81432679  0.57572433  0.57507279  1  0.06812  0  0.10195  0.108836  0  0.996589  0
H  H28  1  0.18246721  0.34071249  0.35068688  1  0.076324  0  0.106031  0.112736  0  1.001549  0
H  H29  1  0.97543431  0.58835372  0.59841038  1  0.036777  0  0.100705  0.101638  0  0.996504  0
C  C30  1  0.44554178  0.51834923  0.61759243  1  1.540993  0  0.224169  0.612289  0  4.147147  0
C  C31  1  0.43638823  0.57408056  0.81099602  1  -0.062082  0  -0.097503  -0.143901  0  4.007476  0
C  C32  1  0.41858856  0.45228399  0.81149019  1  -0.082103  0  -0.092748  -0.135559  0  3.981826  0
C  C33  1  0.36643079  0.56758498  0.20109496  1  -0.079457  0  -0.092177  -0.140664  0  3.992484  0
C  C34  1  0.42627951  0.52294733  0.16110080  1  -0.006844  0  2.9e-05  0.081798  0  3.993252  0
C  C35  1  0.42513738  0.51232112  0.85029566  1  -0.060525  0  -0.004834  0.073666  0  4.006228  0
C  C36  1  0.44999964  0.54695064  0.30693994  1  -0.034123  0  -0.019368  -0.034763  0  3.987243  0
C  C37  1  0.43516300  0.51555528  0.69804435  1  0.018787  0  -0.020142  -0.03804  0  3.960699  0
C  C38  1  0.38496982  0.57175017  0.04181049  1  -0.038883  0  -0.092291  -0.126482  0  4.006158  0
C  C39  1  0.45560429  0.45673225  0.97050997  1  -0.045612  0  -0.091068  -0.126643  0  3.997618  0
C  C40  1  0.38484955  0.56931863  0.96734163  1  -0.07231  0  -0.093793  -0.128143  0  4.008134  0
C  C41  1  0.47108127  0.56578987  0.37975333  1  1.492904  0  0.212511  0.594606  0  4.130237  0
C  C42  1  0.45521198  0.45899099  0.04524223  1  0.030046  0  -0.089817  -0.124642  0  3.993026  0
C  C43  1  0.42129467  0.51216160  0.92971842  1  -0.007011  0  -0.00914  0.064651  0  4.011229  0
C  C44  1  0.42088076  0.51694189  0.08264859  1  -0.053196  0  -0.009472  0.06079  0  4.007642  0
C  C45  1  0.61615327  0.74645431  0.48534196  1  0.482768  0  0.115759  -0.045043  0  3.90775  0
C  C46  1  0.44555405  0.24359375  0.56749104  1  0.471103  0  0.10459  -0.062204  0  4.010868  0
C  C47  1  0.47575819  0.75983480  0.54549619  1  0.541766  0  0.112664  -0.052941  0  3.910569  0
C  C48  1  0.55061898  0.25640310  0.47194221  1  0.509452  0  0.108154  -0.051532  0  3.94201  0
C  C49  1  0.63776243  0.81211916  0.50389066  1  0.534715  0  0.124075  0.21967  0  4.028918  0
C  C50  1  0.47872783  0.17737185  0.58238450  1  0.56113  0  0.116737  0.218392  0  4.022867  0
C  C51  1  0.49628114  0.82487451  0.56712032  1  0.476235  0  0.127269  0.227373  0  4.023337  0
C  C52  1  0.08482490  0.53170211  0.54436439  1  -0.083581  0  -0.090459  -0.133051  0  4.019907  0
C  C53  1  0.58632613  0.19024434  0.48399431  1  0.564684  0  0.126542  0.231633  0  3.999099  0
C  C54  1  0.57689816  0.85510581  0.54366559  1  0.089487  0  0.009617  -0.083994  0  3.981127  0
C  C55  1  0.54947861  0.14706669  0.53914035  1  0.032897  0  -0.001663  -0.111759  0  3.98432  0
C  C56  1  0.32468890  0.39281571  0.41356592  1  1.535418  0  0.248021  0.623072  0  4.0852  0
C  C57  1  0.67073234  0.51635334  0.52143894  1  1.568479  0  0.223179  0.628412  0  4.122196  0
C  C58  1  0.57965983  0.96547981  0.61220480  1  -0.026547  0  -0.081151  -0.118173  0  3.975067  0
C  C59  1  0.58603746  0.03671784  0.48004356  1  -0.029617  0  -0.074835  -0.105438  0  3.945774  0
C  C60  1  0.59366570  0.96599877  0.48182000  1  -0.010924  0  -0.08035  -0.116048  0  3.965089  0
C  C61  1  0.57391092  0.03664089  0.61034162  1  -0.003079  0  -0.077275  -0.108623  0  3.94711  0
C  C62  1  0.57337956  0.07317344  0.54429875  1  0.023259  0  0.002399  0.103822  0  3.976483  0
C  C63  1  0.91137444  0.38071399  0.38582177  1  -0.064127  0  -0.086963  -0.128292  0  3.997305  0
C  C64  1  0.58731369  0.92955739  0.54787754  1  -0.01725  0  -0.008567  0.083835  0  4.01458  0
C  C65  1  0.79304731  0.44769067  0.45725165  1  -0.016781  0  -0.078567  -0.140633  0  3.898746  0
C  C66  1  0.20307227  0.46172929  0.47684197  1  -0.072682  0  -0.074894  -0.123852  0  3.905317  0
C  C67  1  0.76898438  0.49967688  0.50595050  1  -0.058227  0  -0.017061  -0.020964  0  4.008028  0
C  C68  1  0.22763652  0.41148813  0.42628481  1  -0.020101  0  -0.024802  -0.058467  0  4.0469  0
C  C69  1  0.83472247  0.53488969  0.53801778  1  -0.020907  0  -0.084338  -0.144763  0  3.948357  0
C  C70  1  0.16193454  0.37952358  0.39003632  1  -0.051357  0  -0.081498  -0.143391  0  3.934077  0
C  C71  1  0.92648651  0.51724374  0.52385130  1  0.003358  0  -0.00847  0.077142  0  4.046931  0
C  C72  1  0.07009559  0.39690001  0.40433438  1  0.033181  0  -0.008958  0.072465  0  4.04746  0
C  C73  1  0.95190555  0.46554036  0.47265268  1  0.001248  0  0.003134  -0.001812  0  3.915868  0
C  C74  1  0.50584653  0.49842189  0.26958170  1  0.004441  0  -0.075629  -0.07058  0  3.946533  0
C  C75  1  0.04457303  0.44788252  0.45639258  1  -0.013105  0  0.007575  0.010155  0  3.906617  0
C  C76  1  0.88409356  0.43126927  0.43823784  1  -0.029734  0  -0.00729  0.076521  0  4.043802  0
C  C77  1  0.11222496  0.48070552  0.49255138  1  0.031247  0  -0.007275  0.073317  0  4.044042  0
C  C78  1  0.99579168  0.54940204  0.55903141  1  0.010068  0  -0.092391  -0.135525  0  4.030732  0
C  C79  1  0.00056213  0.36469160  0.36923740  1  -0.015901  0  -0.092685  -0.13796  0  4.024831  0
C  C80  1  0.44113488  0.57574505  0.73625489  1  -0.045944  0  -0.089151  -0.084295  0  3.997165  0
C  C81  1  0.42345040  0.45378916  0.73642063  1  -0.030756  0  -0.082292  -0.07969  0  3.964171  0
C  C82  1  0.37900602  0.58059980  0.27260900  1  0.004607  0  -0.079407  -0.083639  0  3.982739  0
C  C83  1  0.49479796  0.48747081  0.19730556  1  -0.027965  0  -0.087538  -0.133578  0  3.975838  0
S  S84  1  0.69453625  0.69899123  0.42370503  1  3.114668  0  0.557578  1.140486  0  5.97232  0
S  S85  1  0.34370977  0.27647316  0.61545943  1  3.053723  0  0.548189  1.133967  0  5.980657  0
S  S86  1  0.35787479  0.73726237  0.55743244  1  3.148528  0  0.555266  1.131396  0  5.989616  0
S  S87  1  0.58409945  0.30972885  0.39388412  1  3.273663  0  0.519244  1.161099  0  6.240516  0
N  N88  1  0.53597455  0.72097422  0.50621479  1  -1.153926  0  -0.264104  -0.154659  0  3.471272  0
N  N89  1  0.48116738  0.28161118  0.51376629  1  -1.156699  0  -0.276654  -0.183471  0  3.422736  0
O  O90  1  0.45953970  0.57760011  0.58958919  1  -1.173425  0  -0.32789  -0.564171  0  2.431386  0
O  O91  1  0.64483043  0.64897684  0.39098561  1  -1.251977  0  -0.259731  -0.446586  0  2.207972  0
O  O92  1  0.71098362  0.75724382  0.36171888  1  -1.164491  0  -0.358491  -0.529107  0  2.125607  0
O  O93  1  0.32472744  0.34436137  0.59014398  1  -1.251585  0  -0.263919  -0.449538  0  2.199743  0
O  O94  1  0.27903126  0.22381189  0.61735630  1  -1.259904  0  -0.318806  -0.533743  0  2.09781  0
O  O95  1  0.37722408  0.28211334  0.69632363  1  -1.178461  0  -0.3567  -0.532747  0  2.136127  0
O  O96  1  0.30707307  0.79695547  0.53428999  1  -1.268165  0  -0.307436  -0.518135  0  2.103428  0
O  O97  1  0.34745067  0.67170404  0.52921430  1  -1.250047  0  -0.252464  -0.430099  0  2.242064  0
O  O98  1  0.34398304  0.73030373  0.64395752  1  -1.210758  0  -0.345549  -0.516257  0  2.14707  0
O  O99  1  0.58148330  0.37914122  0.42302269  1  -1.321373  0  -0.330297  -0.603684  0  2.445219  0
O  O100  1  0.67271784  0.28679820  0.36617304  1  -1.307621  0  -0.33847  -0.5536  0  2.126717  0
O  O101  1  0.52306298  0.52539456  0.41654377  1  -1.190586  0  -0.327189  -0.592216  0  2.430851  0
O  O102  1  0.51091631  0.29983980  0.34604330  1  -1.311721  0  -0.336266  -0.57682  0  2.170316  0
O  O103  1  0.44484587  0.62293041  0.40606016  1  -1.131516  0  -0.310514  -0.519562  0  2.209812  0
O  O104  1  0.44016725  0.46351183  0.58334405  1  -1.156598  0  -0.309056  -0.55371  0  2.347752  0
O  O105  1  0.38284248  0.42659035  0.44003873  1  -1.192857  0  -0.296211  -0.557085  0  2.425369  0
O  O106  1  0.61996195  0.46622019  0.52871024  1  -1.185474  0  -0.321018  -0.5663  0  2.321623  0
O  O107  1  0.64528815  0.57988646  0.52481253  1  -1.155473  0  -0.333608  -0.576687  0  2.313562  0
O  O108  1  0.34328490  0.33925729  0.37274377  1  -1.18719  0  -0.323655  -0.471249  0  2.275763  0
O  O109  1  0.77756073  0.68617611  0.45755801  1  -1.262206  0  -0.287258  -0.49615  0  2.139418  0
F  F110  1  0.71833480  0.83679937  0.48065422  1  -0.618501  0  -0.067442  -0.1105  0  1.38774  0
F  F111  1  0.43928900  0.14073676  0.63786267  1  -0.628984  0  -0.080107  -0.123314  0  1.390959  0
F  F112  1  0.43460614  0.86193916  0.60769502  1  -0.619369  0  -0.068122  -0.106444  0  1.396116  0
F  F113  1  0.65646766  0.16542088  0.44157736  1  -0.617543  0  -0.066208  -0.095823  0  1.404327  0
