# generated using pymatgen
data_CdH7C10N3O4
_symmetry_space_group_name_H-M   'P 1'
_cell_length_a   7.03279185
_cell_length_b   10.22535614
_cell_length_c   9.19093710
_cell_angle_alpha   92.93532397
_cell_angle_beta   116.72948931
_cell_angle_gamma   104.81493671
_symmetry_Int_Tables_number   1
_chemical_formula_structural   CdH7C10N3O4
_chemical_formula_sum   'Cd2 H14 C20 N6 O8'
_cell_volume   560.01932033
_cell_formula_units_Z   2
loop_
 _symmetry_equiv_pos_site_id
 _symmetry_equiv_pos_as_xyz
  1  'x, y, z'
loop_
 _atom_site_type_symbol
 _atom_site_label
 _atom_site_symmetry_multiplicity
 _atom_site_fract_x
 _atom_site_fract_y
 _atom_site_fract_z
 _atom_site_occupancy
 _atom_site_hle17_bader_spin_density
 _atom_site_hle17_ddec_charge
 _atom_site_hle17_ddec_spin_density
 _atom_site_hle17_ddec_sum_bond_order
 _atom_site_hle17_magmom
 _atom_site_hse06_10hf_bader_spin_density
 _atom_site_hse06_10hf_ddec_charge
 _atom_site_hse06_10hf_ddec_spin_density
 _atom_site_hse06_10hf_ddec_sum_bond_order
 _atom_site_hse06_10hf_magmom
 _atom_site_hse06_bader_spin_density
 _atom_site_hse06_ddec_charge
 _atom_site_hse06_ddec_spin_density
 _atom_site_hse06_ddec_sum_bond_order
 _atom_site_hse06_magmom
 _atom_site_pbe_bader_spin_density
 _atom_site_pbe_cm5_charge
 _atom_site_pbe_ddec_charge
 _atom_site_pbe_ddec_spin_density
 _atom_site_pbe_ddec_sum_bond_order
 _atom_site_pbe_magmom
Cd  Cd0  1  0.56617721  0.75062471  0.86516820  1  0  1.113343  0  1.724532  0  0  0.924712  0  2.177091  0  0  0.979668  0  2.126136  0  0  0.782791  0.884186  0  2.212889  0
Cd  Cd1  1  0.43382437  0.24936607  0.13482537  1  0  1.113417  0  1.724192  0  0  0.924795  0  2.176695  0  0  0.97976  0  2.125742  0  0  0.782837  0.88426  0  2.212495  0
H  H2  1  0.23132874  0.42463446  0.70137134  1  0  0.069908  0  0.956393  0  0  0.08144  0  1.016929  0  0  0.082565  0  1.016348  0  0  0.112836  0.080518  0  1.017398  0
H  H3  1  0.76866475  0.57537474  0.29863380  1  0  0.06993  0  0.956417  0  0  0.08148  0  1.016928  0  0  0.082612  0  1.016337  0  0  0.112819  0.080543  0  1.017436  0
H  H4  1  0.00862482  0.26536912  0.42443734  1  0  0.106722  0  0.962937  0  0  0.114482  0  1.027513  0  0  0.11803  0  1.025613  0  0  0.103237  0.111861  0  1.029145  0
H  H5  1  0.99136848  0.73463383  0.57556087  1  0  0.106777  0  0.962819  0  0  0.1145  0  1.027439  0  0  0.11805  0  1.025539  0  0  0.103253  0.111879  0  1.029069  0
H  H6  1  0.00499536  0.35627588  0.17550721  1  0  0.112642  0  0.933675  0  0  0.122485  0  0.993115  0  0  0.126034  0  0.989383  0  0  0.111527  0.119844  0  0.995941  0
H  H7  1  0.99499163  0.64372075  0.82448548  1  0  0.112659  0  0.93373  0  0  0.122526  0  0.993137  0  0  0.126075  0  0.989403  0  0  0.111535  0.119887  0  0.995962  0
H  H8  1  0.23213267  0.59660699  0.21170368  1  0  0.127634  0  0.941038  0  0  0.13643  0  1.001178  0  0  0.140344  0  0.998845  0  0  0.111788  0.133472  0  1.003244  0
H  H9  1  0.76785531  0.40339264  0.78828511  1  0  0.127577  0  0.94111  0  0  0.136369  0  1.001257  0  0  0.140286  0  0.998918  0  0  0.111751  0.133413  0  1.003323  0
H  H10  1  0.46448555  0.83049883  0.26685380  1  0  0.138863  0  0.948603  0  0  0.150336  0  1.003583  0  0  0.153391  0  1.002843  0  0  0.11323  0.148153  0  1.003855  0
H  H11  1  0.53556538  0.16950012  0.73314983  1  0  0.138978  0  0.948534  0  0  0.15045  0  1.003491  0  0  0.153504  0  1.002755  0  0  0.113308  0.148265  0  1.00376  0
H  H12  1  0.83619374  0.05032297  0.47009472  1  0  0.106706  0  0.960434  0  0  0.116339  0  1.023995  0  0  0.119186  0  1.021271  0  0  0.123163  0.114255  0  1.026043  0
H  H13  1  0.16386168  0.94967232  0.52992644  1  0  0.106725  0  0.960498  0  0  0.116324  0  1.024067  0  0  0.11917  0  1.021341  0  0  0.123142  0.114239  0  1.026112  0
H  H14  1  0.96154043  0.00003548  0.76552790  1  0  0.298091  0  0.910283  0  0  0.279157  0  0.969461  0  0  0.288189  0  0.961957  0  0  0.320444  0.272614  0  0.975087  0
H  H15  1  0.03845291  0.99995666  0.23449047  1  0  0.298027  0  0.91025  0  0  0.279145  0  0.969372  0  0  0.288178  0  0.961868  0  0  0.320417  0.272602  0  0.974986  0
C  C16  1  0.23008232  0.45920521  0.59086052  1  0  0.130425  0  3.742314  0  0  0.100792  0  3.994631  0  0  0.107265  0  4.01544  0  0  0.042863  0.096684  0  3.980255  0
C  C17  1  0.76989805  0.54079123  0.40912795  1  0  0.130429  0  3.742602  0  0  0.100774  0  3.994894  0  0  0.107249  0  4.015695  0  0  0.042944  0.09666  0  3.98051  0
C  C18  1  0.10576621  0.37084748  0.43729287  1  0  -0.117977  0  3.731028  0  0  -0.135529  0  3.993405  0  0  -0.141343  0  4.013465  0  0  -0.08831  -0.131628  0  3.979659  0
C  C19  1  0.89422675  0.62914826  0.56270159  1  0  -0.118091  0  3.731085  0  0  -0.135589  0  3.993442  0  0  -0.141406  0  4.013506  0  0  -0.08836  -0.131684  0  3.979695  0
C  C20  1  0.10330006  0.42121237  0.29852391  1  0  0.021822  0  3.675698  0  0  -0.003749  0  3.940614  0  0  0.000833  0  3.955828  0  0  -0.062969  -0.006564  0  3.930024  0
C  C21  1  0.89668692  0.57879045  0.70147345  1  0  0.021719  0  3.675772  0  0  -0.003873  0  3.940652  0  0  0.0007  0  3.955893  0  0  -0.062973  -0.006688  0  3.930061  0
C  C22  1  0.22859669  0.55677291  0.31840597  1  0  -0.127935  0  3.646735  0  0  -0.147347  0  3.896042  0  0  -0.153456  0  3.914842  0  0  -0.076393  -0.143571  0  3.883836  0
C  C23  1  0.77138905  0.44322779  0.68158764  1  0  -0.127786  0  3.646935  0  0  -0.14716  0  3.896237  0  0  -0.153266  0  3.915034  0  0  -0.076333  -0.143387  0  3.884036  0
C  C24  1  0.35622837  0.63809622  0.47813304  1  0  0.183903  0  3.795327  0  0  0.18333  0  4.032485  0  0  0.190099  0  4.053188  0  0  0.11751  0.179086  0  4.017957  0
C  C25  1  0.64377803  0.36191421  0.52187175  1  0  0.183898  0  3.795356  0  0  0.183255  0  4.032616  0  0  0.19002  0  4.053315  0  0  0.117466  0.179012  0  4.018088  0
C  C26  1  0.51640254  0.77442704  0.51200748  1  0  0.118174  0  3.825163  0  0  0.108268  0  4.082454  0  0  0.11461  0  4.103282  0  0  0.092441  0.104091  0  4.067869  0
C  C27  1  0.48358742  0.22559007  0.48798828  1  0  0.118363  0  3.825268  0  0  0.108485  0  4.082561  0  0  0.114828  0  4.103394  0  0  0.092529  0.104306  0  4.067973  0
C  C28  1  0.55711482  0.85316324  0.40126235  1  0  -0.223723  0  3.718289  0  0  -0.248092  0  3.98387  0  0  -0.257179  0  4.004706  0  0  -0.107346  -0.24066  0  3.968554  0
C  C29  1  0.44290885  0.14684750  0.59874338  1  0  -0.224241  0  3.718378  0  0  -0.248626  0  3.984  0  0  -0.257712  0  4.004831  0  0  -0.107567  -0.241187  0  3.96868  0
C  C30  1  0.37718633  0.98057582  0.92500729  1  0  0.536772  0  3.902752  0  0  0.493411  0  4.193969  0  0  0.522904  0  4.189001  0  0  0.205641  0.473206  0  4.196857  0
C  C31  1  0.62283245  0.01940100  0.07498643  1  0  0.536692  0  3.902418  0  0  0.493335  0  4.193639  0  0  0.522833  0  4.188672  0  0  0.205579  0.473124  0  4.196526  0
C  C32  1  0.39471794  0.51091292  0.00366767  1  0  0.5029  0  3.961972  0  0  0.458747  0  4.262795  0  0  0.488092  0  4.258091  0  0  0.186668  0.438668  0  4.265052  0
C  C33  1  0.60523280  0.48909451  0.99633630  1  0  0.502809  0  3.961964  0  0  0.458684  0  4.262748  0  0  0.488037  0  4.258036  0  0  0.186498  0.438617  0  4.264989  0
C  C34  1  0.74540677  0.96434277  0.50198605  1  0  0.057642  0  3.683763  0  0  0.008134  0  3.959582  0  0  0.016569  0  3.974567  0  0  0.022574  0.002518  0  3.949532  0
C  C35  1  0.25462403  0.03565494  0.49802444  1  0  0.057798  0  3.683703  0  0  0.008356  0  3.95951  0  0  0.016795  0  3.974488  0  0  0.022627  0.002741  0  3.949466  0
N  N36  1  0.35156809  0.58984047  0.61120884  1  0  -0.384028  0  3.267586  0  0  -0.311668  0  3.525642  0  0  -0.332751  0  3.547769  0  0  -0.331797  -0.296987  0  3.509751  0
N  N37  1  0.64841965  0.41016840  0.38878472  1  0  -0.383951  0  3.267431  0  0  -0.31165  0  3.525664  0  0  -0.33275  0  3.547838  0  0  -0.331817  -0.296964  0  3.509765  0
N  N38  1  0.67154955  0.83532868  0.67028798  1  0  -0.293385  0  3.108595  0  0  -0.245848  0  3.388179  0  0  -0.260843  0  3.40588  0  0  -0.245549  -0.236234  0  3.376889  0
N  N39  1  0.32843965  0.16467123  0.32971427  1  0  -0.29346  0  3.108746  0  0  -0.245907  0  3.388342  0  0  -0.260904  0  3.406039  0  0  -0.245492  -0.23629  0  3.377049  0
N  N40  1  0.80762931  0.95050693  0.66169625  1  0  -0.131216  0  3.476396  0  0  -0.070782  0  3.715409  0  0  -0.083268  0  3.734298  0  0  -0.267404  -0.063279  0  3.703228  0
N  N41  1  0.19237372  0.04949751  0.33831810  1  0  -0.131152  0  3.476558  0  0  -0.070797  0  3.715597  0  0  -0.083283  0  3.73449  0  0  -0.267465  -0.063295  0  3.703415  0
O  O42  1  0.31546163  0.88175036  0.80995383  1  0  -0.569922  0  2.047221  0  0  -0.514732  0  2.295563  0  0  -0.540359  0  2.287762  0  0  -0.303803  -0.496317  0  2.300601  0
O  O43  1  0.68455990  0.11823851  0.19002829  1  0  -0.569904  0  2.047356  0  0  -0.514733  0  2.295715  0  0  -0.540359  0  2.287911  0  0  -0.303807  -0.496316  0  2.300753  0
O  O44  1  0.25443985  0.05254501  0.92887414  1  0  -0.601929  0  2.035887  0  0  -0.538264  0  2.272058  0  0  -0.564752  0  2.259712  0  0  -0.317796  -0.519392  0  2.280423  0
O  O45  1  0.74561675  0.94743345  0.07111814  1  0  -0.601946  0  2.035308  0  0  -0.538275  0  2.271446  0  0  -0.564767  0  2.259105  0  0  -0.317739  -0.519402  0  2.279807  0
O  O46  1  0.36930834  0.62886056  0.99146858  1  0  -0.589193  0  2.032474  0  0  -0.534997  0  2.28013  0  0  -0.560765  0  2.271305  0  0  -0.321288  -0.516369  0  2.285578  0
O  O47  1  0.63063771  0.37114553  0.00852299  1  0  -0.589191  0  2.032695  0  0  -0.534923  0  2.280216  0  0  -0.560694  0  2.271382  0  0  -0.321187  -0.516297  0  2.28566  0
O  O48  1  0.26349938  0.40933370  0.02082355  1  0  -0.586187  0  2.024719  0  0  -0.527032  0  2.269664  0  0  -0.553041  0  2.259786  0  0  -0.324076  -0.508129  0  2.275812  0
O  O49  1  0.73648383  0.59067639  0.97918395  1  0  -0.586128  0  2.024578  0  0  -0.526966  0  2.269485  0  0  -0.55298  0  2.259609  0  0  -0.323946  -0.508062  0  2.275625  0
