# generated using pymatgen
data_CdH14C17N6O5
_symmetry_space_group_name_H-M   'P 1'
_cell_length_a   8.88850367
_cell_length_b   10.20668777
_cell_length_c   12.48991577
_cell_angle_alpha   103.95142146
_cell_angle_beta   104.16890124
_cell_angle_gamma   115.39129837
_symmetry_Int_Tables_number   1
_chemical_formula_structural   CdH14C17N6O5
_chemical_formula_sum   'Cd2 H28 C34 N12 O10'
_cell_volume   911.76718398
_cell_formula_units_Z   2
loop_
 _symmetry_equiv_pos_site_id
 _symmetry_equiv_pos_as_xyz
  1  'x, y, z'
loop_
 _atom_site_type_symbol
 _atom_site_label
 _atom_site_symmetry_multiplicity
 _atom_site_fract_x
 _atom_site_fract_y
 _atom_site_fract_z
 _atom_site_occupancy
 _atom_site_hle17_bader_spin_density
 _atom_site_hle17_ddec_charge
 _atom_site_hle17_ddec_spin_density
 _atom_site_hle17_ddec_sum_bond_order
 _atom_site_hle17_magmom
 _atom_site_hse06_10hf_bader_spin_density
 _atom_site_hse06_10hf_ddec_charge
 _atom_site_hse06_10hf_ddec_spin_density
 _atom_site_hse06_10hf_ddec_sum_bond_order
 _atom_site_hse06_10hf_magmom
 _atom_site_hse06_bader_spin_density
 _atom_site_hse06_ddec_charge
 _atom_site_hse06_ddec_spin_density
 _atom_site_hse06_ddec_sum_bond_order
 _atom_site_hse06_magmom
 _atom_site_pbe_bader_spin_density
 _atom_site_pbe_cm5_charge
 _atom_site_pbe_ddec_charge
 _atom_site_pbe_ddec_spin_density
 _atom_site_pbe_ddec_sum_bond_order
 _atom_site_pbe_magmom
Cd  Cd0  1  0.67941016  0.63867594  0.72512315  1  0  1.138029  0  1.656888  0  0  0.946458  0  2.100545  0  0  1.004055  0  2.048283  0  0  0.77384  0.902464  0  2.138712  0
Cd  Cd1  1  0.32058024  0.36131475  0.27487760  1  0  1.13807  0  1.656969  0  0  0.946498  0  2.100634  0  0  1.004094  0  2.048374  0  0  0.773873  0.902505  0  2.138797  0
H  H2  1  0.45059532  0.77654097  0.06826074  1  0  0.324106  0  0.852028  0  0  0.310693  0  0.905055  0  0  0.317897  0  0.899182  0  0  0.339208  0.305515  0  0.909499  0
H  H3  1  0.54939531  0.22346623  0.93173508  1  0  0.323997  0  0.852241  0  0  0.310637  0  0.905169  0  0  0.317842  0  0.899289  0  0  0.339146  0.305458  0  0.909614  0
H  H4  1  0.31075328  0.39339595  0.55055270  1  0  0.432939  0  0.863581  0  0  0.404184  0  0.92369  0  0  0.414937  0  0.908148  0  0  0.29081  0.396534  0  0.934785  0
H  H5  1  0.68924107  0.60659538  0.44944325  1  0  0.432823  0  0.863755  0  0  0.404061  0  0.923874  0  0  0.414815  0  0.908331  0  0  0.29074  0.396411  0  0.934969  0
H  H6  1  0.35290781  0.54815563  0.53474883  1  0  0.419349  0  0.889617  0  0  0.386328  0  0.95801  0  0  0.397677  0  0.941507  0  0  0.284004  0.378263  0  0.969761  0
H  H7  1  0.64708359  0.45183463  0.46524803  1  0  0.41934  0  0.889611  0  0  0.386321  0  0.958003  0  0  0.397671  0  0.941496  0  0  0.283988  0.378258  0  0.96975  0
H  H8  1  0.89467480  0.58658615  0.96220002  1  0  0.104977  0  0.962133  0  0  0.114288  0  1.024458  0  0  0.116995  0  1.023279  0  0  0.100458  0.112406  0  1.025246  0
H  H9  1  0.10532429  0.41342372  0.03779853  1  0  0.104998  0  0.962277  0  0  0.114282  0  1.02463  0  0  0.116988  0  1.02345  0  0  0.100452  0.1124  0  1.025415  0
H  H10  1  0.00853370  0.59215157  0.16734511  1  0  0.083118  0  0.980834  0  0  0.091763  0  1.048082  0  0  0.093821  0  1.048146  0  0  0.090437  0.090329  0  1.048021  0
H  H11  1  0.99146990  0.40786422  0.83265509  1  0  0.083188  0  0.980796  0  0  0.091878  0  1.048001  0  0  0.093934  0  1.048063  0  0  0.090479  0.090445  0  1.047941  0
H  H12  1  0.88405697  0.65936875  0.31565116  1  0  0.082949  0  0.974716  0  0  0.093627  0  1.0393  0  0  0.095204  0  1.040449  0  0  0.093199  0.092365  0  1.038707  0
H  H13  1  0.11593937  0.34063623  0.68434461  1  0  0.08291  0  0.974734  0  0  0.093577  0  1.039342  0  0  0.095161  0  1.040479  0  0  0.093129  0.092317  0  1.038749  0
H  H14  1  0.64350126  0.72751270  0.26338835  1  0  0.117584  0  0.968585  0  0  0.127327  0  1.029073  0  0  0.130383  0  1.027389  0  0  0.103074  0.125057  0  1.030368  0
H  H15  1  0.35648780  0.27248576  0.73661080  1  0  0.11749  0  0.968763  0  0  0.127258  0  1.029218  0  0  0.130333  0  1.027507  0  0  0.103058  0.12499  0  1.030515  0
H  H16  1  0.50988581  0.87590769  0.82844929  1  0  0.141441  0  0.903326  0  0  0.14953  0  0.968301  0  0  0.152783  0  0.963852  0  0  0.133341  0.14711  0  0.97096  0
H  H17  1  0.49010312  0.12408416  0.17154171  1  0  0.141385  0  0.903234  0  0  0.149554  0  0.96814  0  0  0.152811  0  0.963678  0  0  0.133335  0.147137  0  0.970803  0
H  H18  1  0.36448985  0.67000975  0.74177439  1  0  0.134615  0  0.947316  0  0  0.147011  0  1.009807  0  0  0.149458  0  1.007158  0  0  0.130171  0.145234  0  1.011075  0
H  H19  1  0.63551623  0.32998993  0.25822407  1  0  0.134617  0  0.94729  0  0  0.147054  0  1.009755  0  0  0.149504  0  1.0071  0  0  0.130167  0.145277  0  1.011028  0
H  H20  1  0.03594714  0.60332905  0.68147885  1  0  0.136548  0  0.902937  0  0  0.147689  0  0.959237  0  0  0.150007  0  0.956093  0  0  0.16009  0.145637  0  0.961316  0
H  H21  1  0.96403287  0.39663723  0.31851825  1  0  0.136495  0  0.902898  0  0  0.147609  0  0.95922  0  0  0.149925  0  0.956075  0  0  0.160088  0.145563  0  0.961299  0
H  H22  1  0.83750936  0.91469117  0.44467568  1  0  0.092619  0  0.970416  0  0  0.101545  0  1.036849  0  0  0.104419  0  1.035093  0  0  0.103818  0.099555  0  1.037886  0
H  H23  1  0.16250226  0.08531214  0.55532431  1  0  0.092592  0  0.970368  0  0  0.101538  0  1.036788  0  0  0.104413  0  1.035031  0  0  0.103786  0.099555  0  1.037815  0
H  H24  1  0.86697199  0.12490341  0.36946834  1  0  0.090274  0  0.962945  0  0  0.098431  0  1.025108  0  0  0.101702  0  1.024257  0  0  0.094274  0.096172  0  1.02571  0
H  H25  1  0.13304806  0.87510881  0.63053924  1  0  0.090256  0  0.962983  0  0  0.09848  0  1.025065  0  0  0.101754  0  1.024213  0  0  0.094308  0.096223  0  1.025669  0
H  H26  1  0.78772838  0.32048837  0.46141417  1  0  0.081583  0  0.972897  0  0  0.092194  0  1.038956  0  0  0.095507  0  1.036062  0  0  0.096306  0.089971  0  1.040655  0
H  H27  1  0.21228609  0.67952451  0.53859970  1  0  0.081564  0  0.972939  0  0  0.092188  0  1.038981  0  0  0.095507  0  1.036089  0  0  0.096287  0.089966  0  1.040679  0
H  H28  1  0.65962376  0.09508333  0.70283345  1  0  0.106283  0  0.943246  0  0  0.112663  0  1.009497  0  0  0.117498  0  1.004905  0  0  0.1049  0.10927  0  1.012792  0
H  H29  1  0.34039049  0.90491058  0.29717377  1  0  0.106306  0  0.943286  0  0  0.112659  0  1.009539  0  0  0.117487  0  1.004968  0  0  0.104912  0.10927  0  1.012833  0
C  C30  1  0.71903786  0.66860466  0.00267625  1  0  0.155377  0  3.815147  0  0  0.152364  0  4.060369  0  0  0.156049  0  4.084116  0  0  0.087935  0.149665  0  4.044519  0
C  C31  1  0.28096059  0.33140218  0.99732578  1  0  0.155372  0  3.814926  0  0  0.152472  0  4.059926  0  0  0.156156  0  4.083674  0  0  0.087953  0.149772  0  4.044076  0
C  C32  1  0.84582339  0.62217230  0.02893792  1  0  -0.129861  0  3.742011  0  0  -0.15156  0  3.996102  0  0  -0.153243  0  4.01514  0  0  -0.094789  -0.15024  0  3.983209  0
C  C33  1  0.15417015  0.37783638  0.97107069  1  0  -0.129909  0  3.742265  0  0  -0.151639  0  3.996359  0  0  -0.153319  0  4.015393  0  0  -0.094835  -0.150317  0  3.983464  0
C  C34  1  0.90439638  0.62178742  0.14278947  1  0  -0.091752  0  3.79655  0  0  -0.109911  0  4.057735  0  0  -0.113113  0  4.081992  0  0  -0.108453  -0.107901  0  4.041451  0
C  C35  1  0.09561272  0.37823436  0.85722301  1  0  -0.091818  0  3.796919  0  0  -0.110045  0  4.058134  0  0  -0.113246  0  4.08239  0  0  -0.108465  -0.108037  0  4.041855  0
C  C36  1  0.83511689  0.66155857  0.22749746  1  0  -0.068873  0  3.785717  0  0  -0.086875  0  4.043554  0  0  -0.090075  0  4.069649  0  0  -0.103717  -0.08467  0  4.026122  0
C  C37  1  0.16487010  0.33844445  0.77250193  1  0  -0.068928  0  3.785824  0  0  -0.086925  0  4.043684  0  0  -0.090136  0  4.069801  0  0  -0.103715  -0.084719  0  4.026258  0
C  C38  1  0.70475368  0.70350765  0.20138146  1  0  -0.147047  0  3.729838  0  0  -0.163124  0  3.975722  0  0  -0.166348  0  3.99619  0  0  -0.093666  -0.160882  0  3.961954  0
C  C39  1  0.29523957  0.29649784  0.79860899  1  0  -0.146778  0  3.729913  0  0  -0.162921  0  3.975745  0  0  -0.166159  0  3.996197  0  0  -0.093621  -0.160682  0  3.961982  0
C  C40  1  0.65067847  0.70834723  0.08846855  1  0  0.16668  0  3.77199  0  0  0.16004  0  4.014371  0  0  0.163917  0  4.036517  0  0  0.094943  0.157154  0  3.999918  0
C  C41  1  0.34931356  0.29165618  0.91152379  1  0  0.166625  0  3.771879  0  0  0.160008  0  4.014093  0  0  0.16388  0  4.036245  0  0  0.095037  0.157125  0  3.99964  0
C  C42  1  0.52477929  0.72893064  0.92090764  1  0  0.404672  0  3.703498  0  0  0.369133  0  3.990294  0  0  0.388216  0  4.001046  0  0  0.239564  0.356784  0  3.981046  0
C  C43  1  0.47522403  0.27107233  0.07908996  1  0  0.404718  0  3.703366  0  0  0.369125  0  3.990177  0  0  0.388205  0  4.000918  0  0  0.239532  0.356789  0  3.980928  0
C  C44  1  0.41859704  0.76321935  0.83087226  1  0  -0.139015  0  3.643769  0  0  -0.212358  0  3.887317  0  0  -0.20203  0  3.897675  0  0  -0.032092  -0.212625  0  3.882408  0
C  C45  1  0.58140091  0.23678813  0.16911531  1  0  -0.138942  0  3.643789  0  0  -0.212472  0  3.887406  0  0  -0.2021  0  3.897774  0  0  -0.032058  -0.212768  0  3.882528  0
C  C46  1  0.09317603  0.69228643  0.77133460  1  0  0.161087  0  3.624966  0  0  0.083291  0  3.893881  0  0  0.105757  0  3.909862  0  0  0.186255  0.075236  0  3.88537  0
C  C47  1  0.90681620  0.30769281  0.22865529  1  0  0.161277  0  3.625051  0  0  0.083459  0  3.893985  0  0  0.105973  0  3.909975  0  0  0.186264  0.075395  0  3.885479  0
C  C48  1  0.73154393  0.86565094  0.62362141  1  0  0.648956  0  3.916876  0  0  0.599438  0  4.202631  0  0  0.634061  0  4.196636  0  0  0.198126  0.57604  0  4.205412  0
C  C49  1  0.26845506  0.13433646  0.37637968  1  0  0.649008  0  3.916589  0  0  0.599516  0  4.202327  0  0  0.634138  0  4.196327  0  0  0.198278  0.576119  0  4.205106  0
C  C50  1  0.74438272  0.99032205  0.57694445  1  0  -0.070682  0  3.7543  0  0  -0.043413  0  3.98525  0  0  -0.053542  0  4.009083  0  0  -0.017556  -0.03704  0  3.969737  0
C  C51  1  0.25562280  0.00966272  0.42306312  1  0  -0.070448  0  3.754008  0  0  -0.043202  0  3.984938  0  0  -0.053328  0  4.008768  0  0  -0.017488  -0.036831  0  3.969425  0
C  C52  1  0.80180211  0.99923117  0.48272767  1  0  -0.044766  0  3.709985  0  0  -0.073645  0  3.960572  0  0  -0.070674  0  3.978853  0  0  -0.076109  -0.07488  0  3.947695  0
C  C53  1  0.19821412  0.00077446  0.51728233  1  0  -0.044832  0  3.709842  0  0  -0.07373  0  3.960472  0  0  -0.070761  0  3.978751  0  0  -0.076155  -0.074962  0  3.9476  0
C  C54  1  0.81690265  0.11701081  0.44045550  1  0  -0.080179  0  3.768596  0  0  -0.090125  0  4.024025  0  0  -0.094714  0  4.04425  0  0  -0.095594  -0.087283  0  4.009879  0
C  C55  1  0.18310866  0.88299031  0.55955537  1  0  -0.080175  0  3.768656  0  0  -0.090171  0  4.024081  0  0  -0.094764  0  4.044315  0  0  -0.095632  -0.087334  0  4.009942  0
C  C56  1  0.77475651  0.22664403  0.49249029  1  0  -0.06421  0  3.733345  0  0  -0.092103  0  3.984213  0  0  -0.089626  0  4.003148  0  0  -0.086226  -0.092789  0  3.970569  0
C  C57  1  0.22525134  0.77335912  0.50751862  1  0  -0.064181  0  3.733595  0  0  -0.092057  0  3.984486  0  0  -0.089595  0  4.003436  0  0  -0.086179  -0.092741  0  3.970842  0
C  C58  1  0.71753551  0.21922756  0.58735080  1  0  -0.08478  0  3.775495  0  0  -0.057967  0  4.00918  0  0  -0.068376  0  4.034363  0  0  -0.025397  -0.051558  0  3.993047  0
C  C59  1  0.28246422  0.78076558  0.41266085  1  0  -0.084686  0  3.775482  0  0  -0.05793  0  4.009243  0  0  -0.068333  0  4.034428  0  0  -0.025374  -0.051521  0  3.993108  0
C  C60  1  0.70236113  0.10051688  0.62871930  1  0  -0.047188  0  3.697033  0  0  -0.0825  0  3.942126  0  0  -0.079458  0  3.961266  0  0  -0.069168  -0.084719  0  3.930433  0
C  C61  1  0.29766350  0.89948304  0.37128987  1  0  -0.04731  0  3.697159  0  0  -0.082554  0  3.942279  0  0  -0.07951  0  3.961401  0  0  -0.069183  -0.084784  0  3.930603  0
C  C62  1  0.68225080  0.34170448  0.64900140  1  0  0.632867  0  3.935771  0  0  0.581254  0  4.231969  0  0  0.6147  0  4.226793  0  0  0.196726  0.558416  0  4.234849  0
C  C63  1  0.31774268  0.65828376  0.35100762  1  0  0.632627  0  3.935991  0  0  0.580958  0  4.232311  0  0  0.614401  0  4.227142  0  0  0.19662  0.558123  0  4.235178  0
N  N64  1  0.63678239  0.68239471  0.89928156  1  0  -0.478097  0  3.148622  0  0  -0.410217  0  3.425499  0  0  -0.434998  0  3.440551  0  0  -0.349513  -0.39282  0  3.414522  0
N  N65  1  0.36321727  0.31761226  0.10072153  1  0  -0.478023  0  3.148244  0  0  -0.410212  0  3.425112  0  0  -0.434994  0  3.440163  0  0  -0.349489  -0.392816  0  3.414132  0
N  N66  1  0.52827096  0.74610498  0.03310042  1  0  -0.382232  0  3.361012  0  0  -0.332153  0  3.5993  0  0  -0.348884  0  3.609848  0  0  -0.370384  -0.320925  0  3.592277  0
N  N67  1  0.47172643  0.25390600  0.96689797  1  0  -0.382264  0  3.361346  0  0  -0.33214  0  3.599374  0  0  -0.348862  0  3.609916  0  0  -0.370413  -0.320913  0  3.592348  0
N  N68  1  0.26610755  0.76830557  0.85028463  1  0  0.043802  0  3.544328  0  0  0.157724  0  3.742356  0  0  0.116918  0  3.802119  0  0  -0.116357  0.165329  0  3.726216  0
N  N69  1  0.73389163  0.23169824  0.14971071  1  0  0.043624  0  3.54433  0  0  0.157654  0  3.742227  0  0  0.116711  0  3.802165  0  0  -0.116432  0.165268  0  3.72609  0
N  N70  1  0.28398883  0.86884671  0.95322976  1  0  -0.115573  0  2.850962  0  0  -0.134512  0  3.145898  0  0  -0.12455  0  3.159476  0  0  -0.068931  -0.134968  0  3.140966  0
N  N71  1  0.71600953  0.13117142  0.04675130  1  0  -0.115737  0  2.850857  0  0  -0.134689  0  3.145742  0  0  -0.124688  0  3.159342  0  0  -0.068989  -0.135145  0  3.140811  0
N  N72  1  0.12555971  0.85245409  0.93563530  1  0  -0.003856  0  2.877216  0  0  -0.007179  0  3.175915  0  0  -0.002036  0  3.181223  0  0  -0.055387  -0.010531  0  3.170493  0
N  N73  1  0.87443122  0.14754897  0.06434394  1  0  -0.003712  0  2.8771  0  0  -0.006994  0  3.175705  0  0  -0.001844  0  3.180994  0  0  -0.055339  -0.010349  0  3.170288  0
N  N74  1  0.00432549  0.74372174  0.82310653  1  0  -0.275059  0  3.094409  0  0  -0.221733  0  3.400619  0  0  -0.238438  0  3.409191  0  0  -0.210828  -0.210226  0  3.39234  0
N  N75  1  0.99566557  0.25625940  0.17688019  1  0  -0.275035  0  3.094189  0  0  -0.221723  0  3.400417  0  0  -0.238424  0  3.408963  0  0  -0.210749  -0.210217  0  3.392142  0
O  O76  1  0.77789135  0.77009269  0.57881281  1  0  -0.675018  0  1.984282  0  0  -0.611968  0  2.215017  0  0  -0.639314  0  2.205004  0  0  -0.333596  -0.591748  0  2.221982  0
O  O77  1  0.22210836  0.22989547  0.42117486  1  0  -0.675075  0  1.984567  0  0  -0.612018  0  2.21528  0  0  -0.639373  0  2.205293  0  0  -0.333642  -0.5918  0  2.222245  0
O  O78  1  0.67509461  0.85968956  0.70810178  1  0  -0.641664  0  1.964898  0  0  -0.575568  0  2.203738  0  0  -0.605521  0  2.194945  0  0  -0.33487  -0.553624  0  2.208331  0
O  O79  1  0.32491889  0.14031507  0.29189954  1  0  -0.64178  0  1.964807  0  0  -0.575689  0  2.203635  0  0  -0.605646  0  2.194849  0  0  -0.334975  -0.553742  0  2.208227  0
O  O80  1  0.65459159  0.34802760  0.74326146  1  0  -0.617645  0  1.893521  0  0  -0.572417  0  2.119269  0  0  -0.594777  0  2.110594  0  0  -0.327428  -0.55623  0  2.124312  0
O  O81  1  0.34540226  0.65195718  0.25674715  1  0  -0.617526  0  1.893475  0  0  -0.572303  0  2.119277  0  0  -0.594662  0  2.110604  0  0  -0.327413  -0.556116  0  2.124315  0
O  O82  1  0.69091565  0.44419386  0.60177369  1  0  -0.701359  0  2.104623  0  0  -0.618008  0  2.352006  0  0  -0.650008  0  2.341324  0  0  -0.341283  -0.594868  0  2.359893  0
O  O83  1  0.30906443  0.55578468  0.39822107  1  0  -0.701314  0  2.104934  0  0  -0.617884  0  2.352269  0  0  -0.649883  0  2.341591  0  0  -0.341249  -0.59475  0  2.36016  0
O  O84  1  0.36105160  0.50673420  0.59952204  1  0  -0.840957  0  1.85409  0  0  -0.779621  0  2.044892  0  0  -0.80221  0  2.011519  0  0  -0.590119  -0.763958  0  2.06847  0
O  O85  1  0.63894687  0.49326446  0.40047808  1  0  -0.840849  0  1.854222  0  0  -0.779508  0  2.045017  0  0  -0.8021  0  2.011644  0  0  -0.590055  -0.763843  0  2.068581  0
