# generated using pymatgen
data_InCu2H6C14I2(NO4)2
_symmetry_space_group_name_H-M   'P 1'
_cell_length_a   17.19834381
_cell_length_b   17.18900060
_cell_length_c   17.18640352
_cell_angle_alpha   115.91948885
_cell_angle_beta   106.55829378
_cell_angle_gamma   106.14546767
_symmetry_Int_Tables_number   1
_chemical_formula_structural   InCu2H6C14I2(NO4)2
_chemical_formula_sum   'In4 Cu8 H24 C56 I8 N8 O32'
_cell_volume   3873.03266220
_cell_formula_units_Z   4
loop_
 _symmetry_equiv_pos_site_id
 _symmetry_equiv_pos_as_xyz
  1  'x, y, z'
loop_
 _atom_site_type_symbol
 _atom_site_label
 _atom_site_symmetry_multiplicity
 _atom_site_fract_x
 _atom_site_fract_y
 _atom_site_fract_z
 _atom_site_occupancy
 _atom_site_pbe_bader_charge
 _atom_site_pbe_bader_spin_density
 _atom_site_pbe_cm5_charge
 _atom_site_pbe_ddec_charge
 _atom_site_pbe_ddec_spin_density
 _atom_site_pbe_ddec_sum_bond_order
 _atom_site_pbe_magmom
In  In0  1  0.10390054  0.87470067  0.47854024  1  1.858994  4e-06  0.747742  1.384795  3.8e-05  2.559627  0.0
In  In1  1  0.60526185  0.23034880  0.12521887  1  1.870505  -0.00025  0.747591  1.385055  -0.000521  2.567025  0.0
In  In2  1  0.89616854  0.37488278  0.77100387  1  1.860987  -0.000311  0.747554  1.384402  -0.001189  2.559607  0.0
In  In3  1  0.39498731  0.52025975  0.62533843  1  1.867452  -0.000217  0.747419  1.384768  -0.000526  2.566268  0.0
Cu  Cu4  1  0.44635749  0.73736724  0.31310756  1  0.489968  0.223775  0.321821  0.181425  0.299543  2.824705  0.226
Cu  Cu5  1  0.56946830  0.70272925  0.26527517  1  0.494931  0.221987  0.322033  0.182401  0.296363  2.805479  0.224
Cu  Cu6  1  0.55359882  0.86675680  0.29109653  1  0.488449  -0.224358  0.322103  0.181831  -0.284819  2.823678  -0.226
Cu  Cu7  1  0.43057250  0.69569415  0.13338572  1  0.493365  -0.22227  0.321951  0.182146  -0.281469  2.806054  -0.224
Cu  Cu8  1  0.92447829  0.88250719  0.93610224  1  0.492645  -0.242814  0.322987  0.182895  -0.310843  2.823685  -0.248
Cu  Cu9  1  0.07552974  0.01197631  0.95800663  1  0.493628  -0.242818  0.322886  0.183023  -0.310769  2.823348  -0.248
Cu  Cu10  1  0.06233924  0.04736535  0.11713395  1  0.49222  -0.236398  0.321811  0.182556  -0.301565  2.79864  -0.242
Cu  Cu11  1  0.93760319  0.05478868  0.98485560  1  0.494875  -0.236493  0.322042  0.182839  -0.30151  2.799294  -0.242
H  H12  1  0.31032160  0.79908213  0.36441049  1  0.114533  0.002047  0.113906  0.099116  0.001237  1.019507  0.001
H  H13  1  0.56542241  0.51075565  0.20195771  1  0.174162  0.002988  0.114542  0.099497  0.001973  1.015753  0.001
H  H14  1  0.68957617  0.05411825  0.48877797  1  0.142993  -0.002051  0.113734  0.098793  -0.001189  1.020122  -0.001
H  H15  1  0.43454834  0.63656645  0.94545307  1  0.117543  -0.003033  0.114367  0.099381  -0.001886  1.016586  -0.001
H  H16  1  0.93422075  0.69504345  0.88462599  1  0.160293  -0.002229  0.114055  0.099044  -0.00118  1.01759  -0.001
H  H17  1  0.06580196  0.95071268  0.76072811  1  0.124538  -0.00222  0.11404  0.098553  -0.001175  1.018307  -0.001
H  H18  1  0.19137128  0.23934218  0.30520353  1  0.115511  -0.003004  0.114917  0.099599  -0.001864  1.015066  -0.001
H  H19  1  0.80854209  0.11362834  0.04783987  1  0.124752  -0.003014  0.114847  0.099619  -0.001877  1.014923  -0.001
H  H20  1  0.26815792  0.69892295  0.54622252  1  0.159178  0.000531  0.133214  0.147701  0.000302  0.958699  0.0
H  H21  1  0.84780367  0.57016181  0.30140063  1  0.162352  0.000304  0.132894  0.147093  0.000173  0.958598  0.0
H  H22  1  0.73189999  0.27798459  0.43077046  1  0.159775  -0.000555  0.132895  0.14694  -0.000307  0.95982  0.0
H  H23  1  0.15215111  0.45347150  0.72230196  1  0.180302  -0.000305  0.132805  0.146831  -0.000167  0.958903  0.0
H  H24  1  0.65222592  0.47136042  0.70353186  1  0.172183  -0.000514  0.13333  0.147747  -0.000288  0.959213  0.0
H  H25  1  0.34779529  0.05119671  0.81918454  1  0.161851  -0.00051  0.133304  0.147799  -0.000272  0.959037  0.0
H  H26  1  0.23134065  0.18036156  0.52851162  1  0.201054  -0.000324  0.133175  0.14689  -0.000177  0.959772  0.0
H  H27  1  0.76866420  0.29714303  0.94905112  1  0.155094  -0.000314  0.133075  0.146808  -0.000168  0.959587  0.0
H  H28  1  0.45247024  0.65463791  0.42653405  1  0.12652  0.001491  0.11834  0.09888  0.000621  1.002152  0.001
H  H29  1  0.76923643  0.79705019  0.34456861  1  0.133296  0.002062  0.117547  0.098357  0.001295  1.002697  0.001
H  H30  1  0.54744830  0.97401471  0.20213125  1  0.117328  -0.001528  0.118391  0.098667  -0.000607  1.002463  -0.001
H  H31  1  0.23079451  0.57522538  0.02788364  1  0.133842  -0.002098  0.117465  0.098415  -0.001244  1.00215  -0.001
H  H32  1  0.72785902  0.77546069  0.82319886  1  0.131349  -0.001664  0.11817  0.098417  -0.000784  1.001809  -0.001
H  H33  1  0.27213371  0.09571906  0.04773415  1  0.133702  -0.00167  0.118193  0.098897  -0.000804  1.001789  -0.001
H  H34  1  0.04817704  0.95311770  0.22300026  1  0.145226  -0.002428  0.117297  0.097597  -0.001525  1.002802  -0.001
H  H35  1  0.95169433  0.17475300  0.90476425  1  0.136424  -0.002443  0.117514  0.097796  -0.001538  1.002255  -0.001
C  C36  1  0.32466683  0.76306738  0.40133234  1  0.49283  7.7e-05  0.059459  0.081582  0.000792  3.848505  0.001
C  C37  1  0.63799197  0.56139933  0.23758830  1  0.437092  -9.7e-05  0.059015  0.08216  0.000643  3.845495  0.001
C  C38  1  0.67527761  0.07670056  0.43844042  1  0.468626  -0.000165  0.05976  0.081961  -0.00066  3.850791  -0.001
C  C39  1  0.36198359  0.59955304  0.92346126  1  0.517155  9.6e-05  0.059229  0.081981  -0.000493  3.845776  -0.001
C  C40  1  0.86131721  0.67257335  0.84796327  1  0.506218  -7.6e-05  0.059746  0.082563  -0.000682  3.84866  -0.001
C  C41  1  0.13869644  0.98691191  0.81123389  1  0.488339  -0.000108  0.059731  0.082852  -0.000641  3.850148  -0.001
C  C42  1  0.17641337  0.18876051  0.32720578  1  0.521716  0.000117  0.058424  0.08221  -0.000456  3.847206  -0.001
C  C43  1  0.82352816  0.15061734  0.01221996  1  0.500603  0.000161  0.058294  0.082064  -0.000416  3.84625  0.0
C  C44  1  0.28114996  0.75345366  0.45618582  1  0.027889  0.005492  0.007753  -0.037421  0.004108  3.928703  0.005
C  C45  1  0.70305234  0.52799109  0.24691856  1  -0.063697  0.004406  0.006454  -0.039976  0.003245  3.93317  0.004
C  C46  1  0.71884704  0.17506793  0.47237577  1  0.035159  -0.005703  0.007714  -0.037926  -0.004042  3.930533  -0.005
C  C47  1  0.29690095  0.54380667  0.82493334  1  0.0143  -0.004818  0.006376  -0.039503  -0.003361  3.932911  -0.004
C  C48  1  0.79679643  0.57423092  0.79322352  1  -0.082133  -0.00614  0.007426  -0.038699  -0.004247  3.92974  -0.005
C  C49  1  0.20322796  0.99653575  0.77743710  1  0.037981  -0.005964  0.007073  -0.039433  -0.00419  3.930663  -0.005
C  C50  1  0.21909085  0.22234066  0.42577032  1  -0.001205  -0.004797  0.007032  -0.03868  -0.003317  3.933439  -0.004
C  C51  1  0.78091676  0.20653935  0.00317774  1  0.015395  -0.004588  0.006904  -0.039109  -0.003197  3.933549  -0.004
C  C52  1  0.30135323  0.70737744  0.50304763  1  -0.00416  -0.002579  -0.028256  -0.0323  -0.001719  3.821851  -0.002
C  C53  1  0.79564184  0.59445842  0.29278147  1  0.075341  -0.002369  -0.02794  -0.030513  -0.001607  3.82084  -0.002
C  C54  1  0.69865848  0.20164168  0.40603347  1  0.00068  0.002487  -0.027973  -0.030935  0.001744  3.822465  0.002
C  C55  1  0.20433890  0.49704690  0.79879994  1  -0.026782  0.002263  -0.027767  -0.030307  0.001611  3.82032  0.001
C  C56  1  0.70390135  0.54771002  0.74661059  1  0.029322  0.002627  -0.028272  -0.031768  0.001855  3.822023  0.002
C  C57  1  0.29612674  0.04274304  0.84386456  1  -0.018531  0.00265  -0.028436  -0.031792  0.001874  3.821863  0.002
C  C58  1  0.19855021  0.15593685  0.45198728  1  -0.037994  0.00243  -0.028786  -0.031273  0.001732  3.823288  0.002
C  C59  1  0.80143638  0.25338331  0.95736887  1  -0.014604  0.002324  -0.028439  -0.030916  0.001657  3.822391  0.002
C  C60  1  0.36407357  0.67176595  0.49295270  1  0.061933  0.005134  0.005858  -0.037695  0.003874  3.928238  0.005
C  C61  1  0.82003782  0.69244837  0.32796361  1  0.026531  0.005264  0.005141  -0.039986  0.003887  3.927959  0.004
C  C62  1  0.63592778  0.12881156  0.30764355  1  0.031241  -0.005791  0.005814  -0.038057  -0.00409  3.92878  -0.005
C  C63  1  0.17995230  0.50782796  0.87239638  1  0.004445  -0.005911  0.005361  -0.039722  -0.004114  3.927554  -0.005
C  C64  1  0.67847109  0.62063846  0.75685746  1  0.041093  -0.005807  0.005858  -0.038869  -0.004066  3.931697  -0.005
C  C65  1  0.32152483  0.07849451  0.94227645  1  0.015642  -0.006511  0.005863  -0.038266  -0.004522  3.930106  -0.005
C  C66  1  0.13595682  0.05788928  0.37845198  1  0.077661  -0.005194  0.005524  -0.040073  -0.003703  3.926917  -0.004
C  C67  1  0.86400791  0.24247847  0.92191418  1  0.074869  -0.005852  0.005871  -0.039518  -0.004138  3.92597  -0.005
C  C68  1  0.40413788  0.68302573  0.43616767  1  0.424963  0.00024  0.054963  0.072823  0.000628  3.868014  0.0
C  C69  1  0.75129257  0.72069555  0.31667105  1  0.463839  -0.000356  0.054798  0.07254  0.000391  3.86963  0.0
C  C70  1  0.59580366  0.03198780  0.27886589  1  0.432528  -0.00029  0.055175  0.073241  -0.000511  3.869231  0.0
C  C71  1  0.24871381  0.56526800  0.96945114  1  0.474512  0.000349  0.0547  0.072414  -0.000245  3.86915  0.0
C  C72  1  0.74658062  0.71745013  0.81350377  1  0.417618  -6.2e-05  0.055059  0.074071  -0.000347  3.869777  0.0
C  C73  1  0.25340432  0.06719863  0.97094863  1  0.444314  -2.4e-05  0.054887  0.073029  -0.000364  3.869664  0.0
C  C74  1  0.09648151  0.02950856  0.28135711  1  0.395627  0.000189  0.055202  0.074722  -0.000199  3.86901  0.0
C  C75  1  0.90342557  0.18480292  0.93289295  1  0.418237  0.000232  0.054805  0.074342  -0.000191  3.867721  0.0
C  C76  1  0.21325635  0.79139132  0.46351457  1  1.574228  0.000626  0.214998  0.555899  0.000467  4.233361  0.0
C  C77  1  0.67304472  0.42236046  0.20878517  1  1.579285  0.000677  0.216332  0.558392  0.000474  4.232658  0.0
C  C78  1  0.78675691  0.25033757  0.57827087  1  1.572865  -0.000501  0.214853  0.555772  -0.000357  4.234389  0.0
C  C79  1  0.32689190  0.53577460  0.74933089  1  1.564615  -0.000639  0.21608  0.557778  -0.000437  4.234507  0.0
C  C80  1  0.82730309  0.49882386  0.78552329  1  1.571126  -0.000518  0.215881  0.557707  -0.000363  4.231323  0.0
C  C81  1  0.17273846  0.95820157  0.67144656  1  1.580147  -0.000659  0.216073  0.558035  -0.000443  4.231524  0.0
C  C82  1  0.28645084  0.32801305  0.50149349  1  1.563096  -0.000681  0.216351  0.557804  -0.000457  4.232713  0.0
C  C83  1  0.71360036  0.21486348  0.04148585  1  1.566106  -0.00066  0.216435  0.557753  -0.000439  4.233459  0.0
C  C84  1  0.38685687  0.61849806  0.53827296  1  1.589402  0.000974  0.215023  0.559536  0.000727  4.238729  0.001
C  C85  1  0.91836409  0.76864559  0.38083131  1  1.56229  0.000975  0.214799  0.560853  0.000749  4.235703  0.001
C  C86  1  0.61325046  0.15134568  0.23157711  1  1.612246  -0.000797  0.21499  0.560353  -0.000633  4.239  0.0
C  C87  1  0.08163239  0.46246939  0.85022177  1  1.588078  -0.000958  0.214712  0.560712  -0.00074  4.237671  0.0
C  C88  1  0.57994242  0.59818338  0.71176566  1  1.609334  -0.000866  0.214798  0.560587  -0.000625  4.237785  0.0
C  C89  1  0.42006295  0.13181882  0.01842633  1  1.608792  -0.000729  0.215056  0.559902  -0.000576  4.238124  0.0
C  C90  1  0.11281155  0.98184776  0.40078390  1  1.581709  -0.000943  0.21317  0.55712  -0.000658  4.237957  -0.001
C  C91  1  0.88724255  0.28808777  0.86913812  1  1.56599  -0.000927  0.2134  0.557767  -0.000694  4.238205  0.0
I  I92  1  0.40509869  0.55872718  0.18068311  1  -0.251205  0.100178  -0.069293  -0.094938  0.093305  1.762555  0.062
I  I93  1  0.62163604  0.84838078  0.44298959  1  -0.248786  0.123056  -0.066634  -0.090908  0.11445  1.76617  0.077
I  I94  1  0.59495466  0.77556873  0.15381830  1  -0.248513  -0.100755  -0.069211  -0.094913  -0.087462  1.761514  -0.063
I  I95  1  0.37833828  0.82117548  0.22671464  1  -0.244356  -0.1238  -0.066139  -0.090238  -0.107938  1.766474  -0.078
I  I96  1  0.87859521  0.97441111  0.06899219  1  -0.245452  -0.155218  -0.068376  -0.093304  -0.136351  1.769796  -0.098
I  I97  1  0.12132977  0.19063840  0.09592183  1  -0.248878  -0.154923  -0.068432  -0.093335  -0.136105  1.770143  -0.098
I  I98  1  0.09413277  0.90143902  0.02258399  1  -0.245168  -0.160595  -0.064759  -0.087993  -0.14119  1.775524  -0.101
I  I99  1  0.90587090  0.92860402  0.80703359  1  -0.248798  -0.160442  -0.065021  -0.088322  -0.141124  1.774987  -0.101
N  N100  1  0.38474641  0.72800481  0.39137218  1  -1.231076  0.06196  -0.363051  -0.163892  0.042839  3.680159  0.052
N  N101  1  0.66183811  0.65625137  0.27238129  1  -1.23093  0.058023  -0.363191  -0.16353  0.040042  3.677488  0.049
N  N102  1  0.61516740  0.00662020  0.34326159  1  -1.229867  -0.062038  -0.363607  -0.164071  -0.040726  3.681664  -0.052
N  N103  1  0.33815188  0.61043517  0.99446485  1  -1.239195  -0.05813  -0.363377  -0.163723  -0.038069  3.677774  -0.049
N  N104  1  0.83631032  0.74273610  0.85804827  1  -1.220913  -0.061248  -0.363216  -0.165234  -0.040495  3.68185  -0.052
N  N105  1  0.16367773  0.02209042  0.90645514  1  -1.230833  -0.061265  -0.362971  -0.16456  -0.040458  3.681969  -0.052
N  N106  1  0.11649730  0.09385524  0.25618986  1  -1.234417  -0.056877  -0.362302  -0.165239  -0.037454  3.67881  -0.048
N  N107  1  0.88339704  0.13955769  0.97719002  1  -1.230892  -0.056921  -0.362285  -0.165336  -0.037475  3.677815  -0.048
O  O108  1  0.20584833  0.84374464  0.42938236  1  -1.127105  -8.3e-05  -0.294298  -0.545309  -8.6e-05  2.150538  0.0
O  O109  1  0.58654791  0.36292680  0.15638365  1  -1.125212  -0.00091  -0.294298  -0.545848  -0.000623  2.151363  -0.001
O  O110  1  0.79419035  0.22368884  0.63809544  1  -1.131981  -0.001277  -0.294247  -0.544845  -0.000728  2.150833  -0.001
O  O111  1  0.41339523  0.56996463  0.77646333  1  -1.121669  -0.0018  -0.294322  -0.545742  -0.001053  2.152535  -0.001
O  O112  1  0.91381702  0.52567175  0.82025099  1  -1.12519  -0.001334  -0.294789  -0.545954  -0.000747  2.150337  -0.001
O  O113  1  0.08621276  0.90635639  0.61173471  1  -1.132775  8.4e-05  -0.295041  -0.546242  0.00013  2.150093  0.0
O  O114  1  0.29383392  0.38736314  0.47426759  1  -1.122619  0.000826  -0.294309  -0.545611  0.000654  2.151365  0.001
O  O115  1  0.70633033  0.18036141  0.09355513  1  -1.11778  -0.001734  -0.294244  -0.545649  -0.001006  2.15193  -0.001
O  O116  1  0.16607494  0.77131553  0.50271895  1  -1.124093  0.010266  -0.281557  -0.51367  0.006783  2.112282  0.008
O  O117  1  0.73252930  0.39510226  0.22863790  1  -1.13056  0.006654  -0.283268  -0.516016  0.004395  2.114373  0.005
O  O118  1  0.83393557  0.33675063  0.60538700  1  -1.124443  -0.016143  -0.281446  -0.513799  -0.010104  2.113459  -0.013
O  O119  1  0.26739002  0.49613631  0.66254955  1  -1.131368  -0.009947  -0.283122  -0.515719  -0.006208  2.114123  -0.008
O  O120  1  0.76791741  0.41225036  0.74545465  1  -1.126905  -0.016386  -0.281956  -0.514607  -0.010257  2.11172  -0.014
O  O121  1  0.23210567  0.97745140  0.64425204  1  -1.126372  -0.010162  -0.281942  -0.514663  -0.006365  2.112533  -0.008
O  O122  1  0.33310911  0.35538552  0.58841186  1  -1.126391  -0.009865  -0.284106  -0.517005  -0.00616  2.114309  -0.008
O  O123  1  0.66688422  0.25501140  0.02212122  1  -1.128508  -0.007755  -0.28391  -0.516661  -0.004845  2.114635  -0.006
O  O124  1  0.35387870  0.61816007  0.59694873  1  -1.122009  0.001015  -0.287235  -0.53576  0.000667  2.175976  0.001
O  O125  1  0.97780069  0.73629142  0.38141927  1  -1.107915  0.003802  -0.287267  -0.536081  0.002488  2.175141  0.003
O  O126  1  0.64631329  0.24299733  0.26421326  1  -1.118133  -0.001544  -0.286997  -0.536051  -0.0009  2.176808  -0.001
O  O127  1  0.02219011  0.40359913  0.75838186  1  -1.120492  -0.004318  -0.287481  -0.536101  -0.002641  2.174467  -0.004
O  O128  1  0.52085055  0.50658606  0.65317426  1  -1.125153  -0.003008  -0.286885  -0.535537  -0.001849  2.174611  -0.003
O  O129  1  0.47916734  0.13237762  0.98595240  1  -1.131473  -0.003244  -0.287181  -0.535768  -0.001989  2.175825  -0.003
O  O130  1  0.14572719  0.01413009  0.49256288  1  -1.11222  -0.003872  -0.285586  -0.532777  -0.002409  2.174456  -0.003
O  O131  1  0.85441503  0.34703124  0.86866276  1  -1.112009  -0.004366  -0.285712  -0.533206  -0.00268  2.173921  -0.004
O  O132  1  0.43336846  0.57582981  0.51673334  1  -1.134049  0.00204  -0.295665  -0.529551  0.001305  2.091737  0.002
O  O133  1  0.93885279  0.85753922  0.42283198  1  -1.132876  0.002626  -0.2969  -0.53174  0.001634  2.089053  0.002
O  O134  1  0.56671670  0.08326901  0.14234161  1  -1.14058  -0.009736  -0.295845  -0.529986  -0.006032  2.091267  -0.008
O  O135  1  0.06110591  0.48407833  0.91860488  1  -1.136367  -0.007438  -0.296769  -0.531833  -0.004541  2.090354  -0.006
O  O136  1  0.55884871  0.66629866  0.73336816  1  -1.135804  -0.002391  -0.295724  -0.530719  -0.001414  2.09228  -0.002
O  O137  1  0.44109940  0.17436817  0.10764617  1  -1.134989  -0.009554  -0.295908  -0.530085  -0.005902  2.09149  -0.008
O  O138  1  0.06596993  0.89284704  0.33243163  1  -1.146559  -0.001825  -0.296093  -0.530946  -0.001035  2.0922  -0.001
O  O139  1  0.93404555  0.26661453  0.82697200  1  -1.132844  -0.006692  -0.296339  -0.531343  -0.004066  2.093248  -0.005
