# generated using pymatgen
data_CuH4(C5O2)2
_symmetry_space_group_name_H-M   'P 1'
_cell_length_a   12.95951178
_cell_length_b   22.41671412
_cell_length_c   22.41671428
_cell_angle_alpha   120.00026485
_cell_angle_beta   89.99999928
_cell_angle_gamma   90.00000044
_symmetry_Int_Tables_number   1
_chemical_formula_structural   CuH4(C5O2)2
_chemical_formula_sum   'Cu12 H48 C120 O48'
_cell_volume   5639.77818496
_cell_formula_units_Z   12
loop_
 _symmetry_equiv_pos_site_id
 _symmetry_equiv_pos_as_xyz
  1  'x, y, z'
loop_
 _atom_site_type_symbol
 _atom_site_label
 _atom_site_symmetry_multiplicity
 _atom_site_fract_x
 _atom_site_fract_y
 _atom_site_fract_z
 _atom_site_occupancy
 _atom_site_pbe_bader_charge
 _atom_site_pbe_bader_spin_density
 _atom_site_pbe_cm5_charge
 _atom_site_pbe_ddec_charge
 _atom_site_pbe_ddec_spin_density
 _atom_site_pbe_ddec_sum_bond_order
 _atom_site_pbe_magmom
Cu  Cu0  1  0.25000016  0.37842865  0.37843998  1  1.051557  -0.509294  0.71834  0.845758  -0.672185  2.282273  -0.507
Cu  Cu1  1  0.74999971  0.37844070  0.00001324  1  1.051496  -0.509284  0.718366  0.845853  -0.672177  2.282213  -0.507
Cu  Cu2  1  0.25000015  0.00001016  0.62157138  1  1.05132  -0.509284  0.718377  0.845845  -0.672178  2.282189  -0.507
Cu  Cu3  1  0.74999970  0.62157115  0.62155981  1  1.051551  -0.509303  0.718363  0.845805  -0.672194  2.282249  -0.507
Cu  Cu4  1  0.25000015  0.62155910  0.99998655  1  1.051426  -0.509287  0.718377  0.845867  -0.672181  2.282147  -0.507
Cu  Cu5  1  0.74999971  0.99998939  0.37842868  1  1.051282  -0.509287  0.718364  0.845825  -0.672183  2.282122  -0.507
Cu  Cu6  1  0.25000016  0.26885553  0.26886325  1  1.029858  0.510846  0.691919  0.821867  0.671881  2.12075  0.51
Cu  Cu7  1  0.74999971  0.26885811  0.00000663  1  1.032092  0.510831  0.691953  0.821906  0.671884  2.120678  0.51
Cu  Cu8  1  0.25000015  0.00000687  0.73114870  1  1.031127  0.510818  0.691953  0.821898  0.671867  2.120691  0.51
Cu  Cu9  1  0.74999970  0.73114446  0.73113725  1  1.02979  0.510863  0.691886  0.821807  0.671908  2.12083  0.51
Cu  Cu10  1  0.25000015  0.73114195  0.99999290  1  1.031999  0.51083  0.691954  0.821926  0.671882  2.120666  0.51
Cu  Cu11  1  0.74999971  0.99999293  0.26885109  1  1.031193  0.510821  0.69194  0.821898  0.671871  2.120665  0.51
H  H12  1  0.09580916  0.33224614  0.50713090  1  0.120024  -0.00026  0.109733  0.118924  -0.00027  1.004397  0.0
H  H13  1  0.59580871  0.50713107  0.17488598  1  0.115452  -0.000269  0.109637  0.118797  -0.00027  1.004334  0.0
H  H14  1  0.09580839  0.17488559  0.66775421  1  0.103039  -0.000269  0.109644  0.118794  -0.00027  1.004405  0.0
H  H15  1  0.59580948  0.66775392  0.49286864  1  0.119911  -0.00026  0.109677  0.118833  -0.00027  1.004349  0.0
H  H16  1  0.09580839  0.49286944  0.82511401  1  0.115472  -0.000269  0.109648  0.118823  -0.00027  1.004338  0.0
H  H17  1  0.59580794  0.82511466  0.33224604  1  0.103042  -0.000269  0.109645  0.118817  -0.00027  1.00441  0.0
H  H18  1  0.40418807  0.82512232  0.49287362  1  0.114582  -0.000269  0.109762  0.11891  -0.00027  1.00471  0.0
H  H19  1  0.90418606  0.49287276  0.66774979  1  0.12016  -0.00026  0.109741  0.118848  -0.00027  1.004745  0.0
H  H20  1  0.40418652  0.66774888  0.17487665  1  0.102945  -0.000269  0.109722  0.118831  -0.00027  1.004729  0.0
H  H21  1  0.90418761  0.17487793  0.50712662  1  0.11457  -0.000269  0.109746  0.118899  -0.00027  1.004703  0.0
H  H22  1  0.40418652  0.50712730  0.33224975  1  0.120168  -0.00026  0.109739  0.118859  -0.00027  1.004752  0.0
H  H23  1  0.90418683  0.33225093  0.82512314  1  0.102796  -0.000269  0.109727  0.118843  -0.00027  1.004725  0.0
H  H24  1  0.90419070  0.66775392  0.49286864  1  0.119912  -0.00026  0.109679  0.118836  -0.00027  1.004345  0.0
H  H25  1  0.40419192  0.49286944  0.82511401  1  0.115473  -0.000269  0.109647  0.11882  -0.00027  1.004342  0.0
H  H26  1  0.90419224  0.82511466  0.33224604  1  0.103037  -0.000269  0.109645  0.118815  -0.00027  1.004419  0.0
H  H27  1  0.40419038  0.33224614  0.50713090  1  0.120019  -0.00026  0.10974  0.118934  -0.00027  1.004388  0.0
H  H28  1  0.90419147  0.50713107  0.17488598  1  0.115453  -0.000269  0.109639  0.118795  -0.00027  1.004334  0.0
H  H29  1  0.40419192  0.17488559  0.66775420  1  0.103042  -0.000269  0.109625  0.118757  -0.00027  1.004393  0.0
H  H30  1  0.59581179  0.17487793  0.50712662  1  0.114574  -0.000269  0.109747  0.118902  -0.00027  1.004702  0.0
H  H31  1  0.09581379  0.50712730  0.33224975  1  0.120165  -0.00026  0.109745  0.118857  -0.00027  1.004736  0.0
H  H32  1  0.59581256  0.33225093  0.82512314  1  0.102798  -0.000269  0.109728  0.118842  -0.00027  1.004722  0.0
H  H33  1  0.09581225  0.82512232  0.49287362  1  0.114582  -0.000269  0.109764  0.118912  -0.00027  1.004708  0.0
H  H34  1  0.59581411  0.49287276  0.66774979  1  0.120163  -0.00026  0.109745  0.118851  -0.00027  1.004736  0.0
H  H35  1  0.09581380  0.66774888  0.17487665  1  0.102781  -0.000269  0.109732  0.118827  -0.00027  1.004757  0.0
H  H36  1  0.00001543  0.15772873  0.31547900  1  0.087172  0.000621  0.117778  0.133324  0.000522  0.976903  0.0
H  H37  1  0.50001575  0.31547882  0.15775122  1  0.111512  0.000618  0.117803  0.133369  0.000522  0.976885  0.0
H  H38  1  0.00001542  0.15775127  0.84227083  1  0.107572  0.000619  0.117797  0.133371  0.000522  0.976857  0.0
H  H39  1  0.50001575  0.84227152  0.68452125  1  0.087171  0.000621  0.117787  0.13336  0.000522  0.976879  0.0
H  H40  1  0.00001620  0.68452124  0.84224832  1  0.111513  0.000618  0.117782  0.133308  0.000522  0.976893  0.0
H  H41  1  0.50001653  0.84224809  0.15772852  1  0.107603  0.000619  0.117797  0.133359  0.000522  0.976888  0.0
H  H42  1  0.99998443  0.84227152  0.68452124  1  0.087171  0.000621  0.117787  0.133359  0.000522  0.97688  0.0
H  H43  1  0.49998411  0.68452124  0.84224832  1  0.111514  0.000618  0.117782  0.133308  0.000522  0.976893  0.0
H  H44  1  0.99998366  0.84224809  0.15772852  1  0.107604  0.000619  0.11781  0.133376  0.000522  0.976872  0.0
H  H45  1  0.49998411  0.15772873  0.31547899  1  0.087172  0.000621  0.117778  0.133326  0.000522  0.976903  0.0
H  H46  1  0.99998443  0.31547882  0.15775121  1  0.111512  0.000618  0.117803  0.133375  0.000522  0.976886  0.0
H  H47  1  0.49998488  0.15775127  0.84227083  1  0.107572  0.000619  0.117793  0.133363  0.000522  0.976859  0.0
H  H48  1  0.00000077  0.20536991  0.60269198  1  0.10662  -1e-06  0.105154  0.108973  1.2e-05  1.010789  0.0
H  H49  1  0.50000032  0.60269263  0.39732234  1  0.071566  -1e-06  0.105157  0.108955  1.2e-05  1.0108  0.0
H  H50  1  0.99999908  0.39732287  0.79463000  1  0.066832  -0.0  0.105146  0.108954  1.2e-05  1.010806  0.0
H  H51  1  0.50000032  0.79462945  0.39730737  1  0.106633  -1e-06  0.105154  0.108973  1.2e-05  1.010811  0.0
H  H52  1  0.99999986  0.39730717  0.60267746  1  0.071558  -1e-06  0.105158  0.108989  1.2e-05  1.010767  0.0
H  H53  1  0.49999955  0.60267693  0.20536980  1  0.066831  -0.0  0.105144  0.108952  1.2e-05  1.010819  0.0
H  H54  1  0.99999986  0.79462945  0.39730737  1  0.106633  -1e-06  0.105154  0.108975  1.2e-05  1.01081  0.0
H  H55  1  0.49999954  0.39730717  0.60267746  1  0.071558  -1e-06  0.105158  0.108985  1.2e-05  1.010769  0.0
H  H56  1  0.00000077  0.60267693  0.20536980  1  0.066831  -0.0  0.105139  0.108947  1.2e-05  1.010821  0.0
H  H57  1  0.49999877  0.20536991  0.60269198  1  0.10662  -1e-06  0.105154  0.108972  1.2e-05  1.010789  0.0
H  H58  1  0.99999986  0.60269263  0.39732233  1  0.071566  -1e-06  0.10516  0.108985  1.2e-05  1.010772  0.0
H  H59  1  0.50000031  0.39732287  0.79463000  1  0.066832  -0.0  0.10515  0.108965  1.2e-05  1.010802  0.0
C  C60  1  0.05251972  0.28429979  0.48054240  1  -0.040761  -0.000314  -0.071224  -0.123362  -0.000258  3.899944  0.0
C  C61  1  0.55252004  0.48054140  0.19624292  1  -0.136038  -0.000238  -0.071158  -0.123196  -0.000258  3.899819  0.0
C  C62  1  0.05251972  0.19624318  0.71570054  1  0.025923  -0.000317  -0.071163  -0.123196  -0.000258  3.899858  0.0
C  C63  1  0.55252004  0.71570065  0.51945855  1  -0.040599  -0.000313  -0.071224  -0.123348  -0.000258  3.899849  0.0
C  C64  1  0.05251972  0.51945840  0.80375688  1  -0.136178  -0.000237  -0.071161  -0.123225  -0.000258  3.899839  0.0
C  C65  1  0.55252004  0.80375663  0.28429925  1  0.025943  -0.000317  -0.071143  -0.123227  -0.000258  3.899878  0.0
C  C66  1  0.44747673  0.80376701  0.51945719  1  -0.135037  -0.000235  -0.071421  -0.123651  -0.000257  3.900011  0.0
C  C67  1  0.94747550  0.51945746  0.71568925  1  -0.040924  -0.000312  -0.071395  -0.123545  -0.000257  3.900111  0.0
C  C68  1  0.44747751  0.71568818  0.19623235  1  0.025908  -0.000316  -0.071324  -0.123472  -0.000257  3.900089  0.0
C  C69  1  0.94747705  0.19623298  0.48054331  1  -0.13502  -0.000236  -0.071415  -0.123625  -0.000257  3.900073  0.0
C  C70  1  0.44747596  0.48054305  0.28431074  1  -0.040914  -0.000312  -0.071386  -0.123524  -0.000257  3.900119  0.0
C  C71  1  0.94747704  0.28431137  0.80376770  1  0.026083  -0.000316  -0.071329  -0.123518  -0.000257  3.900106  0.0
C  C72  1  0.94748014  0.71570065  0.51945855  1  -0.040598  -0.000313  -0.071222  -0.123342  -0.000258  3.899844  0.0
C  C73  1  0.44747981  0.51945840  0.80375688  1  -0.13618  -0.000237  -0.071162  -0.123224  -0.000258  3.899839  0.0
C  C74  1  0.94747937  0.80375663  0.28429925  1  0.025942  -0.000317  -0.071158  -0.123255  -0.000258  3.899904  0.0
C  C75  1  0.44747982  0.28429979  0.48054239  1  -0.04076  -0.000314  -0.071235  -0.123397  -0.000258  3.89997  0.0
C  C76  1  0.94748014  0.48054140  0.19624292  1  -0.136174  -0.000238  -0.071145  -0.12317  -0.000258  3.899841  0.0
C  C77  1  0.44748059  0.19624318  0.71570054  1  0.025924  -0.000318  -0.071151  -0.123156  -0.000258  3.899821  0.0
C  C78  1  0.55252313  0.19623298  0.48054331  1  -0.135041  -0.000236  -0.071415  -0.123628  -0.000257  3.900081  0.0
C  C79  1  0.05252436  0.48054305  0.28431074  1  -0.040924  -0.000312  -0.071402  -0.123555  -0.000257  3.90009  0.0
C  C80  1  0.55252312  0.28431137  0.80376770  1  0.026076  -0.000316  -0.07133  -0.123503  -0.000257  3.900105  0.0
C  C81  1  0.05252281  0.80376701  0.51945719  1  -0.135035  -0.000236  -0.071421  -0.123647  -0.000257  3.900017  0.0
C  C82  1  0.55252390  0.51945746  0.71568925  1  -0.040924  -0.000312  -0.071385  -0.123523  -0.000257  3.900098  0.0
C  C83  1  0.05252281  0.71568818  0.19623235  1  0.026068  -0.000315  -0.071341  -0.123483  -0.000257  3.900119  0.0
C  C84  1  0.11808392  0.27649048  0.37308011  1  1.540296  -0.00046  0.219517  0.582205  -0.000306  4.144892  -0.001
C  C85  1  0.61808347  0.37307875  0.09658876  1  1.533263  -0.000472  0.219518  0.582252  -0.000306  4.144875  -0.001
C  C86  1  0.11808469  0.09658931  0.72350918  1  1.534083  -0.000441  0.219546  0.582281  -0.000306  4.144823  -0.001
C  C87  1  0.61808270  0.72350970  0.62692109  1  1.540372  -0.000461  0.219467  0.582119  -0.000306  4.144919  -0.001
C  C88  1  0.11808392  0.62692176  0.90341123  1  1.533347  -0.000473  0.219505  0.582212  -0.000306  4.144935  -0.001
C  C89  1  0.61808502  0.90341049  0.27649062  1  1.534102  -0.000441  0.219506  0.582222  -0.000306  4.144883  -0.001
C  C90  1  0.38192102  0.90342715  0.62691655  1  1.533252  -0.000468  0.219567  0.582057  -0.000304  4.145212  -0.001
C  C91  1  0.88192134  0.62691793  0.72349056  1  1.540758  -0.000458  0.21951  0.582024  -0.000304  4.145422  -0.001
C  C92  1  0.38192103  0.72348942  0.09657161  1  1.53505  -0.00044  0.219536  0.582047  -0.000304  4.145258  -0.001
C  C93  1  0.88192057  0.09657310  0.37308369  1  1.533235  -0.000468  0.219573  0.58212  -0.000304  4.145256  -0.001
C  C94  1  0.38192179  0.37308232  0.27650968  1  1.540729  -0.000458  0.219516  0.581999  -0.000304  4.145431  -0.001
C  C95  1  0.88192056  0.27651013  0.90342844  1  1.535073  -0.00044  0.219481  0.582006  -0.000304  4.145393  -0.001
C  C96  1  0.88191748  0.72350970  0.62692109  1  1.540458  -0.000462  0.219471  0.582122  -0.000306  4.144911  -0.001
C  C97  1  0.38191639  0.62692176  0.90341123  1  1.533347  -0.000473  0.219492  0.58221  -0.000306  4.144975  -0.001
C  C98  1  0.88191517  0.90341049  0.27649062  1  1.534102  -0.000441  0.21951  0.582215  -0.000306  4.144887  -0.001
C  C99  1  0.38191639  0.27649048  0.37308011  1  1.540296  -0.00046  0.219517  0.582211  -0.000306  4.144889  -0.001
C  C100  1  0.88191671  0.37307875  0.09658876  1  1.533257  -0.000472  0.21951  0.582225  -0.000306  4.1449  -0.001
C  C101  1  0.38191561  0.09658931  0.72350918  1  1.534081  -0.000441  0.219559  0.582293  -0.000306  4.144798  -0.001
C  C102  1  0.61807884  0.09657310  0.37308369  1  1.533228  -0.000468  0.219573  0.582134  -0.000304  4.145234  -0.001
C  C103  1  0.11807852  0.37308232  0.27650968  1  1.540758  -0.000459  0.219528  0.582016  -0.000304  4.145394  -0.001
C  C104  1  0.61807960  0.27651013  0.90342845  1  1.535084  -0.00044  0.219465  0.581994  -0.000304  4.145423  -0.001
C  C105  1  0.11807852  0.90342715  0.62691655  1  1.533246  -0.000468  0.219574  0.58208  -0.000304  4.14523  -0.001
C  C106  1  0.61807806  0.62691793  0.72349056  1  1.540752  -0.000458  0.219516  0.582033  -0.000304  4.145404  -0.001
C  C107  1  0.11807930  0.72348942  0.09657161  1  1.535068  -0.00044  0.219553  0.582063  -0.000304  4.145175  -0.001
C  C108  1  0.05379215  0.24794148  0.40838214  1  -0.02691  0.000905  -0.012661  -0.020126  0.000608  3.972665  0.001
C  C109  1  0.55379247  0.40838020  0.16044050  1  0.053042  0.000858  -0.012686  -0.020199  0.000608  3.972724  0.001
C  C110  1  0.05379291  0.16044080  0.75205786  1  -0.0867  0.000839  -0.012642  -0.020164  0.000608  3.972598  0.001
C  C111  1  0.55379247  0.75205826  0.59161862  1  -0.027039  0.000903  -0.01262  -0.020029  0.000606  3.972542  0.001
C  C112  1  0.05379292  0.59161960  0.83955930  1  0.053004  0.000857  -0.012657  -0.020147  0.000608  3.972726  0.001
C  C113  1  0.55379247  0.83955818  0.24794008  1  -0.086966  0.000839  -0.012665  -0.020179  0.000608  3.972741  0.001
C  C114  1  0.44619814  0.83957570  0.59162105  1  0.052087  0.000858  -0.012382  -0.019477  0.00061  3.972192  0.001
C  C115  1  0.94619536  0.59162100  0.75204517  1  -0.026693  0.000905  -0.012343  -0.019467  0.000608  3.972176  0.001
C  C116  1  0.44619428  0.75204425  0.16042409  1  -0.087316  0.000839  -0.01239  -0.019543  0.000609  3.972254  0.001
C  C117  1  0.94619459  0.16042551  0.40837912  1  0.052021  0.000858  -0.012386  -0.019538  0.00061  3.972323  0.001
C  C118  1  0.44619505  0.40837881  0.24795462  1  -0.02667  0.000907  -0.012358  -0.019498  0.000609  3.972218  0.001
C  C119  1  0.94619459  0.24795466  0.83957481  1  -0.087294  0.00084  -0.01237  -0.019396  0.00061  3.972205  0.001
C  C120  1  0.94620771  0.75205826  0.59161862  1  -0.027039  0.000903  -0.012619  -0.020031  0.000606  3.972542  0.001
C  C121  1  0.44620739  0.59161960  0.83955930  1  0.053007  0.000857  -0.012657  -0.020146  0.000608  3.97273  0.001
C  C122  1  0.94620772  0.83955818  0.24794008  1  -0.086965  0.000839  -0.01265  -0.020132  0.000608  3.972754  0.001
C  C123  1  0.44620816  0.24794148  0.40838214  1  -0.026909  0.000905  -0.012663  -0.020115  0.000608  3.972667  0.001
C  C124  1  0.94620694  0.40838020  0.16044049  1  0.053042  0.000858  -0.012673  -0.020177  0.000608  3.972704  0.001
C  C125  1  0.44620739  0.16044080  0.75205786  1  -0.086706  0.000839  -0.012641  -0.020165  0.000608  3.972562  0.001
C  C126  1  0.55380558  0.16042551  0.40837912  1  0.052015  0.000858  -0.012385  -0.019551  0.00061  3.972353  0.001
C  C127  1  0.05380450  0.40837881  0.24795462  1  -0.026681  0.000907  -0.012381  -0.019498  0.000609  3.972228  0.001
C  C128  1  0.55380558  0.24795466  0.83957481  1  -0.087289  0.00084  -0.012396  -0.019454  0.00061  3.972221  0.001
C  C129  1  0.05380218  0.83957570  0.59162105  1  0.052082  0.000858  -0.012386  -0.01949  0.00061  3.9722  0.001
C  C130  1  0.55380481  0.59162100  0.75204517  1  -0.026698  0.000905  -0.012347  -0.019482  0.000608  3.972182  0.001
C  C131  1  0.05380527  0.75204425  0.16042409  1  -0.087316  0.000839  -0.012376  -0.019513  0.000609  3.972234  0.001
C  C132  1  0.99999754  0.29700001  0.59400925  1  0.05294  0.000345  -0.006272  0.080096  0.000267  4.031501  0.0
C  C133  1  0.49999646  0.59400856  0.29700962  1  -0.030791  0.000363  -0.006282  0.080021  0.000267  4.031758  0.0
C  C134  1  0.99999831  0.29700967  0.70299994  1  -0.185046  0.000371  -0.006316  0.080063  0.000267  4.031746  0.0
C  C135  1  0.49999646  0.70299979  0.40599055  1  0.051934  0.000345  -0.006278  0.080034  0.000267  4.031543  0.0
C  C136  1  0.99999600  0.40599124  0.70299017  1  -0.030767  0.000363  -0.006272  0.080075  0.000267  4.03167  0.0
C  C137  1  0.49999723  0.70299013  0.29699985  1  -0.184032  0.000371  -0.006321  0.080048  0.000267  4.031607  0.0
C  C138  1  0.00000309  0.70299979  0.40599055  1  0.051891  0.000345  -0.006256  0.080068  0.000267  4.031506  0.0
C  C139  1  0.50000340  0.40599124  0.70299018  1  -0.030767  0.000363  -0.006262  0.080083  0.000267  4.031664  0.0
C  C140  1  0.00000309  0.70299013  0.29699986  1  -0.184031  0.000371  -0.006324  0.080045  0.000267  4.031613  0.0
C  C141  1  0.50000263  0.29700001  0.59400925  1  0.05294  0.000345  -0.006271  0.080066  0.000267  4.031532  0.0
C  C142  1  0.00000386  0.59400856  0.29700962  1  -0.030774  0.000363  -0.006286  0.08004  0.000267  4.031733  0.0
C  C143  1  0.50000185  0.29700967  0.70299994  1  -0.185045  0.000371  -0.006316  0.080071  0.000267  4.031746  0.0
C  C144  1  0.00000308  0.25886374  0.51773400  1  -0.054436  0.001744  -0.005263  0.065609  0.001245  4.018542  0.001
C  C145  1  0.50000186  0.51773301  0.25887098  1  0.029064  0.001727  -0.005202  0.065577  0.001245  4.018682  0.001
C  C146  1  0.00000308  0.25887082  0.74113700  1  -0.074618  0.001749  -0.005248  0.065567  0.001245  4.018611  0.001
C  C147  1  0.50000340  0.74113625  0.48226650  1  -0.054446  0.001744  -0.005232  0.065678  0.001245  4.018509  0.001
C  C148  1  0.00000154  0.48226680  0.74112881  1  0.029211  0.001727  -0.00519  0.065584  0.001245  4.01867  0.001
C  C149  1  0.50000186  0.74112828  0.25886260  1  -0.074595  0.001749  -0.005274  0.065568  0.001245  4.018618  0.001
C  C150  1  0.99999678  0.74113625  0.48226650  1  -0.054451  0.001744  -0.005238  0.065665  0.001245  4.018526  0.001
C  C151  1  0.49999877  0.48226680  0.74112881  1  0.029211  0.001727  -0.0052  0.065575  0.001245  4.018676  0.001
C  C152  1  0.99999832  0.74112828  0.25886260  1  -0.074588  0.001749  -0.005278  0.06557  0.001245  4.018578  0.001
C  C153  1  0.49999645  0.25886374  0.51773400  1  -0.054414  0.001744  -0.005261  0.065637  0.001245  4.018543  0.001
C  C154  1  0.99999832  0.51773301  0.25887098  1  0.029201  0.001727  -0.005201  0.065576  0.001245  4.018673  0.001
C  C155  1  0.49999722  0.25887082  0.74113700  1  -0.074619  0.001749  -0.005244  0.065563  0.001245  4.018617  0.001
C  C156  1  0.00000617  0.18578884  0.37160106  1  0.072561  -0.00337  -0.065202  -0.0938  -0.002173  3.8891  -0.003
C  C157  1  0.50000726  0.37160145  0.18581343  1  0.047139  -0.003367  -0.065301  -0.093943  -0.002172  3.889153  -0.003
C  C158  1  0.00000617  0.18581283  0.81421105  1  0.160184  -0.00327  -0.065305  -0.093999  -0.002173  3.88903  -0.003
C  C159  1  0.50000649  0.81421097  0.62839874  1  0.072498  -0.00337  -0.065276  -0.093974  -0.002172  3.889067  -0.003
C  C160  1  0.00000694  0.62839836  0.81418637  1  0.047173  -0.003367  -0.065298  -0.093893  -0.002172  3.889162  -0.003
C  C161  1  0.50000727  0.81418556  0.18578837  1  0.160426  -0.00327  -0.065281  -0.093883  -0.002173  3.889082  -0.003
C  C162  1  0.99999369  0.81421097  0.62839874  1  0.072499  -0.00337  -0.065276  -0.09397  -0.002172  3.889068  -0.003
C  C163  1  0.49999337  0.62839836  0.81418636  1  0.047173  -0.003367  -0.065299  -0.093892  -0.002172  3.889161  -0.003
C  C164  1  0.99999292  0.81418556  0.18578836  1  0.160422  -0.00327  -0.065296  -0.093926  -0.002173  3.889084  -0.003
C  C165  1  0.49999414  0.18578884  0.37160106  1  0.07256  -0.00337  -0.065208  -0.093805  -0.002173  3.889118  -0.003
C  C166  1  0.99999292  0.37160145  0.18581343  1  0.047129  -0.003367  -0.065297  -0.093963  -0.002172  3.889202  -0.003
C  C167  1  0.49999336  0.18581283  0.81421105  1  0.160182  -0.003271  -0.065284  -0.093956  -0.002173  3.888968  -0.003
C  C168  1  0.99999754  0.26153223  0.63077070  1  0.049572  0.000261  -0.087078  -0.179489  0.000192  3.926042  0.0
C  C169  1  0.49999646  0.63077104  0.36923768  1  -0.195224  0.000274  -0.08712  -0.179423  0.000192  3.926316  0.0
C  C170  1  0.99999677  0.36923819  0.73846739  1  0.089225  0.00026  -0.087095  -0.179438  0.000192  3.926192  0.0
C  C171  1  0.49999723  0.73846757  0.36922909  1  0.049571  0.000261  -0.087077  -0.179466  0.000192  3.926043  0.0
C  C172  1  0.99999677  0.36922902  0.63076186  1  -0.195228  0.000274  -0.087147  -0.179545  0.000192  3.926258  0.0
C  C173  1  0.49999646  0.63076117  0.26153196  1  0.089234  0.00026  -0.087054  -0.1794  0.000192  3.926155  0.0
C  C174  1  0.00000309  0.73846757  0.36922909  1  0.049617  0.000261  -0.087078  -0.179468  0.000192  3.926049  0.0
C  C175  1  0.50000263  0.36922902  0.63076186  1  -0.195227  0.000274  -0.087143  -0.17952  0.000192  3.926278  0.0
C  C176  1  0.00000309  0.63076117  0.26153196  1  0.089217  0.00026  -0.087048  -0.1794  0.000192  3.926128  0.0
C  C177  1  0.50000186  0.26153223  0.63077071  1  0.049572  0.000261  -0.087079  -0.17948  0.000192  3.926043  0.0
C  C178  1  0.00000309  0.63077104  0.36923768  1  -0.195224  0.000274  -0.087137  -0.179494  0.000192  3.926279  0.0
C  C179  1  0.50000340  0.36923819  0.73846739  1  0.089225  0.00026  -0.087108  -0.179474  0.000192  3.926201  0.0
O  O180  1  0.14322530  0.23663598  0.31026527  1  -1.090517  0.090538  -0.308484  -0.509471  0.05981  2.287994  0.082
O  O181  1  0.64322639  0.31026142  0.07362778  1  -1.089266  0.090506  -0.308488  -0.509481  0.059816  2.287945  0.082
O  O182  1  0.14322530  0.07362955  0.76336354  1  -1.089551  0.090484  -0.308492  -0.509481  0.059803  2.288037  0.082
O  O183  1  0.64322639  0.76336573  0.68973798  1  -1.090463  0.090547  -0.308451  -0.509425  0.059816  2.287994  0.082
O  O184  1  0.14322607  0.68973864  0.92637176  1  -1.089296  0.090504  -0.308512  -0.509503  0.059815  2.287962  0.082
O  O185  1  0.64322485  0.92637051  0.23663600  1  -1.089567  0.090487  -0.308489  -0.509478  0.059805  2.288011  0.082
O  O186  1  0.35677038  0.92639264  0.68974096  1  -1.088637  0.090558  -0.308824  -0.509889  0.059851  2.287835  0.082
O  O187  1  0.85676993  0.68974115  0.76334828  1  -1.090415  0.090591  -0.308763  -0.50979  0.059847  2.287979  0.082
O  O188  1  0.35677116  0.76334701  0.07360684  1  -1.090062  0.090541  -0.308822  -0.509915  0.05984  2.287914  0.082
O  O189  1  0.85676993  0.07360736  0.31025953  1  -1.088656  0.090557  -0.308826  -0.509954  0.05985  2.287853  0.082
O  O190  1  0.35677038  0.31025866  0.23665152  1  -1.090448  0.090595  -0.308771  -0.509795  0.05985  2.287973  0.082
O  O191  1  0.85677069  0.23665305  0.92639270  1  -1.090076  0.090535  -0.308752  -0.509845  0.059837  2.288117  0.082
O  O192  1  0.85677379  0.76336573  0.68973797  1  -1.090544  0.090548  -0.308447  -0.509418  0.059816  2.287987  0.082
O  O193  1  0.35677347  0.68973864  0.92637176  1  -1.089296  0.090504  -0.308497  -0.509509  0.059815  2.287997  0.082
O  O194  1  0.85677456  0.92637051  0.23663600  1  -1.089563  0.090487  -0.308486  -0.509472  0.059805  2.288003  0.082
O  O195  1  0.35677424  0.23663598  0.31026527  1  -1.090516  0.090538  -0.308488  -0.50948  0.059809  2.288  0.082
O  O196  1  0.85677379  0.31026142  0.07362778  1  -1.089357  0.090507  -0.308484  -0.509468  0.059817  2.287945  0.082
O  O197  1  0.35677501  0.07362955  0.76336354  1  -1.089551  0.090484  -0.308508  -0.509505  0.059803  2.288009  0.082
O  O198  1  0.64323025  0.07360736  0.31025953  1  -1.088655  0.090556  -0.308827  -0.509963  0.05985  2.287853  0.082
O  O199  1  0.14322993  0.31025866  0.23665152  1  -1.090437  0.090594  -0.308774  -0.509805  0.059849  2.287974  0.082
O  O200  1  0.64322870  0.23665305  0.92639270  1  -1.09008  0.090536  -0.308756  -0.509858  0.059837  2.288136  0.082
O  O201  1  0.14322993  0.92639264  0.68974097  1  -1.088634  0.090558  -0.308822  -0.509891  0.059851  2.287829  0.082
O  O202  1  0.64323025  0.68974115  0.76334828  1  -1.090415  0.090591  -0.308767  -0.509798  0.059847  2.287984  0.082
O  O203  1  0.14322917  0.76334701  0.07360684  1  -1.090062  0.09054  -0.308823  -0.509923  0.05984  2.287911  0.082
O  O204  1  0.14554715  0.33944018  0.41101625  1  -1.099597  -0.090659  -0.31896  -0.522406  -0.05958  2.352746  -0.082
O  O205  1  0.64554747  0.41101379  0.07157627  1  -1.089311  -0.090601  -0.318943  -0.522417  -0.05957  2.352861  -0.082
O  O206  1  0.14554791  0.07157524  0.66055907  1  -1.093481  -0.090624  -0.318957  -0.522427  -0.059582  2.352654  -0.082
O  O207  1  0.64554669  0.66056115  0.58898559  1  -1.099649  -0.090656  -0.318933  -0.52237  -0.059578  2.352781  -0.082
O  O208  1  0.14554714  0.58898627  0.92842327  1  -1.089369  -0.090603  -0.318934  -0.5224  -0.059572  2.35286  -0.082
O  O209  1  0.64554824  0.92842482  0.33944046  1  -1.093449  -0.09062  -0.31896  -0.522409  -0.059579  2.352741  -0.082
O  O210  1  0.35446011  0.92844094  0.58899002  1  -1.089812  -0.090551  -0.318854  -0.522222  -0.05954  2.353214  -0.082
O  O211  1  0.85446120  0.58898918  0.66054774  1  -1.100229  -0.090613  -0.318829  -0.522231  -0.059553  2.353164  -0.082
O  O212  1  0.35446012  0.66054604  0.07155705  1  -1.094081  -0.090573  -0.318815  -0.522197  -0.059551  2.353062  -0.082
O  O213  1  0.85446043  0.07155950  0.41101092  1  -1.089821  -0.090555  -0.318839  -0.522216  -0.059542  2.353182  -0.082
O  O214  1  0.35446088  0.41101062  0.33945206  1  -1.100239  -0.090605  -0.31881  -0.522183  -0.059547  2.353154  -0.082
O  O215  1  0.85445965  0.33945421  0.92844319  1  -1.094071  -0.090576  -0.318826  -0.52224  -0.059553  2.353077  -0.082
O  O216  1  0.85445271  0.66056115  0.58898558  1  -1.099645  -0.090655  -0.31893  -0.522363  -0.059578  2.352768  -0.082
O  O217  1  0.35445316  0.58898627  0.92842327  1  -1.089371  -0.090603  -0.318934  -0.522399  -0.059572  2.352867  -0.082
O  O218  1  0.85445194  0.92842482  0.33944046  1  -1.093449  -0.090621  -0.318956  -0.522401  -0.05958  2.352736  -0.082
O  O219  1  0.35445317  0.33944018  0.41101625  1  -1.099597  -0.090659  -0.31896  -0.522409  -0.05958  2.35275  -0.082
O  O220  1  0.85445271  0.41101379  0.07157627  1  -1.089386  -0.090601  -0.31894  -0.522404  -0.059571  2.35286  -0.082
O  O221  1  0.35445239  0.07157524  0.66055907  1  -1.09348  -0.090624  -0.318956  -0.522426  -0.059582  2.352676  -0.082
O  O222  1  0.64553897  0.07155950  0.41101092  1  -1.089821  -0.090555  -0.318841  -0.522223  -0.059543  2.353172  -0.082
O  O223  1  0.14553943  0.41101062  0.33945206  1  -1.100239  -0.090605  -0.318808  -0.522177  -0.059547  2.353139  -0.082
O  O224  1  0.64553974  0.33945421  0.92844319  1  -1.094088  -0.090576  -0.318819  -0.522224  -0.059553  2.353075  -0.082
O  O225  1  0.14553943  0.92844094  0.58899002  1  -1.089808  -0.090551  -0.318853  -0.522228  -0.059541  2.353239  -0.082
O  O226  1  0.64553898  0.58898918  0.66054774  1  -1.100228  -0.090613  -0.318836  -0.522241  -0.059552  2.353153  -0.082
O  O227  1  0.14553944  0.66054604  0.07155705  1  -1.094094  -0.090573  -0.318828  -0.522198  -0.059551  2.352992  -0.082
