# generated using pymatgen
data_AgH18C13N4O3
_symmetry_space_group_name_H-M   'P 1'
_cell_length_a   6.62385430
_cell_length_b   10.63824591
_cell_length_c   10.74216954
_cell_angle_alpha   87.25472559
_cell_angle_beta   108.04240456
_cell_angle_gamma   90.00491043
_symmetry_Int_Tables_number   1
_chemical_formula_structural   AgH18C13N4O3
_chemical_formula_sum   'Ag2 H36 C26 N8 O6'
_cell_volume   718.82550101
_cell_formula_units_Z   2
loop_
 _symmetry_equiv_pos_site_id
 _symmetry_equiv_pos_as_xyz
  1  'x, y, z'
loop_
 _atom_site_type_symbol
 _atom_site_label
 _atom_site_symmetry_multiplicity
 _atom_site_fract_x
 _atom_site_fract_y
 _atom_site_fract_z
 _atom_site_occupancy
 _atom_site_hle17_bader_spin_density
 _atom_site_hle17_ddec_charge
 _atom_site_hle17_ddec_spin_density
 _atom_site_hle17_ddec_sum_bond_order
 _atom_site_hle17_magmom
 _atom_site_hse06_10hf_bader_spin_density
 _atom_site_hse06_10hf_ddec_charge
 _atom_site_hse06_10hf_ddec_spin_density
 _atom_site_hse06_10hf_ddec_sum_bond_order
 _atom_site_hse06_10hf_magmom
 _atom_site_hse06_bader_spin_density
 _atom_site_hse06_ddec_charge
 _atom_site_hse06_ddec_spin_density
 _atom_site_hse06_ddec_sum_bond_order
 _atom_site_hse06_magmom
 _atom_site_pbe_bader_spin_density
 _atom_site_pbe_cm5_charge
 _atom_site_pbe_ddec_charge
 _atom_site_pbe_ddec_spin_density
 _atom_site_pbe_ddec_sum_bond_order
 _atom_site_pbe_magmom
Ag  Ag0  1  0.19611870  0.13312418  0.39268346  1  0  0.552521  0  1.230616  0  0  0.419944  0  1.616009  0  0  0.457906  0  1.567086  0  0  0.421209  0.39216  0  1.650522  0
Ag  Ag1  1  0.80387099  0.86687725  0.60732697  1  0  0.55245  0  1.230543  0  0  0.419855  0  1.615952  0  0  0.457821  0  1.567017  0  0  0.421192  0.392071  0  1.650455  0
H  H2  1  0.40625167  0.77141500  0.16513908  1  0  0.097753  0  0.970561  0  0  0.108527  0  1.030839  0  0  0.112166  0  1.027972  0  0  0.103355  0.105766  0  1.033222  0
H  H3  1  0.24112740  0.22942901  0.83443836  1  0  0.097663  0  0.969634  0  0  0.108192  0  1.0303  0  0  0.111962  0  1.02726  0  0  0.102957  0.105318  0  1.032816  0
H  H4  1  0.59378045  0.22859410  0.83486771  1  0  0.097722  0  0.9705  0  0  0.108493  0  1.030794  0  0  0.112134  0  1.027932  0  0  0.10326  0.105727  0  1.033184  0
H  H5  1  0.75890811  0.77057608  0.16557467  1  0  0.097649  0  0.969479  0  0  0.1081  0  1.030256  0  0  0.111871  0  1.027217  0  0  0.102909  0.105229  0  1.032771  0
H  H6  1  0.34993409  0.57572139  0.04765612  1  0  0.09182  0  0.981944  0  0  0.098033  0  1.053105  0  0  0.101642  0  1.050376  0  0  0.099369  0.095357  0  1.055331  0
H  H7  1  0.30187442  0.42514968  0.95199996  1  0  0.091213  0  0.982051  0  0  0.097244  0  1.053704  0  0  0.101016  0  1.050722  0  0  0.099187  0.094484  0  1.056035  0
H  H8  1  0.65009281  0.42429575  0.95233755  1  0  0.091709  0  0.981874  0  0  0.097959  0  1.053011  0  0  0.101569  0  1.050281  0  0  0.099326  0.095277  0  1.055246  0
H  H9  1  0.69816410  0.57485651  0.04800893  1  0  0.091271  0  0.981951  0  0  0.097323  0  1.053544  0  0  0.101092  0  1.050569  0  0  0.09922  0.094561  0  1.055892  0
H  H10  1  0.60076058  0.29228174  0.56367090  1  0  0.07375  0  0.927057  0  0  0.088399  0  0.989998  0  0  0.087982  0  0.991172  0  0  0.116922  0.08856  0  0.989347  0
H  H11  1  0.03683803  0.70775742  0.43623628  1  0  0.074166  0  0.927367  0  0  0.088885  0  0.990521  0  0  0.088518  0  0.991661  0  0  0.116979  0.089004  0  0.989913  0
H  H12  1  0.39920323  0.70772322  0.43632182  1  0  0.073668  0  0.927157  0  0  0.088357  0  0.990047  0  0  0.087935  0  0.991236  0  0  0.116849  0.088524  0  0.989388  0
H  H13  1  0.96313699  0.29224734  0.56376125  1  0  0.074256  0  0.927298  0  0  0.088942  0  0.990499  0  0  0.088561  0  0.991656  0  0  0.116972  0.089062  0  0.989892  0
H  H14  1  0.41195559  0.39950844  0.45521645  1  0  0.065107  0  0.948749  0  0  0.073027  0  1.025516  0  0  0.074633  0  1.023227  0  0  0.11324  0.0718  0  1.027243  0
H  H15  1  0.95667207  0.60045059  0.54452184  1  0  0.065264  0  0.949178  0  0  0.07353  0  1.025766  0  0  0.075053  0  1.02363  0  0  0.113248  0.072347  0  1.027437  0
H  H16  1  0.58801433  0.60049301  0.54476994  1  0  0.065186  0  0.948818  0  0  0.073191  0  1.0255  0  0  0.074799  0  1.023209  0  0  0.113284  0.071964  0  1.027229  0
H  H17  1  0.04330132  0.39955050  0.45547356  1  0  0.065397  0  0.949168  0  0  0.073662  0  1.025742  0  0  0.075189  0  1.023595  0  0  0.113279  0.072482  0  1.027413  0
H  H18  1  0.65129142  0.09770114  0.30302963  1  0  0.086738  0  0.914562  0  0  0.102158  0  0.97297  0  0  0.102945  0  0.972248  0  0  0.123449  0.101457  0  0.973736  0
H  H19  1  0.34869189  0.90229195  0.69697787  1  0  0.086763  0  0.914562  0  0  0.102106  0  0.97308  0  0  0.102896  0  0.972357  0  0  0.123431  0.101442  0  0.973792  0
H  H20  1  0.73808308  0.11618349  0.47599521  1  0  0.069369  0  0.935629  0  0  0.078964  0  1.013025  0  0  0.080111  0  1.010512  0  0  0.114183  0.077948  0  1.015171  0
H  H21  1  0.26189537  0.88381723  0.52400949  1  0  0.06938  0  0.935695  0  0  0.079005  0  1.013046  0  0  0.080153  0  1.010537  0  0  0.114221  0.077985  0  1.015205  0
H  H22  1  0.29659140  0.37080595  0.22383721  1  0  0.057815  0  0.934359  0  0  0.071688  0  1.005131  0  0  0.071691  0  1.004986  0  0  0.111585  0.071562  0  1.005412  0
H  H23  1  0.07321908  0.62918703  0.77598276  1  0  0.056969  0  0.933787  0  0  0.070337  0  1.005463  0  0  0.070378  0  1.00529  0  0  0.111237  0.070211  0  1.005756  0
H  H24  1  0.70338499  0.62918316  0.77615231  1  0  0.0578  0  0.934474  0  0  0.071701  0  1.005221  0  0  0.071683  0  1.005098  0  0  0.111611  0.071573  0  1.005507  0
H  H25  1  0.92676221  0.37080190  0.22401137  1  0  0.056855  0  0.93399  0  0  0.070439  0  1.005486  0  0  0.070473  0  1.005315  0  0  0.111301  0.070312  0  1.005775  0
H  H26  1  0.39673267  0.24090473  0.15950358  1  0  0.072411  0  0.909667  0  0  0.088284  0  0.969734  0  0  0.088577  0  0.969245  0  0  0.118897  0.08799  0  0.97018  0
H  H27  1  0.23803899  0.75902766  0.84043942  1  0  0.072026  0  0.908652  0  0  0.087665  0  0.969287  0  0  0.08799  0  0.968756  0  0  0.118655  0.087343  0  0.969793  0
H  H28  1  0.60325194  0.75908120  0.84049489  1  0  0.07251  0  0.909721  0  0  0.088407  0  0.969743  0  0  0.088701  0  0.969253  0  0  0.118954  0.088113  0  0.970188  0
H  H29  1  0.76194416  0.24095814  0.15956253  1  0  0.072191  0  0.908739  0  0  0.087829  0  0.969378  0  0  0.088149  0  0.968847  0  0  0.118739  0.087508  0  0.969878  0
H  H30  1  0.78907408  0.54256879  0.30935879  1  0  0.064879  0  0.931591  0  0  0.079645  0  0.996114  0  0  0.07937  0  0.997002  0  0  0.114522  0.079773  0  0.995618  0
H  H31  1  0.48015957  0.45741852  0.69076725  1  0  0.065377  0  0.930844  0  0  0.079865  0  0.995696  0  0  0.079589  0  0.996563  0  0  0.114611  0.079995  0  0.995191  0
H  H32  1  0.21090383  0.45742226  0.69062912  1  0  0.064857  0  0.931497  0  0  0.079553  0  0.996114  0  0  0.079274  0  0.996999  0  0  0.114532  0.079679  0  0.995614  0
H  H33  1  0.51981190  0.54257641  0.30921762  1  0  0.065358  0  0.930823  0  0  0.079781  0  0.99577  0  0  0.079507  0  0.996641  0  0  0.114578  0.079918  0  0.995268  0
H  H34  1  0.45392298  0.11831530  0.66677685  1  0  0.408856  0  0.907327  0  0  0.378956  0  0.971639  0  0  0.389536  0  0.956218  0  0  0.276214  0.371394  0  0.982639  0
H  H35  1  0.78684490  0.88151317  0.33330753  1  0  0.410257  0  0.905716  0  0  0.380219  0  0.970224  0  0  0.390794  0  0.954847  0  0  0.27668  0.372652  0  0.981209  0
H  H36  1  0.54610291  0.88168343  0.33323078  1  0  0.408714  0  0.907497  0  0  0.378794  0  0.971847  0  0  0.389374  0  0.956425  0  0  0.276176  0.371233  0  0.982845  0
H  H37  1  0.21318265  0.11849201  0.66670313  1  0  0.410294  0  0.905645  0  0  0.380217  0  0.970225  0  0  0.390792  0  0.954846  0  0  0.276695  0.372648  0  0.981214  0
C  C38  1  0.12285700  0.90465490  0.24626522  1  0  0.631032  0  3.944944  0  0  0.579079  0  4.236033  0  0  0.612905  0  4.230523  0  0  0.193687  0.556058  0  4.238856  0
C  C39  1  0.87717043  0.09534573  0.75374173  1  0  0.630819  0  3.945303  0  0  0.578878  0  4.236392  0  0  0.612704  0  4.230885  0  0  0.193533  0.555855  0  4.23921  0
C  C40  1  0.08628226  0.78572039  0.17273526  1  0  -0.064279  0  3.760864  0  0  -0.040401  0  3.991411  0  0  -0.047862  0  4.014295  0  0  -0.021591  -0.035629  0  3.975976  0
C  C41  1  0.91374179  0.21428425  0.82726546  1  0  -0.064234  0  3.760804  0  0  -0.040319  0  3.991283  0  0  -0.047777  0  4.014163  0  0  -0.021584  -0.035547  0  3.975848  0
C  C42  1  0.25058175  0.72832247  0.13826144  1  0  -0.073572  0  3.747204  0  0  -0.094616  0  3.988305  0  0  -0.094248  0  4.007984  0  0  -0.087106  -0.094645  0  3.975033  0
C  C43  1  0.11226190  0.27217333  0.86143820  1  0  -0.072304  0  3.743976  0  0  -0.093122  0  3.984922  0  0  -0.092822  0  4.004615  0  0  -0.086522  -0.093096  0  3.97164  0
C  C44  1  0.74945193  0.27168665  0.86174470  1  0  -0.073502  0  3.747011  0  0  -0.094561  0  3.988061  0  0  -0.094202  0  4.007754  0  0  -0.086985  -0.094589  0  3.974784  0
C  C45  1  0.88777817  0.72782822  0.13856915  1  0  -0.072197  0  3.744033  0  0  -0.092957  0  3.984987  0  0  -0.092659  0  4.004687  0  0  -0.086421  -0.092931  0  3.971704  0
C  C46  1  0.21753428  0.61731423  0.07188378  1  0  -0.113546  0  3.735413  0  0  -0.130756  0  3.985249  0  0  -0.134343  0  4.006248  0  0  -0.091079  -0.128295  0  3.971009  0
C  C47  1  0.14536728  0.38318209  0.92780293  1  0  -0.113882  0  3.736762  0  0  -0.131112  0  3.98649  0  0  -0.1348  0  4.007456  0  0  -0.091091  -0.128537  0  3.972214  0
C  C48  1  0.78249911  0.38270084  0.92811480  1  0  -0.113303  0  3.735158  0  0  -0.130516  0  3.985007  0  0  -0.134103  0  4.005974  0  0  -0.090931  -0.128047  0  3.970758  0
C  C49  1  0.85466319  0.61682709  0.07220170  1  0  -0.114045  0  3.736557  0  0  -0.131279  0  3.986189  0  0  -0.134959  0  4.007164  0  0  -0.091172  -0.128711  0  3.971916  0
C  C50  1  0.01818033  0.55864855  0.03623534  1  0  0.041426  0  3.770614  0  0  0.055413  0  4.001512  0  0  0.056299  0  4.025452  0  0  -0.009504  0.054842  0  3.985209  0
C  C51  1  0.98186272  0.44136536  0.96376871  1  0  0.041261  0  3.771002  0  0  0.055129  0  4.002014  0  0  0.056056  0  4.025921  0  0  -0.009528  0.054556  0  3.985707  0
C  C52  1  0.55334699  0.34063632  0.46625877  1  0  0.079459  0  3.628725  0  0  0.011521  0  3.887105  0  0  0.019655  0  3.896741  0  0  0.012951  0.006052  0  3.880402  0
C  C53  1  0.08704049  0.65936498  0.53363310  1  0  0.078223  0  3.63039  0  0  0.009132  0  3.890064  0  0  0.017243  0  3.899832  0  0  0.012257  0.003634  0  3.883354  0
C  C54  1  0.44662630  0.65936489  0.53373382  1  0  0.079267  0  3.628779  0  0  0.011207  0  3.887127  0  0  0.019329  0  3.896765  0  0  0.012904  0.005732  0  3.880434  0
C  C55  1  0.91293451  0.34063234  0.46636262  1  0  0.077903  0  3.630562  0  0  0.008801  0  3.890264  0  0  0.01692  0  3.900037  0  0  0.012269  0.003309  0  3.883541  0
C  C56  1  0.68958373  0.16647318  0.37939796  1  0  0.087891  0  3.58286  0  0  0.015521  0  3.842738  0  0  0.024043  0  3.852918  0  0  0.018496  0.009765  0  3.835488  0
C  C57  1  0.31039785  0.83352383  0.62060547  1  0  0.087771  0  3.582993  0  0  0.015375  0  3.842898  0  0  0.023902  0  3.853045  0  0  0.018428  0.009644  0  3.835559  0
C  C58  1  0.43707544  0.31121434  0.23460383  1  0  0.083353  0  3.647116  0  0  0.00797  0  3.918867  0  0  0.016922  0  3.928008  0  0  0.016681  0.001934  0  3.912503  0
C  C59  1  0.20300571  0.68873682  0.76531931  1  0  0.085971  0  3.642494  0  0  0.010874  0  3.914355  0  0  0.019808  0  3.923561  0  0  0.016785  0.004799  0  3.908049  0
C  C60  1  0.56290430  0.68877361  0.76539096  1  0  0.083244  0  3.647423  0  0  0.007743  0  3.919138  0  0  0.016731  0  3.928289  0  0  0.01659  0.001708  0  3.912782  0
C  C61  1  0.79697415  0.31125193  0.23467922  1  0  0.085777  0  3.642888  0  0  0.010465  0  3.914967  0  0  0.019401  0  3.924118  0  0  0.016623  0.004398  0  3.908645  0
C  C62  1  0.66022866  0.48276785  0.32083132  1  0  0.086302  0  3.638227  0  0  0.021022  0  3.893799  0  0  0.02876  0  3.904132  0  0  0.018152  0.015705  0  3.886778  0
C  C63  1  0.33975088  0.51722688  0.67915872  1  0  0.086349  0  3.638134  0  0  0.021055  0  3.893705  0  0  0.028834  0  3.904021  0  0  0.018105  0.015776  0  3.886628  0
N  N64  1  0.49756358  0.24445901  0.36575057  1  0  -0.28336  0  3.20493  0  0  -0.190071  0  3.458198  0  0  -0.20967  0  3.475636  0  0  -0.35071  -0.175986  0  3.445672  0
N  N65  1  0.13196747  0.75551779  0.63415978  1  0  -0.284689  0  3.205855  0  0  -0.190346  0  3.458403  0  0  -0.210057  0  3.476058  0  0  -0.350155  -0.176148  0  3.445696  0
N  N66  1  0.50241460  0.75553735  0.63424573  1  0  -0.28311  0  3.2046  0  0  -0.189656  0  3.457695  0  0  -0.209234  0  3.4751  0  0  -0.350665  -0.175578  0  3.445185  0
N  N67  1  0.86801250  0.24447645  0.36584245  1  0  -0.284695  0  3.205919  0  0  -0.190251  0  3.458403  0  0  -0.209968  0  3.476051  0  0  -0.350177  -0.176052  0  3.445683  0
N  N68  1  0.72650706  0.42074015  0.45311300  1  0  -0.292494  0  3.16217  0  0  -0.224553  0  3.422556  0  0  -0.239314  0  3.437759  0  0  -0.351645  -0.214155  0  3.411798  0
N  N69  1  0.27346780  0.57925731  0.54687897  1  0  -0.29255  0  3.162046  0  0  -0.224602  0  3.422473  0  0  -0.239367  0  3.437676  0  0  -0.351548  -0.214217  0  3.411717  0
N  N70  1  0.60823826  0.39089550  0.21711840  1  0  -0.300482  0  3.154431  0  0  -0.231062  0  3.420788  0  0  -0.247386  0  3.438497  0  0  -0.348519  -0.219588  0  3.408253  0
N  N71  1  0.39173981  0.60909443  0.78287421  1  0  -0.300669  0  3.154543  0  0  -0.231144  0  3.420724  0  0  -0.247543  0  3.438496  0  0  -0.348507  -0.219681  0  3.408187  0
O  O72  1  0.30683446  0.95307841  0.27692224  1  0  -0.647435  0  2.013284  0  0  -0.581415  0  2.252199  0  0  -0.609109  0  2.239792  0  0  -0.328561  -0.561771  0  2.2601  0
O  O73  1  0.03070711  0.04726728  0.72320465  1  0  -0.64884  0  2.0128  0  0  -0.582741  0  2.25177  0  0  -0.610423  0  2.23935  0  0  -0.329248  -0.563087  0  2.259683  0
O  O74  1  0.69319621  0.04693056  0.72308802  1  0  -0.647435  0  2.013412  0  0  -0.581423  0  2.252321  0  0  -0.609117  0  2.239908  0  0  -0.328579  -0.561788  0  2.260229  0
O  O75  1  0.96933282  0.95274192  0.27679981  1  0  -0.649004  0  2.01274  0  0  -0.582932  0  2.251778  0  0  -0.610608  0  2.239341  0  0  -0.329413  -0.563278  0  2.259701  0
O  O76  1  0.31397344  0.16223800  0.62752919  1  0  -0.852306  0  1.868212  0  0  -0.793404  0  2.070496  0  0  -0.816976  0  2.038066  0  0  -0.609642  -0.776511  0  2.09326  0
O  O77  1  0.68605409  0.83776441  0.37248056  1  0  -0.852094  0  1.868402  0  0  -0.793223  0  2.07069  0  0  -0.816794  0  2.038263  0  0  -0.609603  -0.776333  0  2.093447  0
