# generated using pymatgen
data_Zn4H12C24O25
_symmetry_space_group_name_H-M   'P 1'
_cell_length_a   18.49742819
_cell_length_b   18.49737000
_cell_length_c   18.49737012
_cell_angle_alpha   89.99999214
_cell_angle_beta   120.00001553
_cell_angle_gamma   120.00003924
_symmetry_Int_Tables_number   1
_chemical_formula_structural   Zn4H12C24O25
_chemical_formula_sum   'Zn8 H24 C48 O50'
_cell_volume   4475.23651512
_cell_formula_units_Z   2
loop_
 _symmetry_equiv_pos_site_id
 _symmetry_equiv_pos_as_xyz
  1  'x, y, z'
loop_
 _atom_site_type_symbol
 _atom_site_label
 _atom_site_symmetry_multiplicity
 _atom_site_fract_x
 _atom_site_fract_y
 _atom_site_fract_z
 _atom_site_occupancy
 _atom_site_pbe_bader_charge
 _atom_site_pbe_bader_spin_density
 _atom_site_pbe_cm5_charge
 _atom_site_pbe_ddec_charge
 _atom_site_pbe_ddec_spin_density
 _atom_site_pbe_ddec_sum_bond_order
 _atom_site_pbe_magmom
Zn  Zn0  1  0.58603514  0.62904551  0.04301847  1  1.305488  0  0.687675  0.968783  0  2.365569  0
Zn  Zn1  1  0.41396403  0.45698179  0.87095587  1  1.305476  0  0.687621  0.968618  0  2.365762  0
Zn  Zn2  1  0.41397028  0.45698358  0.04301373  1  1.307114  0  0.687676  0.968834  0  2.365623  0
Zn  Zn3  1  0.58602744  0.45698591  0.04301611  1  1.307164  0  0.687709  0.968871  0  2.365555  0
Zn  Zn4  1  0.41396451  0.87095543  0.45698353  1  1.305098  0  0.687694  0.968755  0  2.365539  0
Zn  Zn5  1  0.58602831  0.04301628  0.45698642  1  1.307133  0  0.687693  0.968835  0  2.365579  0
Zn  Zn6  1  0.58603439  0.04301807  0.62904581  1  1.305456  0  0.687654  0.968709  0  2.36563  0
Zn  Zn7  1  0.41397071  0.04301417  0.45698545  1  1.306901  0  0.687654  0.968764  0  2.365661  0
H  H8  1  0.82664143  0.53965870  0.16332003  1  0.634214  0  0.310107  0.351488  0  0.965716  0
H  H9  1  0.17335786  0.96034055  0.33667963  1  0.634235  0  0.310125  0.351532  0  0.965672  0
H  H10  1  0.17335684  0.71301613  0.33667946  1  0.637265  0  0.310147  0.351135  0  0.96553  0
H  H11  1  0.82664138  0.78698271  0.16332237  1  0.648805  0  0.310116  0.351083  0  0.965595  0
H  H12  1  0.17335704  0.33667822  0.96034144  1  0.673748  0  0.31015  0.351577  0  0.965612  0
H  H13  1  0.82664156  0.16332249  0.53965871  1  0.673787  0  0.310126  0.351518  0  0.965685  0
H  H14  1  0.82664012  0.16332060  0.78698234  1  0.648806  0  0.310136  0.351117  0  0.96551  0
H  H15  1  0.17335793  0.33667757  0.71301807  1  0.648823  0  0.310139  0.351124  0  0.965519  0
H  H16  1  0.37633915  0.53965956  0.16332340  1  0.634723  0  0.310117  0.351493  0  0.965431  0
H  H17  1  0.62366050  0.96034138  0.33667915  1  0.634698  0  0.310111  0.3515  0  0.965407  0
H  H18  1  0.37633489  0.71301655  0.33667740  1  0.6421  0  0.31012  0.351046  0  0.965466  0
H  H19  1  0.62366219  0.78698380  0.16332278  1  0.64216  0  0.310141  0.351095  0  0.965392  0
H  H20  1  0.62366038  0.33667776  0.96034185  1  0.634662  0  0.310118  0.351491  0  0.965413  0
H  H21  1  0.37633572  0.16332045  0.53966029  1  0.634645  0  0.310168  0.351551  0  0.965358  0
H  H22  1  0.62366405  0.16332481  0.78698377  1  0.642112  0  0.310152  0.351092  0  0.965388  0
H  H23  1  0.37633741  0.33668008  0.71301727  1  0.642101  0  0.310108  0.351046  0  0.965449  0
H  H24  1  0.37633755  0.53965896  0.71301749  1  0.633528  0  0.310124  0.351483  0  0.965637  0
H  H25  1  0.62365960  0.96034033  0.78698379  1  0.632209  0  0.310166  0.351559  0  0.965563  0
H  H26  1  0.37633782  0.71301713  0.53965961  1  0.633555  0  0.310125  0.351505  0  0.965615  0
H  H27  1  0.62366341  0.78698292  0.96034156  1  0.633539  0  0.310115  0.351505  0  0.965631  0
H  H28  1  0.62366199  0.33667815  0.16332179  1  0.635463  0  0.310163  0.351122  0  0.965236  0
H  H29  1  0.37633705  0.16332149  0.33667913  1  0.635557  0  0.310127  0.351066  0  0.965337  0
H  H30  1  0.62366208  0.16332167  0.33668039  1  0.63543  0  0.310118  0.351063  0  0.965312  0
H  H31  1  0.37633633  0.33667735  0.16332021  1  0.635574  0  0.310116  0.351051  0  0.965366  0
C  C32  1  0.49999853  0.64002201  0.85997590  1  1.425767  0  0.228915  0.636058  0  4.112887  0
C  C33  1  0.21995168  0.35997389  0.85997635  1  1.417401  0  0.228922  0.636043  0  4.112854  0
C  C34  1  0.50000126  0.64002472  0.14002627  1  1.442351  0  0.22889  0.635976  0  4.113057  0
C  C35  1  0.49999937  0.35997428  0.14002294  1  1.399662  0  0.22893  0.635897  0  4.113103  0
C  C36  1  0.78004747  0.64002364  0.14002419  1  1.417381  0  0.228958  0.636111  0  4.112969  0
C  C37  1  0.49999880  0.35997704  0.85997798  1  1.442192  0  0.228856  0.635934  0  4.113182  0
C  C38  1  0.49999777  0.85997560  0.35997542  1  1.442361  0  0.229029  0.63625  0  4.113073  0
C  C39  1  0.78004717  0.14002575  0.64002338  1  1.417307  0  0.228831  0.635985  0  4.113174  0
C  C40  1  0.49999756  0.85997687  0.64002270  1  1.417561  0  0.228953  0.636218  0  4.113012  0
C  C41  1  0.50000053  0.14002704  0.64002416  1  1.442382  0  0.228866  0.635914  0  4.113151  0
C  C42  1  0.21995119  0.85997498  0.35997840  1  1.412356  0  0.228822  0.635874  0  4.113044  0
C  C43  1  0.50000055  0.14002492  0.35997679  1  1.399636  0  0.228948  0.635827  0  4.112963  0
C  C44  1  0.89168512  0.69584228  0.19584311  1  0.079043  0  -0.047134  -0.297434  0  4.023985  0
C  C45  1  0.10831435  0.80415781  0.30415934  1  0.050931  0  -0.047123  -0.297316  0  4.024042  0
C  C46  1  0.94632651  0.65629224  0.22316326  1  0.694284  0  0.074415  0.199027  0  4.058705  0
C  C47  1  0.05367046  0.84370536  0.27683686  1  0.545484  0  0.074442  0.198954  0  4.058785  0
C  C48  1  0.05366979  0.70996357  0.27683534  1  0.47803  0  0.074449  0.198951  0  4.058544  0
C  C49  1  0.94632869  0.79003421  0.22316554  1  0.629967  0  0.074469  0.199062  0  4.058559  0
C  C50  1  0.10831358  0.30415547  0.80415829  1  0.078687  0  -0.047136  -0.29736  0  4.023978  0
C  C51  1  0.89168314  0.19584336  0.69584146  1  0.079153  0  -0.047126  -0.297477  0  4.024007  0
C  C52  1  0.05366909  0.27683372  0.84370658  1  0.522491  0  0.074421  0.198884  0  4.058879  0
C  C53  1  0.94632808  0.22316489  0.65629339  1  0.692861  0  0.074418  0.198983  0  4.05872  0
C  C54  1  0.94632769  0.22316426  0.79003653  1  0.627538  0  0.07439  0.198987  0  4.058737  0
C  C55  1  0.05367117  0.27683538  0.70996429  1  0.456073  0  0.074398  0.198924  0  4.058683  0
C  C56  1  0.50000056  0.69584175  0.19584309  1  0.008264  0  -0.047073  -0.297346  0  4.024025  0
C  C57  1  0.49999758  0.80415901  0.30415816  1  0.009515  0  -0.047198  -0.297636  0  4.02432  0
C  C58  1  0.43313011  0.65629404  0.22316454  1  0.540548  0  0.074464  0.198973  0  4.058706  0
C  C59  1  0.56686928  0.84370797  0.27683571  1  0.540211  0  0.074469  0.199006  0  4.058643  0
C  C60  1  0.43312640  0.70996545  0.27683577  1  0.660259  0  0.074441  0.198981  0  4.058676  0
C  C61  1  0.56687192  0.79003615  0.22316449  1  0.660126  0  0.074448  0.198965  0  4.058684  0
C  C62  1  0.49999851  0.30415770  0.80415904  1  0.009395  0  -0.047181  -0.297613  0  4.024156  0
C  C63  1  0.49999902  0.19584261  0.69584111  1  0.008609  0  -0.047106  -0.297368  0  4.024043  0
C  C64  1  0.56686906  0.27683482  0.84370654  1  0.540229  0  0.074444  0.199047  0  4.058671  0
C  C65  1  0.43312899  0.22316335  0.65629387  1  0.540167  0  0.074463  0.199007  0  4.058707  0
C  C66  1  0.56686993  0.22316389  0.79003444  1  0.660082  0  0.074468  0.198951  0  4.058632  0
C  C67  1  0.43312742  0.27683557  0.70996508  1  0.660182  0  0.074434  0.198962  0  4.05865  0
C  C68  1  0.49999969  0.69584176  0.80415832  1  0.022982  0  -0.047171  -0.297497  0  4.023954  0
C  C69  1  0.49999827  0.80415899  0.69584175  1  0.022748  0  -0.047134  -0.297531  0  4.024021  0
C  C70  1  0.43312803  0.65629174  0.70996622  1  0.635816  0  0.074484  0.199098  0  4.058656  0
C  C71  1  0.56687001  0.84370710  0.79003551  1  0.564884  0  0.074434  0.199028  0  4.058664  0
C  C72  1  0.43312814  0.70996584  0.65629382  1  0.511095  0  0.074463  0.199047  0  4.058579  0
C  C73  1  0.56687070  0.79003447  0.84370723  1  0.690083  0  0.074464  0.199082  0  4.058605  0
C  C74  1  0.49999707  0.30415603  0.19584049  1  0.023814  0  -0.047061  -0.297386  0  4.024092  0
C  C75  1  0.49999966  0.19584196  0.30415818  1  0.023797  0  -0.047098  -0.29736  0  4.0241  0
C  C76  1  0.56687035  0.27683459  0.22316384  1  0.541965  0  0.074471  0.198926  0  4.05869  0
C  C77  1  0.43312726  0.22316296  0.27683527  1  0.542524  0  0.074472  0.198932  0  4.058728  0
C  C78  1  0.56687079  0.22316302  0.27683706  1  0.667288  0  0.074431  0.198909  0  4.05884  0
C  C79  1  0.43312744  0.27683515  0.22316183  1  0.66731  0  0.074446  0.198952  0  4.058754  0
O  O80  1  0.49999854  0.49999783  0.99999840  1  -1.16635  0  -0.573592  -1.023828  0  2.575599  0
O  O81  1  0.56121258  0.67727136  0.94515236  1  -1.178442  0  -0.311002  -0.55681  0  2.376441  0
O  O82  1  0.26787641  0.38393610  0.82273060  1  -1.171599  0  -0.310986  -0.556512  0  2.376598  0
O  O83  1  0.43879151  0.55485218  0.11606224  1  -1.176952  0  -0.311027  -0.556865  0  2.376662  0
O  O84  1  0.43878724  0.55484929  0.82272922  1  -1.184504  0  -0.310936  -0.55669  0  2.3768  0
O  O85  1  0.56121094  0.67727055  0.11606395  1  -1.179883  0  -0.310953  -0.556514  0  2.376478  0
O  O86  1  0.26788000  0.38393815  0.94514980  1  -1.185494  0  -0.311044  -0.55688  0  2.376668  0
O  O87  1  0.43878760  0.38393588  0.11605853  1  -1.170214  0  -0.310973  -0.55655  0  2.37652  0
O  O88  1  0.73212126  0.55485194  0.11606100  1  -1.186793  0  -0.311076  -0.556934  0  2.376731  0
O  O89  1  0.56120741  0.38393838  0.11606142  1  -1.17021  0  -0.311012  -0.556536  0  2.376554  0
O  O90  1  0.73212400  0.67727093  0.11606246  1  -1.170768  0  -0.311013  -0.556585  0  2.376677  0
O  O91  1  0.43879119  0.38394217  0.82273214  1  -1.179829  0  -0.310897  -0.556386  0  2.376529  0
O  O92  1  0.56120817  0.38393964  0.94514993  1  -1.177032  0  -0.310957  -0.556753  0  2.376775  0
O  O93  1  0.49999894  0.99999848  0.50000089  1  -1.166351  0  -0.573577  -1.023793  0  2.575572  0
O  O94  1  0.43878684  0.82272851  0.38393712  1  -1.18004  0  -0.311029  -0.556592  0  2.376398  0
O  O95  1  0.73212179  0.11606377  0.55485140  1  -1.185904  0  -0.310964  -0.556761  0  2.376712  0
O  O96  1  0.56120520  0.94514860  0.67726918  1  -1.170782  0  -0.310998  -0.55683  0  2.37665  0
O  O97  1  0.56121046  0.94515041  0.38394038  1  -1.177029  0  -0.310987  -0.55687  0  2.376533  0
O  O98  1  0.43879221  0.82273159  0.55485437  1  -1.184424  0  -0.310999  -0.556783  0  2.37667  0
O  O99  1  0.73212314  0.11606225  0.67727003  1  -1.171026  0  -0.310996  -0.55655  0  2.376662  0
O  O100  1  0.56121375  0.11606753  0.67727118  1  -1.179843  0  -0.310927  -0.55646  0  2.376482  0
O  O101  1  0.26787883  0.94514878  0.38394231  1  -1.188104  0  -0.311006  -0.556798  0  2.376628  0
O  O102  1  0.43878928  0.11606257  0.55485289  1  -1.176932  0  -0.310991  -0.556801  0  2.376725  0
O  O103  1  0.26787591  0.82272894  0.38394075  1  -1.180416  0  -0.310965  -0.556484  0  2.376667  0
O  O104  1  0.56121001  0.11606166  0.38393950  1  -1.1702  0  -0.311006  -0.556531  0  2.37659  0
O  O105  1  0.43878942  0.11606236  0.38394110  1  -1.170214  0  -0.31102  -0.556536  0  2.376434  0
O  O106  1  0.90115329  0.56800518  0.20057602  1  -1.122123  0  -0.345894  -0.400772  0  2.275686  0
O  O107  1  0.09884316  0.93199455  0.29942330  1  -1.12212  0  -0.34592  -0.400806  0  2.275522  0
O  O108  1  0.09884203  0.66684714  0.29942036  1  -1.117556  0  -0.345942  -0.400323  0  2.275499  0
O  O109  1  0.90115663  0.83315148  0.20057952  1  -1.126897  0  -0.345961  -0.400328  0  2.275468  0
O  O110  1  0.09883999  0.29941907  0.93199276  1  -1.161032  0  -0.345907  -0.400776  0  2.275679  0
O  O111  1  0.90115593  0.20057829  0.56800496  1  -1.161076  0  -0.345907  -0.400784  0  2.275653  0
O  O112  1  0.90115808  0.20057931  0.83315076  1  -1.126936  0  -0.345904  -0.400263  0  2.275716  0
O  O113  1  0.09884059  0.29941949  0.66684834  1  -1.126901  0  -0.345884  -0.400239  0  2.275597  0
O  O114  1  0.36742829  0.56800398  0.20057878  1  -1.117146  0  -0.345913  -0.400777  0  2.275317  0
O  O115  1  0.63257081  0.93199443  0.29942079  1  -1.117112  0  -0.345874  -0.400748  0  2.275395  0
O  O116  1  0.36742555  0.66685057  0.29942073  1  -1.130503  0  -0.345888  -0.400188  0  2.27559  0
O  O117  1  0.63257127  0.83315085  0.20057986  1  -1.130524  0  -0.345884  -0.400196  0  2.27558  0
O  O118  1  0.63257227  0.29942225  0.93199527  1  -1.117112  0  -0.345888  -0.400767  0  2.275327  0
O  O119  1  0.36742765  0.20057779  0.56800662  1  -1.117025  0  -0.345956  -0.400837  0  2.275344  0
O  O120  1  0.63257122  0.20057849  0.83314872  1  -1.130411  0  -0.345909  -0.400219  0  2.275451  0
O  O121  1  0.36742649  0.29942265  0.66684936  1  -1.130422  0  -0.345853  -0.400167  0  2.275485  0
O  O122  1  0.36742771  0.56800653  0.66685126  1  -1.120425  0  -0.345882  -0.400735  0  2.275641  0
O  O123  1  0.63257220  0.93199418  0.83315141  1  -1.109354  0  -0.345931  -0.400803  0  2.275553  0
O  O124  1  0.36742646  0.66685034  0.56800531  1  -1.12046  0  -0.345883  -0.400741  0  2.275493  0
O  O125  1  0.63257256  0.83315082  0.93199529  1  -1.111254  0  -0.345891  -0.400773  0  2.27552  0
O  O126  1  0.63256999  0.29941997  0.20057772  1  -1.11966  0  -0.34592  -0.40026  0  2.275444  0
O  O127  1  0.36742611  0.20057740  0.29942280  1  -1.119666  0  -0.34591  -0.40025  0  2.2754  0
O  O128  1  0.63257116  0.20057807  0.29942363  1  -1.11956  0  -0.345849  -0.400184  0  2.275517  0
O  O129  1  0.36742655  0.29942223  0.20057554  1  -1.119743  0  -0.345907  -0.400245  0  2.275447  0
