# generated using pymatgen
data_MnH6C8O7F4
_symmetry_space_group_name_H-M   'P 1'
_cell_length_a   5.92235517
_cell_length_b   7.40397608
_cell_length_c   13.55620711
_cell_angle_alpha   97.34470206
_cell_angle_beta   95.51280158
_cell_angle_gamma   98.51753971
_symmetry_Int_Tables_number   1
_chemical_formula_structural   MnH6C8O7F4
_chemical_formula_sum   'Mn2 H12 C16 O14 F8'
_cell_volume   579.02475000
_cell_formula_units_Z   2
loop_
 _symmetry_equiv_pos_site_id
 _symmetry_equiv_pos_as_xyz
  1  'x, y, z'
loop_
 _atom_site_type_symbol
 _atom_site_label
 _atom_site_symmetry_multiplicity
 _atom_site_fract_x
 _atom_site_fract_y
 _atom_site_fract_z
 _atom_site_occupancy
 _atom_site_pbe_bader_charge
 _atom_site_pbe_bader_spin_density
 _atom_site_pbe_cm5_charge
 _atom_site_pbe_ddec_charge
 _atom_site_pbe_ddec_spin_density
 _atom_site_pbe_ddec_sum_bond_order
 _atom_site_pbe_magmom
Mn  Mn0  1  0.88626943  0.73005314  0.38286965  1  1.557775  4.569213  0.605752  1.123625  4.683453  2.176511  4.5
Mn  Mn1  1  0.11374803  0.26996481  0.61712875  1  1.557648  4.569296  0.605769  1.123745  4.683487  2.176203  4.5
H  H2  1  0.55731557  0.94809830  0.36209589  1  0.656645  0.001296  0.297079  0.394346  0.000946  0.937137  0.002
H  H3  1  0.44268744  0.05189750  0.63790328  1  0.656614  0.001296  0.297064  0.394385  0.000946  0.937119  0.002
H  H4  1  0.43403044  0.74857155  0.38136237  1  0.636053  0.001439  0.293651  0.388249  0.000515  0.953338  0.002
H  H5  1  0.56597480  0.25145330  0.61863545  1  0.635911  0.001439  0.29359  0.388168  0.000515  0.953433  0.002
H  H6  1  0.20327218  0.50613204  0.43603373  1  0.653391  0.001161  0.296241  0.385848  0.000232  0.955283  0.001
H  H7  1  0.79672654  0.49389948  0.56397474  1  0.653537  0.001161  0.296206  0.385714  0.000232  0.955432  0.001
H  H8  1  0.26960924  0.70748578  0.50314484  1  0.648607  0.000519  0.29743  0.381054  0.000298  0.968904  0.001
H  H9  1  0.73039180  0.29251838  0.49685050  1  0.648546  0.000519  0.297384  0.380925  0.000298  0.969  0.001
H  H10  1  0.99923912  0.57221906  0.19438466  1  0.622154  0.00115  0.308965  0.383477  0.000582  0.926233  0.001
H  H11  1  0.00077834  0.42779062  0.80561235  1  0.622047  0.00115  0.308988  0.383508  0.000581  0.926167  0.001
H  H12  1  0.20946269  0.72129726  0.24318152  1  0.602245  0.001966  0.312996  0.395012  0.000775  0.909244  0.001
H  H13  1  0.79056213  0.27869866  0.75681390  1  0.602446  0.001965  0.313031  0.395133  0.000774  0.909206  0.001
C  C14  1  0.59320921  0.31313171  0.33595586  1  1.626667  0.018572  0.224511  0.617603  0.017566  4.184752  0.016
C  C15  1  0.40677534  0.68686696  0.66403633  1  1.626105  0.018573  0.224429  0.617538  0.017569  4.184612  0.016
C  C16  1  0.38721127  0.28070667  0.25837653  1  0.088036  0.003829  -0.023301  -0.155892  0.002528  4.0052  0.002
C  C17  1  0.61276647  0.71926953  0.74163214  1  0.088467  0.003829  -0.023385  -0.156214  0.002529  4.004667  0.002
C  C18  1  0.40689138  0.32551289  0.16230566  1  0.513488  0.001875  0.094007  0.164599  0.001367  4.079182  0.001
C  C19  1  0.59307438  0.67447012  0.83770686  1  0.513432  0.001876  0.093966  0.164727  0.001367  4.079342  0.001
C  C20  1  0.22282218  0.27769348  0.08638003  1  0.597584  0.002334  0.083887  0.073253  0.001953  4.141704  0.001
C  C21  1  0.77715541  0.72227747  0.91361494  1  0.598378  0.002332  0.083705  0.073023  0.001952  4.142093  0.001
C  C22  1  0.01629452  0.18192826  0.10717694  1  0.51484  0.001919  0.083287  0.072682  0.001566  4.147619  0.001
C  C23  1  0.98369764  0.81807688  0.89283665  1  0.514799  0.001921  0.083517  0.072969  0.001568  4.146936  0.001
C  C24  1  0.99511691  0.13709533  0.20323996  1  0.592656  0.003075  0.09559  0.16222  0.002171  4.089072  0.002
C  C25  1  0.00490979  0.86287572  0.79675505  1  0.592631  0.003074  0.095424  0.162031  0.002171  4.088415  0.002
C  C26  1  0.17527733  0.18889768  0.28020812  1  0.046355  0.00597  -0.013355  -0.13233  0.003844  3.956865  0.003
C  C27  1  0.82471985  0.81107443  0.71979935  1  0.046144  0.005971  -0.013249  -0.132013  0.003845  3.956524  0.003
C  C28  1  0.14482764  0.14951995  0.38594113  1  1.633266  0.021169  0.240215  0.642973  0.020535  4.162212  0.019
C  C29  1  0.85517536  0.85048114  0.61406879  1  1.633642  0.021158  0.240031  0.642813  0.020524  4.162455  0.019
O  O30  1  0.74158551  0.45624572  0.33946915  1  -1.210315  0.060859  -0.321349  -0.586262  0.042502  2.380342  0.023
O  O31  1  0.25842163  0.54375722  0.66051890  1  -1.210358  0.060862  -0.321213  -0.586128  0.042511  2.380745  0.023
O  O32  1  0.60692358  0.19050924  0.39299241  1  -1.160706  0.016398  -0.292716  -0.53401  0.010539  2.250679  0.013
O  O33  1  0.39308596  0.80949789  0.60699383  1  -1.160614  0.016402  -0.292662  -0.534018  0.010542  2.25057  0.013
O  O34  1  0.17508270  0.28738090  0.45530746  1  -1.179542  0.061232  -0.28609  -0.563672  0.04553  2.323534  0.032
O  O35  1  0.82493499  0.71265944  0.54467793  1  -1.179856  0.061237  -0.285935  -0.563635  0.045527  2.323844  0.032
O  O36  1  0.09180223  0.98438375  0.39909576  1  -1.202147  0.065553  -0.303087  -0.558557  0.045916  2.387402  0.026
O  O37  1  0.90818685  0.01561449  0.60091719  1  -1.201925  0.065526  -0.303096  -0.558601  0.045901  2.387459  0.026
O  O38  1  0.55526996  0.81297148  0.34503540  1  -1.289431  0.059493  -0.570121  -0.781039  0.043398  2.095223  0.024
O  O39  1  0.44474197  0.18702713  0.65496205  1  -1.289285  0.059491  -0.570063  -0.78102  0.0434  2.095195  0.024
O  O40  1  0.21777046  0.64187781  0.43217982  1  -1.297184  0.052476  -0.559578  -0.774977  0.038375  2.19623  0.027
O  O41  1  0.78222855  0.35814003  0.56782169  1  -1.297274  0.052466  -0.559496  -0.774774  0.038372  2.196452  0.027
O  O42  1  0.04147962  0.69798755  0.22918957  1  -1.198615  0.044666  -0.552621  -0.738711  0.033937  2.07743  0.022
O  O43  1  0.95854237  0.30201938  0.77080736  1  -1.198696  0.044662  -0.5527  -0.738922  0.033944  2.077453  0.022
F  F44  1  0.60758120  0.40948225  0.13684209  1  -0.617914  0.000528  -0.080387  -0.103658  -0.000147  1.438319  0.0
F  F45  1  0.39236006  0.59050398  0.86314632  1  -0.617857  0.000528  -0.08025  -0.103535  -0.000147  1.438403  0.0
F  F46  1  0.24568528  0.31778632  0.99347496  1  -0.607264  0.000767  -0.081381  -0.082322  0.000319  1.419536  0.0
F  F47  1  0.75426234  0.68221513  0.00651336  1  -0.608027  0.000767  -0.081301  -0.08222  0.000319  1.419791  0.0
F  F48  1  0.83861134  0.13105436  0.03422280  1  -0.606725  0.000688  -0.080951  -0.087123  0.000417  1.418731  0.0
F  F49  1  0.16139671  0.86891899  0.96579248  1  -0.60666  0.000689  -0.080926  -0.087131  0.000417  1.418654  0.0
F  F50  1  0.79054707  0.04319190  0.21781032  1  -0.619911  0.001832  -0.068749  -0.086397  0.000868  1.448261  0.001
F  F51  1  0.20950656  0.95679282  0.78219397  1  -0.619803  0.001832  -0.068749  -0.086461  0.000867  1.447873  0.001
