# generated using pymatgen
data_ZnH12C7SO10
_symmetry_space_group_name_H-M   'P 1'
_cell_length_a   7.02015343
_cell_length_b   9.65165907
_cell_length_c   9.65164981
_cell_angle_alpha   114.48350997
_cell_angle_beta   92.50629077
_cell_angle_gamma   92.50613541
_symmetry_Int_Tables_number   1
_chemical_formula_structural   ZnH12C7SO10
_chemical_formula_sum   'Zn2 H24 C14 S2 O20'
_cell_volume   593.20825639
_cell_formula_units_Z   2
loop_
 _symmetry_equiv_pos_site_id
 _symmetry_equiv_pos_as_xyz
  1  'x, y, z'
loop_
 _atom_site_type_symbol
 _atom_site_label
 _atom_site_symmetry_multiplicity
 _atom_site_fract_x
 _atom_site_fract_y
 _atom_site_fract_z
 _atom_site_occupancy
 _atom_site_hle17_bader_spin_density
 _atom_site_hle17_ddec_charge
 _atom_site_hle17_ddec_spin_density
 _atom_site_hle17_ddec_sum_bond_order
 _atom_site_hle17_magmom
 _atom_site_hse06_10hf_bader_spin_density
 _atom_site_hse06_10hf_ddec_charge
 _atom_site_hse06_10hf_ddec_spin_density
 _atom_site_hse06_10hf_ddec_sum_bond_order
 _atom_site_hse06_10hf_magmom
 _atom_site_hse06_bader_spin_density
 _atom_site_hse06_ddec_charge
 _atom_site_hse06_ddec_spin_density
 _atom_site_hse06_ddec_sum_bond_order
 _atom_site_hse06_magmom
 _atom_site_pbe_bader_spin_density
 _atom_site_pbe_cm5_charge
 _atom_site_pbe_ddec_charge
 _atom_site_pbe_ddec_spin_density
 _atom_site_pbe_ddec_sum_bond_order
 _atom_site_pbe_magmom
Zn  Zn0  1  0.49240535  0.38139975  0.59653124  1  0  1.240094  0  1.640122  0  0  1.085012  0  2.082694  0  0  1.128192  0  2.02427  0  0  0.67995  1.053894  0  2.123746  0
Zn  Zn1  1  0.99240641  0.59653141  0.38140059  1  0  1.240091  0  1.640146  0  0  1.085004  0  2.082719  0  0  1.128182  0  2.024297  0  0  0.679938  1.053883  0  2.123768  0
H  H2  1  0.46105857  0.02515796  0.80878882  1  0  0.118379  0  0.945994  0  0  0.127244  0  1.005851  0  0  0.131461  0  1.003842  0  0  0.106868  0.12436  0  1.007471  0
H  H3  1  0.96105606  0.80878747  0.02515664  1  0  0.118377  0  0.94602  0  0  0.127274  0  1.005822  0  0  0.131492  0  1.003814  0  0  0.106881  0.124392  0  1.007442  0
H  H4  1  0.40491747  0.79470860  0.85612263  1  0  0.109256  0  0.938065  0  0  0.121275  0  0.994343  0  0  0.124486  0  0.991765  0  0  0.110139  0.118758  0  0.996607  0
H  H5  1  0.90491746  0.85612393  0.79470853  1  0  0.109282  0  0.938036  0  0  0.121276  0  0.994335  0  0  0.124499  0  0.991743  0  0  0.110149  0.118761  0  0.996597  0
H  H6  1  0.62243072  0.04837909  0.32585331  1  0  0.122381  0  0.940294  0  0  0.127965  0  1.007555  0  0  0.132272  0  1.003017  0  0  0.111574  0.125064  0  1.010521  0
H  H7  1  0.12243159  0.32585287  0.04837989  1  0  0.122363  0  0.940287  0  0  0.127943  0  1.007564  0  0  0.13225  0  1.003024  0  0  0.111561  0.12504  0  1.010531  0
H  H8  1  0.68484887  0.36577145  0.09692152  1  0  0.391807  0  0.880773  0  0  0.364037  0  0.954663  0  0  0.375864  0  0.94204  0  0  0.304739  0.355264  0  0.964527  0
H  H9  1  0.18484655  0.09691754  0.36577038  1  0  0.391796  0  0.880859  0  0  0.364093  0  0.954631  0  0  0.37592  0  0.942008  0  0  0.304749  0.355322  0  0.964495  0
H  H10  1  0.37453950  0.13149531  0.63022807  1  0  0.436607  0  0.859103  0  0  0.405969  0  0.920936  0  0  0.416227  0  0.905914  0  0  0.300211  0.398692  0  0.931601  0
H  H11  1  0.87454124  0.63023000  0.13149640  1  0  0.436651  0  0.859037  0  0  0.406014  0  0.920869  0  0  0.416271  0  0.905848  0  0  0.30022  0.398735  0  0.931535  0
H  H12  1  0.60401940  0.12851445  0.63116718  1  0  0.439785  0  0.853615  0  0  0.408709  0  0.915996  0  0  0.41884  0  0.901196  0  0  0.300666  0.401492  0  0.926495  0
H  H13  1  0.10402221  0.63116842  0.12851512  1  0  0.439794  0  0.853599  0  0  0.408716  0  0.915983  0  0  0.418846  0  0.901184  0  0  0.300656  0.401496  0  0.926486  0
H  H14  1  0.28679658  0.53948766  0.84915690  1  0  0.431823  0  0.865089  0  0  0.40102  0  0.927056  0  0  0.411034  0  0.912589  0  0  0.298941  0.393851  0  0.937396  0
H  H15  1  0.78679624  0.84915707  0.53948806  1  0  0.431818  0  0.865097  0  0  0.401017  0  0.92706  0  0  0.411032  0  0.912594  0  0  0.298945  0.393848  0  0.937401  0
H  H16  1  0.16331394  0.38918818  0.74739260  1  0  0.433088  0  0.864683  0  0  0.401553  0  0.92751  0  0  0.412089  0  0.912248  0  0  0.300495  0.394019  0  0.938459  0
H  H17  1  0.66331438  0.74739210  0.38918707  1  0  0.433078  0  0.864701  0  0  0.401541  0  0.927532  0  0  0.412077  0  0.91227  0  0  0.300494  0.394007  0  0.93848  0
H  H18  1  0.67042998  0.53287499  0.87586995  1  0  0.436492  0  0.861843  0  0  0.405912  0  0.923039  0  0  0.416167  0  0.908218  0  0  0.297501  0.398527  0  0.933767  0
H  H19  1  0.17043037  0.87586916  0.53287513  1  0  0.436514  0  0.861812  0  0  0.405938  0  0.923001  0  0  0.416192  0  0.908181  0  0  0.297517  0.398552  0  0.93373  0
H  H20  1  0.79203648  0.39485832  0.77875061  1  0  0.438966  0  0.855332  0  0  0.408272  0  0.9168  0  0  0.418603  0  0.901788  0  0  0.301082  0.400924  0  0.927477  0
H  H21  1  0.29203668  0.77874995  0.39485888  1  0  0.438976  0  0.85532  0  0  0.408281  0  0.916791  0  0  0.418612  0  0.901779  0  0  0.301091  0.400934  0  0.927466  0
H  H22  1  0.59400417  0.63670009  0.54715079  1  0  0.43324  0  0.851632  0  0  0.407185  0  0.909297  0  0  0.417423  0  0.89444  0  0  0.298653  0.399755  0  0.920113  0
H  H23  1  0.09400495  0.54714947  0.63669957  1  0  0.43325  0  0.85158  0  0  0.4072  0  0.909269  0  0  0.417434  0  0.894415  0  0  0.298655  0.399771  0  0.920083  0
H  H24  1  0.38618559  0.55920613  0.48349733  1  0  0.418699  0  0.88426  0  0  0.385594  0  0.95593  0  0  0.396892  0  0.939445  0  0  0.290606  0.377577  0  0.967594  0
H  H25  1  0.88618498  0.48349606  0.55920527  1  0  0.418774  0  0.884127  0  0  0.385636  0  0.955888  0  0  0.396933  0  0.939403  0  0  0.290619  0.377613  0  0.967561  0
C  C26  1  0.58093812  0.16493050  0.03669137  1  0  0.356642  0  3.773151  0  0  0.338643  0  4.035727  0  0  0.35574  0  4.050081  0  0  0.101042  0.327228  0  4.02544  0
C  C27  1  0.08093681  0.03669044  0.16493132  1  0  0.356772  0  3.772957  0  0  0.338739  0  4.035587  0  0  0.355843  0  4.04993  0  0  0.101049  0.327324  0  4.025302  0
C  C28  1  0.49806358  0.02832121  0.92064231  1  0  -0.175954  0  3.697852  0  0  -0.194382  0  3.958971  0  0  -0.204182  0  3.978782  0  0  -0.098599  -0.188267  0  3.945768  0
C  C29  1  0.99806937  0.92064379  0.02832302  1  0  -0.176059  0  3.697948  0  0  -0.194498  0  3.959056  0  0  -0.204303  0  3.978871  0  0  -0.098632  -0.188384  0  3.945856  0
C  C30  1  0.46566459  0.90012969  0.94825044  1  0  -0.015059  0  3.738413  0  0  -0.044261  0  3.992745  0  0  -0.038104  0  4.010322  0  0  -0.075117  -0.047774  0  3.980971  0
C  C31  1  0.96567151  0.94825019  0.90013102  1  0  -0.01503  0  3.738358  0  0  -0.044204  0  3.992675  0  0  -0.038056  0  4.010252  0  0  -0.075112  -0.047719  0  3.980901  0
C  C32  1  0.51309837  0.90735595  0.09439285  1  0  -0.181057  0  3.803386  0  0  -0.158733  0  4.071412  0  0  -0.170924  0  4.094221  0  0  -0.037787  -0.151231  0  4.056625  0
C  C33  1  0.01309857  0.09439265  0.90735344  1  0  -0.181119  0  3.803428  0  0  -0.158796  0  4.071441  0  0  -0.17099  0  4.094254  0  0  -0.037761  -0.151289  0  4.056645  0
C  C34  1  0.58961243  0.04185805  0.21192912  1  0  -0.01413  0  3.720815  0  0  -0.058273  0  3.983856  0  0  -0.049841  0  3.999789  0  0  -0.073648  -0.063598  0  3.972882  0
C  C35  1  0.08961425  0.21192946  0.04185576  1  0  -0.014055  0  3.720782  0  0  -0.058194  0  3.983818  0  0  -0.049761  0  3.999749  0  0  -0.073631  -0.06352  0  3.972843  0
C  C36  1  0.62542968  0.17222746  0.18491982  1  0  -0.230129  0  3.752171  0  0  -0.208757  0  3.997261  0  0  -0.225875  0  4.021893  0  0  -0.040291  -0.197174  0  3.980272  0
C  C37  1  0.12543117  0.18491766  0.17222467  1  0  -0.230225  0  3.752155  0  0  -0.208844  0  3.99727  0  0  -0.225964  0  4.021898  0  0  -0.040327  -0.197261  0  3.98028  0
C  C38  1  0.71400439  0.31364784  0.30955815  1  0  0.683796  0  3.865525  0  0  0.622447  0  4.166969  0  0  0.658526  0  4.159064  0  0  0.214787  0.597612  0  4.171961  0
C  C39  1  0.21400271  0.30955817  0.31364876  1  0  0.683816  0  3.865581  0  0  0.622452  0  4.167059  0  0  0.658534  0  4.159149  0  0  0.214761  0.597618  0  4.17205  0
S  S40  1  0.48574742  0.73971448  0.12356870  1  0  1.354723  0  5.542167  0  0  1.238413  0  6.071789  0  0  1.286445  0  6.048792  0  0  0.543671  1.205189  0  6.086938  0
S  S41  1  0.98574790  0.12356900  0.73971386  1  0  1.354912  0  5.542058  0  0  1.238612  0  6.071666  0  0  1.286646  0  6.048661  0  0  0.543742  1.205389  0  6.086818  0
O  O42  1  0.49073583  0.16498079  0.59526733  1  0  -0.846792  0  1.900674  0  0  -0.788024  0  2.113354  0  0  -0.808078  0  2.07728  0  0  -0.578021  -0.773276  0  2.138175  0
O  O43  1  0.99073684  0.59526888  0.16498247  1  0  -0.846838  0  1.900615  0  0  -0.788056  0  2.113275  0  0  -0.808112  0  2.077207  0  0  -0.57801  -0.773308  0  2.138099  0
O  O44  1  0.25592016  0.46705223  0.74075890  1  0  -0.842718  0  1.90913  0  0  -0.776319  0  2.102505  0  0  -0.798235  0  2.068412  0  0  -0.562234  -0.760618  0  2.126649  0
O  O45  1  0.75591958  0.74075810  0.46705286  1  0  -0.84271  0  1.909143  0  0  -0.776322  0  2.102519  0  0  -0.79823  0  2.068418  0  0  -0.562248  -0.76062  0  2.126662  0
O  O46  1  0.70443605  0.46911801  0.77059747  1  0  -0.850204  0  1.897444  0  0  -0.785098  0  2.102068  0  0  -0.806775  0  2.067083  0  0  -0.580994  -0.769612  0  2.126517  0
O  O47  1  0.20443711  0.77059670  0.46911878  1  0  -0.850239  0  1.897416  0  0  -0.785134  0  2.102037  0  0  -0.806812  0  2.067055  0  0  -0.581018  -0.769651  0  2.126487  0
O  O48  1  0.48223901  0.58709219  0.57178948  1  0  -0.835187  0  1.905302  0  0  -0.773645  0  2.107484  0  0  -0.795968  0  2.073125  0  0  -0.578121  -0.757417  0  2.131853  0
O  O49  1  0.98224057  0.57178763  0.58709034  1  0  -0.835261  0  1.905124  0  0  -0.773709  0  2.107348  0  0  -0.796025  0  2.073002  0  0  -0.578138  -0.757479  0  2.131725  0
O  O50  1  0.73182068  0.32465849  0.44597783  1  0  -0.659134  0  2.035293  0  0  -0.58851  0  2.281379  0  0  -0.614275  0  2.267316  0  0  -0.316707  -0.57036  0  2.290715  0
O  O51  1  0.23182237  0.44597800  0.32465705  1  0  -0.659121  0  2.035275  0  0  -0.588507  0  2.281363  0  0  -0.614272  0  2.267298  0  0  -0.316709  -0.570359  0  2.290694  0
O  O52  1  0.77324162  0.42078948  0.27167181  1  0  -0.659659  0  2.082263  0  0  -0.582431  0  2.332835  0  0  -0.611255  0  2.320997  0  0  -0.308524  -0.562681  0  2.34158  0
O  O53  1  0.27324356  0.27167104  0.42078742  1  0  -0.659619  0  2.082332  0  0  -0.582418  0  2.332907  0  0  -0.611244  0  2.321069  0  0  -0.308475  -0.562672  0  2.341656  0
O  O54  1  0.61417850  0.28483042  0.00261017  1  0  -0.494351  0  2.085904  0  0  -0.451322  0  2.301659  0  0  -0.470423  0  2.29152  0  0  -0.344275  -0.437946  0  2.309289  0
O  O55  1  0.11417009  0.00260998  0.28483248  1  0  -0.494392  0  2.085846  0  0  -0.451401  0  2.301583  0  0  -0.470505  0  2.291437  0  0  -0.344288  -0.438029  0  2.309218  0
O  O56  1  0.48352479  0.78391043  0.28907460  1  0  -0.669249  0  2.024951  0  0  -0.602582  0  2.263247  0  0  -0.624576  0  2.247356  0  0  -0.318199  -0.587188  0  2.273912  0
O  O57  1  0.98352327  0.28907105  0.78390740  1  0  -0.669366  0  2.024922  0  0  -0.60271  0  2.263231  0  0  -0.624703  0  2.247335  0  0  -0.318315  -0.587318  0  2.273901  0
O  O58  1  0.65139510  0.64947539  0.06038318  1  0  -0.692174  0  2.02211  0  0  -0.623071  0  2.260633  0  0  -0.645838  0  2.245021  0  0  -0.32691  -0.606866  0  2.272834  0
O  O59  1  0.15139212  0.06038226  0.64947230  1  0  -0.692191  0  2.022081  0  0  -0.623087  0  2.260597  0  0  -0.645853  0  2.244984  0  0  -0.326888  -0.606888  0  2.272799  0
O  O60  1  0.30529646  0.65739959  0.03940163  1  0  -0.679988  0  2.012584  0  0  -0.613829  0  2.253255  0  0  -0.635897  0  2.237501  0  0  -0.321485  -0.598171  0  2.263271  0
O  O61  1  0.80529714  0.03940232  0.65739916  1  0  -0.680031  0  2.012555  0  0  -0.613871  0  2.253218  0  0  -0.635948  0  2.23747  0  0  -0.321487  -0.598216  0  2.263235  0
