# generated using pymatgen
data_PrH31C48(N2O5)2
_symmetry_space_group_name_H-M   'P 1'
_cell_length_a   9.60000995
_cell_length_b   13.93050795
_cell_length_c   17.32882550
_cell_angle_alpha   98.17388154
_cell_angle_beta   90.36514596
_cell_angle_gamma   90.90859313
_symmetry_Int_Tables_number   1
_chemical_formula_structural   PrH31C48(N2O5)2
_chemical_formula_sum   'Pr2 H62 C96 N8 O20'
_cell_volume   2293.51801500
_cell_formula_units_Z   2
loop_
 _symmetry_equiv_pos_site_id
 _symmetry_equiv_pos_as_xyz
  1  'x, y, z'
loop_
 _atom_site_type_symbol
 _atom_site_label
 _atom_site_symmetry_multiplicity
 _atom_site_fract_x
 _atom_site_fract_y
 _atom_site_fract_z
 _atom_site_occupancy
 _atom_site_pbe_bader_charge
 _atom_site_pbe_bader_spin_density
 _atom_site_pbe_cm5_charge
 _atom_site_pbe_ddec_charge
 _atom_site_pbe_ddec_spin_density
 _atom_site_pbe_ddec_sum_bond_order
 _atom_site_pbe_magmom
Pr  Pr0  1  0.26177986  0.40628243  0.50850480  1  2.277711  0  1.500639  2.140274  0  2.148788  0
Pr  Pr1  1  0.73822017  0.59371635  0.49149482  1  2.277738  0  1.500634  2.140221  0  2.148801  0
H  H2  1  0.10064318  0.26909631  0.04552450  1  0.072594  0  0.102224  0.11579  0  1.036028  0
H  H3  1  0.23568637  0.25579825  0.90955555  1  0.076124  0  0.098532  0.114882  0  1.040536  0
H  H4  1  0.53793630  0.98096608  0.74201627  1  0.089159  0  0.109257  0.129967  0  0.999731  0
H  H5  1  0.58693091  0.79344853  0.75129124  1  0.121122  0  0.112063  0.135323  0  1.018443  0
H  H6  1  0.43555966  0.54436852  0.94358041  1  0.07463  0  0.101914  0.119476  0  1.025798  0
H  H7  1  0.25458370  0.54953870  0.06266039  1  0.079278  0  0.097812  0.112594  0  1.053519  0
H  H8  1  0.96829257  0.83094183  0.23290838  1  0.086467  0  0.104843  0.124407  0  1.027342  0
H  H9  1  0.95808165  0.02460600  0.23839318  1  0.094611  0  0.108874  0.128964  0  1.005749  0
H  H10  1  0.33627308  0.90747363  0.94333399  1  0.509691  0  0.312159  0.26227  0  1.009977  0
H  H11  1  0.22279227  0.91299532  0.05285530  1  0.531607  0  0.312229  0.262829  0  1.008819  0
H  H12  1  0.51759573  0.23561849  0.89443437  1  0.132162  0  0.103278  0.105968  0  1.043425  0
H  H13  1  0.55141831  0.36016535  0.80602447  1  0.105775  0  0.103754  0.106193  0  1.007449  0
H  H14  1  0.43827338  0.33637836  0.67454211  1  0.092903  0  0.111736  0.104759  0  1.042205  0
H  H15  1  0.27343389  0.05925506  0.71801395  1  0.099613  0  0.108716  0.114649  0  1.005918  0
H  H16  1  0.18422904  0.09903337  0.53549126  1  0.630502  0  0.359934  0.396989  0  0.829622  0
H  H17  1  0.69851782  0.64691802  0.92290075  1  0.067151  0  0.096741  0.099065  0  1.037936  0
H  H18  1  0.84784714  0.53397363  0.83526217  1  0.05514  0  0.096366  0.093076  0  1.035588  0
H  H19  1  0.76729546  0.47518849  0.69877003  1  0.117419  0  0.105101  0.108547  0  1.054742  0
H  H20  1  0.39216765  0.63747704  0.73961322  1  0.08444  0  0.10816  0.115004  0  1.009377  0
H  H21  1  0.95960411  0.60358699  0.04782932  1  0.064105  0  0.100985  0.103358  0  1.00111  0
H  H22  1  0.79872617  0.50818287  0.12021349  1  0.061151  0  0.093829  0.093139  0  1.040996  0
H  H23  1  0.81286852  0.52615302  0.26614529  1  0.113102  0  0.109251  0.1102  0  1.020532  0
H  H24  1  0.16892106  0.71581116  0.26341861  1  0.109373  0  0.103202  0.108187  0  1.012764  0
H  H25  1  0.88463524  0.20321269  0.08735275  1  0.08841  0  0.098569  0.100153  0  1.048782  0
H  H26  1  0.79115610  0.34129120  0.17519242  1  0.05379  0  0.09626  0.089621  0  1.046998  0
H  H27  1  0.89772645  0.39095811  0.30750460  1  0.084968  0  0.111379  0.114891  0  1.014887  0
H  H28  1  0.19389659  0.16287404  0.26122097  1  0.097798  0  0.10237  0.107733  0  1.025889  0
H  H29  1  0.15835196  0.60332158  0.47109554  1  0.650603  0  0.29045  0.390041  0  0.952575  0
H  H30  1  0.09123347  0.58753052  0.55208351  1  0.655084  0  0.300061  0.403868  0  0.931673  0
H  H31  1  0.57198033  0.39105009  0.51519453  1  0.642521  0  0.306726  0.395808  0  0.941877  0
H  H32  1  0.53742269  0.27874040  0.50364923  1  0.622663  0  0.33814  0.42668  0  0.849058  0
H  H33  1  0.89935795  0.73090465  0.95447595  1  0.072612  0  0.102222  0.115805  0  1.036033  0
H  H34  1  0.76431474  0.74420198  0.09044482  1  0.075832  0  0.098532  0.114897  0  1.040521  0
H  H35  1  0.46206481  0.01903415  0.25798410  1  0.089164  0  0.109266  0.129982  0  0.999729  0
H  H36  1  0.41307020  0.20655170  0.24870913  1  0.121118  0  0.112068  0.13533  0  1.018436  0
H  H37  1  0.56443938  0.45563244  0.05641946  1  0.074509  0  0.101913  0.119502  0  1.025811  0
H  H38  1  0.74541638  0.45046227  0.93734006  1  0.079238  0  0.097817  0.112598  0  1.053512  0
H  H39  1  0.03170647  0.16905913  0.76709207  1  0.086422  0  0.104852  0.124413  0  1.027321  0
H  H40  1  0.04191739  0.97539497  0.76160611  1  0.094627  0  0.108855  0.128992  0  1.005705  0
H  H41  1  0.66372386  0.09252661  0.05666521  1  0.509692  0  0.312188  0.26232  0  1.009907  0
H  H42  1  0.77720776  0.08700347  0.94714491  1  0.531585  0  0.312223  0.262803  0  1.008839  0
H  H43  1  0.48240227  0.76438247  0.10556550  1  0.132149  0  0.103272  0.105973  0  1.043383  0
H  H44  1  0.44857865  0.63983561  0.19397539  1  0.105772  0  0.103761  0.106215  0  1.007418  0
H  H45  1  0.56172462  0.66362260  0.32545776  1  0.092913  0  0.111742  0.104765  0  1.042198  0
H  H46  1  0.72656826  0.94074518  0.28198585  1  0.099599  0  0.108727  0.114659  0  1.005973  0
H  H47  1  0.81577308  0.90096542  0.46450779  1  0.630382  0  0.35994  0.396985  0  0.82963  0
H  H48  1  0.30148124  0.35308366  0.07709805  1  0.067123  0  0.096751  0.099073  0  1.037916  0
H  H49  1  0.15215294  0.46602733  0.16473713  1  0.055112  0  0.096377  0.0931  0  1.03558  0
H  H50  1  0.23270252  0.52481175  0.30122976  1  0.117413  0  0.105091  0.108519  0  1.05474  0
H  H51  1  0.60783032  0.36252247  0.26038648  1  0.08441  0  0.108178  0.115022  0  1.009345  0
H  H52  1  0.04039699  0.39641252  0.95217212  1  0.06407  0  0.100952  0.103318  0  1.001166  0
H  H53  1  0.20127595  0.49181592  0.87978845  1  0.061292  0  0.09385  0.093148  0  1.040996  0
H  H54  1  0.18713565  0.47384432  0.73385649  1  0.113115  0  0.109243  0.110184  0  1.020543  0
H  H55  1  0.83108002  0.28418763  0.73658275  1  0.109365  0  0.103189  0.108135  0  1.01277  0
H  H56  1  0.11536380  0.79678828  0.91264597  1  0.08837  0  0.098552  0.100155  0  1.048808  0
H  H57  1  0.20884293  0.65870904  0.82480737  1  0.053804  0  0.096261  0.089627  0  1.047006  0
H  H58  1  0.10227360  0.60904140  0.69249453  1  0.085001  0  0.111381  0.114917  0  1.014826  0
H  H59  1  0.80610242  0.83712547  0.73877758  1  0.097769  0  0.10235  0.107709  0  1.0259  0
H  H60  1  0.84165018  0.39667794  0.52890533  1  0.650615  0  0.29044  0.389971  0  0.952663  0
H  H61  1  0.90876658  0.41246899  0.44791678  1  0.655087  0  0.300065  0.403876  0  0.931657  0
H  H62  1  0.42801765  0.60895015  0.48480526  1  0.642025  0  0.306718  0.395796  0  0.941881  0
H  H63  1  0.46257632  0.72125911  0.49635105  1  0.622665  0  0.338116  0.426658  0  0.849072  0
C  C64  1  0.16990007  0.11402149  0.04400941  1  0.477253  0  0.094969  0.202913  0  4.031583  0
C  C65  1  0.15743862  0.20778062  0.01665582  1  -0.067894  0  -0.10439  -0.183075  0  3.980644  0
C  C66  1  0.22615559  0.20093483  0.94786769  1  -0.066173  0  -0.107478  -0.185927  0  3.976483  0
C  C67  1  0.28259074  0.10348262  0.93418479  1  0.453917  0  0.092534  0.199856  0  4.042706  0
C  C68  1  0.36287963  0.06987053  0.86823007  1  0.045942  0  0.002556  -0.077559  0  3.92835  0
C  C69  1  0.41452302  0.97580013  0.85037859  1  0.372002  0  0.104218  0.190732  0  4.019917  0
C  C70  1  0.50031165  0.93881008  0.78583451  1  -0.022968  0  -0.098082  -0.180612  0  3.968357  0
C  C71  1  0.52635489  0.84323223  0.79099555  1  -0.042949  0  -0.090498  -0.168656  0  3.944705  0
C  C72  1  0.45777228  0.81866535  0.85917514  1  0.393567  0  0.106211  0.191063  0  3.992121  0
C  C73  1  0.45761192  0.72804911  0.88583637  1  0.011428  0  0.00643  -0.068427  0  3.922281  0
C  C74  1  0.38491659  0.70391492  0.95112797  1  0.484233  0  0.08799  0.180651  0  4.066314  0
C  C75  1  0.37820275  0.60614172  0.97163928  1  -0.101861  0  -0.10821  -0.191716  0  3.980406  0
C  C76  1  0.28597108  0.60856548  0.03155027  1  -0.111348  0  -0.108196  -0.186392  0  3.975792  0
C  C77  1  0.23950792  0.70815753  0.04834084  1  0.484727  0  0.086811  0.178224  0  4.075553  0
C  C78  1  0.14810939  0.74088860  0.10961272  1  0.035276  0  0.003239  -0.070861  0  3.928473  0
C  C79  1  0.11561089  0.83842131  0.13431742  1  0.352319  0  0.103762  0.187757  0  3.997383  0
C  C80  1  0.02450624  0.87526067  0.19661365  1  0.010642  0  -0.097806  -0.176264  0  3.973814  0
C  C81  1  0.01902676  0.97409791  0.19948465  1  -0.075954  0  -0.096363  -0.179878  0  3.974989  0
C  C82  1  0.10313762  0.00087614  0.13767575  1  0.426838  0  0.105307  0.192732  0  4.007032  0
C  C83  1  0.11033833  0.09305133  0.11403552  1  0.02202  0  0.00826  -0.062873  0  3.915292  0
C  C84  1  0.39190857  0.13978246  0.81257897  1  0.029358  0  0.000907  0.085201  0  3.993327  0
C  C85  1  0.47109777  0.22479670  0.83624230  1  -0.105994  0  -0.069499  -0.094656  0  3.901036  0
C  C86  1  0.48985763  0.29459428  0.78661720  1  0.003488  0  -0.083464  -0.070858  0  3.977443  0
C  C87  1  0.42875337  0.28105218  0.71277024  1  -0.007921  0  -0.07018  -0.072731  0  3.932894  0
C  C88  1  0.35180337  0.19551178  0.68769733  1  -0.015996  0  -0.023328  -0.070583  0  4.029967  0
C  C89  1  0.33477660  0.12477966  0.73730504  1  -0.095502  0  -0.074673  -0.135239  0  3.921335  0
C  C90  1  0.28685083  0.18389579  0.60976213  1  1.457064  0  0.252848  0.617761  0  4.077079  0
C  C91  1  0.53737996  0.65128534  0.83695272  1  -0.088379  0  -0.007166  0.077347  0  4.022524  0
C  C92  1  0.66410837  0.61903296  0.86385947  1  0.019888  0  -0.087974  -0.128363  0  3.957057  0
C  C93  1  0.74726807  0.55614515  0.81477748  1  -0.064685  0  -0.092234  -0.078044  0  4.015889  0
C  C94  1  0.70379634  0.52346724  0.73850717  1  -0.005396  0  -0.08211  -0.098925  0  3.948158  0
C  C95  1  0.57401750  0.55109297  0.71261726  1  -0.057757  0  -0.012707  -0.032113  0  3.976777  0
C  C96  1  0.49108003  0.61461693  0.76163237  1  -0.030383  0  -0.07934  -0.145499  0  3.920877  0
C  C97  1  0.52389406  0.51136701  0.63263691  1  1.589835  0  0.240785  0.644492  0  4.151429  0
C  C98  1  0.07153586  0.66999434  0.15086648  1  -0.041073  0  -0.008502  0.073285  0  4.020273  0
C  C99  1  0.97005015  0.60750417  0.11095113  1  0.003443  0  -0.086001  -0.126699  0  3.965884  0
C  C100  1  0.87874357  0.55469524  0.15193097  1  -0.043903  0  -0.096548  -0.088102  0  4.023059  0
C  C101  1  0.88785874  0.56302441  0.23306428  1  -0.078821  0  -0.079913  -0.089984  0  3.953588  0
C  C102  1  0.99545230  0.61903466  0.27285049  1  -0.046521  0  -0.018298  -0.041988  0  3.970722  0
C  C103  1  0.08681830  0.67165341  0.23145790  1  -0.080003  0  -0.081973  -0.150146  0  3.957526  0
C  C104  1  0.01514401  0.62277434  0.35951555  1  1.597404  0  0.2243  0.619986  0  4.188416  0
C  C105  1  0.04721082  0.17350211  0.16750113  1  -0.046039  0  -0.005697  0.077446  0  4.006686  0
C  C106  1  0.93263019  0.22441324  0.14454186  1  -0.033401  0  -0.085102  -0.113965  0  3.936006  0
C  C107  1  0.87886757  0.30204878  0.19461534  1  -0.022212  0  -0.095355  -0.084133  0  4.022022  0
C  C108  1  0.93754566  0.32977816  0.26819566  1  -0.05983  0  -0.080481  -0.090305  0  3.950278  0
C  C109  1  0.05157119  0.27938481  0.29193379  1  -0.067201  0  -0.020523  -0.028112  0  3.98922  0
C  C110  1  0.10480767  0.20098614  0.24200294  1  -0.001541  0  -0.080772  -0.143141  0  3.926736  0
C  C111  1  0.12071022  0.31396719  0.36820215  1  1.540901  0  0.194647  0.573975  0  4.235537  0
C  C112  1  0.83009998  0.88597802  0.95599030  1  0.477258  0  0.094973  0.202893  0  4.031477  0
C  C113  1  0.84256248  0.79221889  0.98334447  1  -0.053713  0  -0.104381  -0.183045  0  3.980598  0
C  C114  1  0.77384552  0.79906541  0.05213210  1  -0.080096  0  -0.107498  -0.18599  0  3.976505  0
C  C115  1  0.71741037  0.89651761  0.06581559  1  0.454304  0  0.092547  0.199859  0  4.042723  0
C  C116  1  0.63712148  0.93012971  0.13176972  1  0.045945  0  0.002565  -0.077554  0  3.928272  0
C  C117  1  0.58547602  0.02420083  0.14962128  1  0.372022  0  0.104242  0.190794  0  4.019907  0
C  C118  1  0.49968947  0.06119088  0.21416595  1  -0.022972  0  -0.098078  -0.180615  0  3.968428  0
C  C119  1  0.47364623  0.15676801  0.20900483  1  -0.042954  0  -0.090519  -0.168676  0  3.944792  0
C  C120  1  0.54222779  0.18133488  0.14082466  1  0.39357  0  0.106197  0.191056  0  3.992119  0
C  C121  1  0.54238607  0.27195113  0.11416342  1  0.011452  0  0.006425  -0.068408  0  3.922219  0
C  C122  1  0.61508454  0.29608604  0.04887248  1  0.484206  0  0.087983  0.180653  0  4.066378  0
C  C123  1  0.62179627  0.39385852  0.02836108  1  -0.101779  0  -0.108194  -0.191749  0  3.980453  0
C  C124  1  0.71403005  0.39143548  0.96845133  1  -0.111301  0  -0.108197  -0.186377  0  3.975766  0
C  C125  1  0.76049215  0.29184271  0.95165953  1  0.484719  0  0.086858  0.17828  0  4.075524  0
C  C126  1  0.85188964  0.25911164  0.89038880  1  0.035283  0  0.003149  -0.070972  0  3.92846  0
C  C127  1  0.88438916  0.16157820  0.86568286  1  0.352318  0  0.103761  0.187737  0  3.997362  0
C  C128  1  0.97549385  0.12474029  0.80338738  1  0.010675  0  -0.097803  -0.176248  0  3.97383  0
C  C129  1  0.98097229  0.02590305  0.80051522  1  -0.075964  0  -0.096331  -0.179915  0  3.974963  0
C  C130  1  0.89686140  0.99912409  0.86232404  1  0.426878  0  0.105291  0.192699  0  4.0071  0
C  C131  1  0.88966067  0.90694818  0.88596419  1  0.022001  0  0.008212  -0.06295  0  3.915291  0
C  C132  1  0.60809150  0.86021778  0.18742140  1  0.029358  0  0.000914  0.085206  0  3.993323  0
C  C133  1  0.52890127  0.77520426  0.16375815  1  -0.105922  0  -0.069487  -0.09463  0  3.90098  0
C  C134  1  0.51014142  0.70540668  0.21338267  1  0.003417  0  -0.083481  -0.070912  0  3.977485  0
C  C135  1  0.57124566  0.71894805  0.28722955  1  -0.007908  0  -0.070162  -0.072702  0  3.932889  0
C  C136  1  0.64819669  0.80448845  0.31230246  1  -0.015979  0  -0.023342  -0.070592  0  4.02995  0
C  C137  1  0.66522245  0.87522130  0.26269483  1  -0.095517  0  -0.074719  -0.135302  0  3.921533  0
C  C138  1  0.71315128  0.81610299  0.39023693  1  1.456983  0  0.25283  0.617765  0  4.077059  0
C  C139  1  0.46261699  0.34871489  0.16304706  1  -0.088324  0  -0.007167  0.077347  0  4.022537  0
C  C140  1  0.33588963  0.38096800  0.13613982  1  0.019833  0  -0.088011  -0.128398  0  3.957052  0
C  C141  1  0.25273097  0.44385581  0.18522181  1  -0.064683  0  -0.092254  -0.078076  0  4.0159  0
C  C142  1  0.29620268  0.47653299  0.26149205  1  -0.005429  0  -0.082057  -0.09881  0  3.948156  0
C  C143  1  0.42598047  0.44890654  0.28738245  1  -0.057684  0  -0.012735  -0.032208  0  3.976855  0
C  C144  1  0.50891691  0.38538331  0.23836742  1  -0.030332  0  -0.079368  -0.145534  0  3.92096  0
C  C145  1  0.47610495  0.48863250  0.36736279  1  1.589787  0  0.240797  0.644543  0  4.151341  0
C  C146  1  0.92846213  0.33000590  0.84913389  1  -0.040653  0  -0.008458  0.073357  0  4.020292  0
C  C147  1  0.02995094  0.39249534  0.88904916  1  0.003467  0  -0.085957  -0.126713  0  3.965972  0
C  C148  1  0.12125959  0.44530355  0.84807040  1  -0.044066  0  -0.096538  -0.087989  0  4.023119  0
C  C149  1  0.11214543  0.43697292  0.76693750  1  -0.078804  0  -0.079957  -0.090082  0  3.95375  0
C  C150  1  0.00455190  0.38096413  0.72715030  1  -0.046597  0  -0.01833  -0.04208  0  3.970712  0
C  C151  1  0.91318590  0.32834538  0.76854289  1  -0.080385  0  -0.081962  -0.150041  0  3.957394  0
C  C152  1  0.98486016  0.37722300  0.64048681  1  1.597374  0  0.224331  0.620062  0  4.188251  0
C  C153  1  0.95278716  0.82649813  0.83249750  1  -0.046062  0  -0.005609  0.077642  0  4.006617  0
C  C154  1  0.06736883  0.77558699  0.85545735  1  -0.033365  0  -0.085182  -0.114185  0  3.936201  0
C  C155  1  0.12113146  0.69795146  0.80538502  1  -0.022207  0  -0.095326  -0.084017  0  4.022105  0
C  C156  1  0.06245546  0.67022281  0.73180364  1  -0.059847  0  -0.080502  -0.090404  0  3.950271  0
C  C157  1  0.94842887  0.72061543  0.70806427  1  -0.067337  0  -0.020548  -0.028099  0  3.989227  0
C  C158  1  0.89519134  0.79901337  0.75799561  1  -0.00134  0  -0.080707  -0.143103  0  3.926686  0
C  C159  1  0.87929195  0.68603377  0.63179542  1  1.540894  0  0.194623  0.573903  0  4.235689  0
N  N160  1  0.24533511  0.05146902  0.99260751  1  -1.157638  0  -0.348854  -0.413357  0  3.164751  0
N  N161  1  0.39203843  0.90100397  0.89299047  1  -1.250452  0  -0.376151  -0.265637  0  3.608068  0
N  N162  1  0.30190855  0.76508229  0.99945058  1  -1.160606  0  -0.35099  -0.419642  0  3.209373  0
N  N163  1  0.16123869  0.91714332  0.10095364  1  -1.301102  0  -0.376168  -0.264899  0  3.599261  0
N  N164  1  0.75466600  0.94853122  0.00739287  1  -1.157986  0  -0.348854  -0.413321  0  3.164655  0
N  N165  1  0.60796164  0.09899626  0.10700932  1  -1.25047  0  -0.376153  -0.265714  0  3.608038  0
N  N166  1  0.69809151  0.23491795  0.00054921  1  -1.16059  0  -0.350977  -0.41963  0  3.209412  0
N  N167  1  0.83876034  0.08285692  0.89904615  1  -1.301123  0  -0.376172  -0.264834  0  3.599278  0
O  O168  1  0.22240075  0.09696134  0.58783107  1  -1.123323  0  -0.324413  -0.470217  0  2.192936  0
O  O169  1  0.28864484  0.24590153  0.56537597  1  -1.190068  0  -0.324469  -0.604373  0  2.311545  0
O  O170  1  0.39625850  0.48837233  0.62280112  1  -1.204781  0  -0.377497  -0.649151  0  2.248227  0
O  O171  1  0.61459047  0.49899419  0.57795801  1  -1.230054  0  -0.395426  -0.674984  0  2.323449  0
O  O172  1  0.90995587  0.59720799  0.39756789  1  -1.226173  0  -0.450745  -0.709444  0  2.331256  0
O  O173  1  0.13221692  0.64909548  0.38926512  1  -1.178237  0  -0.314622  -0.546745  0  2.123481  0
O  O174  1  0.06814385  0.38703899  0.41195981  1  -1.205996  0  -0.38676  -0.657338  0  2.299647  0
O  O175  1  0.23174247  0.27535515  0.38896861  1  -1.193475  0  -0.381701  -0.63751  0  2.127078  0
O  O176  1  0.17546790  0.57269574  0.51969702  1  -1.30328  0  -0.66302  -0.868517  0  2.042632  0
O  O177  1  0.50799230  0.33971815  0.48839852  1  -1.2463  0  -0.617645  -0.830483  0  2.023429  0
O  O178  1  0.77760242  0.90303818  0.41216808  1  -1.123202  0  -0.324432  -0.470217  0  2.192898  0
O  O179  1  0.71135729  0.75409798  0.43462260  1  -1.189987  0  -0.324438  -0.604371  0  2.311573  0
O  O180  1  0.60374153  0.51162646  0.37719677  1  -1.204774  0  -0.377473  -0.649135  0  2.248148  0
O  O181  1  0.38540854  0.50100532  0.42204112  1  -1.230058  0  -0.39545  -0.675046  0  2.323441  0
O  O182  1  0.09004725  0.40278934  0.60243331  1  -1.226168  0  -0.450841  -0.709505  0  2.331051  0
O  O183  1  0.86778520  0.35090330  0.61073855  1  -1.178174  0  -0.31452  -0.546672  0  2.123473  0
O  O184  1  0.93185618  0.61295980  0.58803981  1  -1.206036  0  -0.386703  -0.657239  0  2.299596  0
O  O185  1  0.76826077  0.72464727  0.61102855  1  -1.193468  0  -0.381723  -0.6375  0  2.127113  0
O  O186  1  0.82453319  0.42730377  0.48030385  1  -1.303293  0  -0.663026  -0.868469  0  2.042705  0
O  O187  1  0.49200775  0.66028136  0.51160119  1  -1.245804  0  -0.617615  -0.830439  0  2.02343  0
