# generated using pymatgen
data_AgH2C7I3O2
_symmetry_space_group_name_H-M   'P 1'
_cell_length_a   5.76573080
_cell_length_b   13.03649831
_cell_length_c   14.78561866
_cell_angle_alpha   108.27218636
_cell_angle_beta   90.00006705
_cell_angle_gamma   90.00000348
_symmetry_Int_Tables_number   1
_chemical_formula_structural   AgH2C7I3O2
_chemical_formula_sum   'Ag4 H8 C28 I12 O8'
_cell_volume   1055.32290312
_cell_formula_units_Z   4
loop_
 _symmetry_equiv_pos_site_id
 _symmetry_equiv_pos_as_xyz
  1  'x, y, z'
loop_
 _atom_site_type_symbol
 _atom_site_label
 _atom_site_symmetry_multiplicity
 _atom_site_fract_x
 _atom_site_fract_y
 _atom_site_fract_z
 _atom_site_occupancy
 _atom_site_hle17_bader_spin_density
 _atom_site_hle17_ddec_charge
 _atom_site_hle17_ddec_spin_density
 _atom_site_hle17_ddec_sum_bond_order
 _atom_site_hle17_magmom
 _atom_site_hse06_10hf_bader_spin_density
 _atom_site_hse06_10hf_ddec_charge
 _atom_site_hse06_10hf_ddec_spin_density
 _atom_site_hse06_10hf_ddec_sum_bond_order
 _atom_site_hse06_10hf_magmom
 _atom_site_hse06_bader_spin_density
 _atom_site_hse06_ddec_charge
 _atom_site_hse06_ddec_spin_density
 _atom_site_hse06_ddec_sum_bond_order
 _atom_site_hse06_magmom
 _atom_site_pbe_bader_spin_density
 _atom_site_pbe_cm5_charge
 _atom_site_pbe_ddec_charge
 _atom_site_pbe_ddec_spin_density
 _atom_site_pbe_ddec_sum_bond_order
 _atom_site_pbe_magmom
Ag  Ag0  1  0.30462409  0.04298747  0.05634608  1  0  0.494731  0  1.593756  0  0  0.384567  0  2.065815  0  0  0.419906  0  2.005203  0  0  0.331615  0.360326  0  2.107463  0
Ag  Ag1  1  0.19537594  0.54298650  0.55634850  1  0  0.494746  0  1.593736  0  0  0.384582  0  2.065793  0  0  0.419919  0  2.005184  0  0  0.331624  0.360341  0  2.107436  0
Ag  Ag2  1  0.69537388  0.95701080  0.94365231  1  0  0.494731  0  1.593751  0  0  0.384561  0  2.065809  0  0  0.4199  0  2.005197  0  0  0.331629  0.360319  0  2.107459  0
Ag  Ag3  1  0.80462724  0.45701173  0.44365327  1  0  0.49474  0  1.593749  0  0  0.384577  0  2.065806  0  0  0.419914  0  2.005195  0  0  0.331638  0.360335  0  2.107451  0
H  H4  1  0.79516553  0.43577210  0.02655791  1  0  0.098537  0  0.980614  0  0  0.105847  0  1.051639  0  0  0.109747  0  1.048627  0  0  0.085284  0.103012  0  1.053859  0
H  H5  1  0.70483605  0.93577360  0.52655629  1  0  0.09854  0  0.980596  0  0  0.10585  0  1.051625  0  0  0.109748  0  1.048616  0  0  0.08529  0.103023  0  1.053861  0
H  H6  1  0.20483418  0.56422695  0.97344342  1  0  0.098527  0  0.980618  0  0  0.105839  0  1.051646  0  0  0.109739  0  1.048635  0  0  0.085273  0.103006  0  1.053864  0
H  H7  1  0.29516539  0.06422709  0.47344279  1  0  0.098551  0  0.980596  0  0  0.105862  0  1.05162  0  0  0.109762  0  1.04861  0  0  0.085293  0.103035  0  1.053857  0
H  H8  1  0.59414203  0.60112201  0.31759164  1  0  0.102833  0  0.959512  0  0  0.112209  0  1.028497  0  0  0.115889  0  1.02523  0  0  0.090964  0.109449  0  1.031161  0
H  H9  1  0.90586040  0.10112085  0.81759260  1  0  0.102803  0  0.959509  0  0  0.112172  0  1.028511  0  0  0.115852  0  1.025245  0  0  0.090956  0.109414  0  1.031166  0
H  H10  1  0.40585595  0.39888030  0.68240789  1  0  0.102798  0  0.959546  0  0  0.112176  0  1.028546  0  0  0.115856  0  1.02528  0  0  0.090962  0.109416  0  1.031211  0
H  H11  1  0.09413757  0.89887902  0.18240693  1  0  0.102795  0  0.959535  0  0  0.112159  0  1.02854  0  0  0.115839  0  1.025272  0  0  0.09095  0.109401  0  1.031194  0
C  C12  1  0.39811299  0.45902692  0.24527194  1  0  -0.059009  0  3.737114  0  0  -0.039816  0  3.976389  0  0  -0.045014  0  3.995842  0  0  -0.022593  -0.036668  0  3.963515  0
C  C13  1  0.10189114  0.95902678  0.74527116  1  0  -0.058933  0  3.736849  0  0  -0.039738  0  3.976143  0  0  -0.044942  0  3.9956  0  0  -0.022559  -0.03658  0  3.963271  0
C  C14  1  0.60189192  0.54097375  0.75472916  1  0  -0.058981  0  3.73697  0  0  -0.039785  0  3.976264  0  0  -0.044985  0  3.995715  0  0  -0.022573  -0.036638  0  3.963392  0
C  C15  1  0.89810684  0.04097311  0.25472769  1  0  -0.058921  0  3.736923  0  0  -0.03973  0  3.976205  0  0  -0.044932  0  3.995658  0  0  -0.02256  -0.036591  0  3.963358  0
C  C16  1  0.36567811  0.37323533  0.16015582  1  0  -0.035822  0  3.625884  0  0  -0.02508  0  3.883873  0  0  -0.0217  0  3.905961  0  0  -0.061153  -0.027475  0  3.869265  0
C  C17  1  0.13432228  0.87323440  0.66015348  1  0  -0.035798  0  3.625766  0  0  -0.025029  0  3.883717  0  0  -0.021645  0  3.905809  0  0  -0.061123  -0.027425  0  3.869125  0
C  C18  1  0.63432333  0.62676533  0.83984596  1  0  -0.035783  0  3.62577  0  0  -0.025048  0  3.883768  0  0  -0.021666  0  3.905857  0  0  -0.061134  -0.027442  0  3.869159  0
C  C19  1  0.86567570  0.12676548  0.33984537  1  0  -0.035867  0  3.625854  0  0  -0.025123  0  3.883835  0  0  -0.02174  0  3.905924  0  0  -0.061167  -0.027516  0  3.869248  0
C  C20  1  0.51433391  0.36451792  0.08278869  1  0  0.003127  0  3.673179  0  0  0.028506  0  3.927017  0  0  0.028432  0  3.952269  0  0  -0.062715  0.028078  0  3.910628  0
C  C21  1  0.98566437  0.86451704  0.58278856  1  0  0.003045  0  3.673326  0  0  0.028427  0  3.927146  0  0  0.028355  0  3.952388  0  0  -0.062762  0.027979  0  3.910812  0
C  C22  1  0.48566580  0.63548275  0.91721241  1  0  0.003069  0  3.673233  0  0  0.028472  0  3.927038  0  0  0.028397  0  3.952289  0  0  -0.062729  0.028037  0  3.910663  0
C  C23  1  0.01433360  0.13548283  0.41721097  1  0  0.003079  0  3.673234  0  0  0.028478  0  3.927034  0  0  0.028403  0  3.952283  0  0  -0.062743  0.028037  0  3.910686  0
C  C24  1  0.68271847  0.44343795  0.08754292  1  0  -0.122674  0  3.763818  0  0  -0.149832  0  4.012646  0  0  -0.151327  0  4.03323  0  0  -0.110498  -0.148636  0  3.998773  0
C  C25  1  0.81728330  0.94343785  0.58754225  1  0  -0.122685  0  3.763822  0  0  -0.149855  0  4.012661  0  0  -0.151356  0  4.033252  0  0  -0.110503  -0.148664  0  3.998829  0
C  C26  1  0.31728471  0.55656192  0.91245796  1  0  -0.12271  0  3.763835  0  0  -0.149875  0  4.01266  0  0  -0.151372  0  4.033245  0  0  -0.110519  -0.14868  0  3.99879  0
C  C27  1  0.18271468  0.05656203  0.41245727  1  0  -0.122708  0  3.763777  0  0  -0.149869  0  4.012598  0  0  -0.151368  0  4.033186  0  0  -0.110502  -0.148679  0  3.998768  0
C  C28  1  0.70820193  0.52934536  0.17136341  1  0  0.057643  0  3.652395  0  0  0.082435  0  3.91444  0  0  0.085022  0  3.935512  0  0  -0.050316  0.080532  0  3.900196  0
C  C29  1  0.79179657  0.02934500  0.67136319  1  0  0.057623  0  3.652411  0  0  0.082435  0  3.914434  0  0  0.085026  0  3.935512  0  0  -0.050308  0.08053  0  3.900212  0
C  C30  1  0.29179951  0.47065451  0.82863746  1  0  0.057634  0  3.652419  0  0  0.082438  0  3.914459  0  0  0.085028  0  3.935532  0  0  -0.05032  0.080535  0  3.900219  0
C  C31  1  0.20819793  0.97065325  0.32863656  1  0  0.057684  0  3.652371  0  0  0.08248  0  3.9144  0  0  0.08507  0  3.935474  0  0  -0.050301  0.080575  0  3.900178  0
C  C32  1  0.57086994  0.53640116  0.25056872  1  0  -0.092514  0  3.714051  0  0  -0.125114  0  3.967019  0  0  -0.124001  0  3.983477  0  0  -0.098405  -0.126021  0  3.956386  0
C  C33  1  0.92913228  0.03640003  0.75056834  1  0  -0.092509  0  3.71401  0  0  -0.125103  0  3.966967  0  0  -0.123996  0  3.983434  0  0  -0.098441  -0.125997  0  3.956318  0
C  C34  1  0.42913150  0.46360032  0.74943261  1  0  -0.092439  0  3.71406  0  0  -0.125057  0  3.967047  0  0  -0.123947  0  3.983511  0  0  -0.09841  -0.125963  0  3.956411  0
C  C35  1  0.07086570  0.96359904  0.24943163  1  0  -0.092532  0  3.714067  0  0  -0.125119  0  3.967031  0  0  -0.124007  0  3.983492  0  0  -0.09842  -0.126007  0  3.956387  0
C  C36  1  0.25587443  0.47254622  0.33401475  1  0  0.637884  0  3.906659  0  0  0.586145  0  4.187188  0  0  0.621643  0  4.182289  0  0  0.191047  0.562019  0  4.189572  0
C  C37  1  0.24413170  0.97254530  0.83401314  1  0  0.637832  0  3.906751  0  0  0.586057  0  4.187343  0  0  0.621556  0  4.182444  0  0  0.190991  0.561927  0  4.18973  0
C  C38  1  0.74413221  0.52745445  0.66598636  1  0  0.637859  0  3.906628  0  0  0.586113  0  4.187175  0  0  0.621613  0  4.182272  0  0  0.190994  0.561987  0  4.189561  0
C  C39  1  0.75586628  0.02745376  0.16598616  1  0  0.637859  0  3.906653  0  0  0.5861  0  4.187219  0  0  0.6216  0  4.182317  0  0  0.190978  0.561976  0  4.189607  0
I  I40  1  0.10284931  0.25770671  0.15009845  1  0  0.097646  0  1.740816  0  0  0.087262  0  2.132861  0  0  0.081443  0  2.118149  0  0  0.146084  0.091148  0  2.143375  0
I  I41  1  0.39715104  0.75770583  0.65009625  1  0  0.097626  0  1.740821  0  0  0.087239  0  2.132838  0  0  0.081423  0  2.118126  0  0  0.146099  0.091152  0  2.143356  0
I  I42  1  0.89715214  0.74229315  0.84990310  1  0  0.09763  0  1.740793  0  0  0.087241  0  2.132845  0  0  0.081423  0  2.118133  0  0  0.146069  0.091129  0  2.143359  0
I  I43  1  0.60284694  0.24229324  0.34990238  1  0  0.097647  0  1.740825  0  0  0.087262  0  2.132865  0  0  0.081445  0  2.118156  0  0  0.146098  0.091173  0  2.143384  0
I  I44  1  0.51393806  0.23148352  0.95732968  1  0  0.002639  0  1.65185  0  0  -0.010925  0  2.019049  0  0  -0.013082  0  2.004494  0  0  0.111581  -0.00913  0  2.029401  0
I  I45  1  0.98605961  0.73148314  0.45732847  1  0  0.002676  0  1.651845  0  0  -0.010892  0  2.019045  0  0  -0.013049  0  2.004492  0  0  0.111615  -0.009073  0  2.029426  0
I  I46  1  0.48605992  0.76851715  0.04267142  1  0  0.002658  0  1.651873  0  0  -0.010912  0  2.019072  0  0  -0.013068  0  2.004521  0  0  0.111582  -0.009114  0  2.029428  0
I  I47  1  0.01393836  0.26851674  0.54267038  1  0  0.002662  0  1.651867  0  0  -0.010909  0  2.019068  0  0  -0.013068  0  2.004518  0  0  0.111611  -0.009093  0  2.029449  0
I  I48  1  0.97406243  0.64231993  0.17790980  1  0  0.010546  0  1.471682  0  0  -0.001312  0  1.802279  0  0  -0.005726  0  1.794128  0  0  0.095183  0.001961  0  1.808076  0
I  I49  1  0.52593784  0.14231952  0.67790944  1  0  0.010564  0  1.47171  0  0  -0.001313  0  1.802316  0  0  -0.005711  0  1.794146  0  0  0.095218  0.001984  0  1.808135  0
I  I50  1  0.02593727  0.35768075  0.82208995  1  0  0.010538  0  1.471692  0  0  -0.00132  0  1.802279  0  0  -0.005735  0  1.794128  0  0  0.095182  0.001953  0  1.808076  0
I  I51  1  0.47406014  0.85768036  0.32209008  1  0  0.010552  0  1.471684  0  0  -0.001309  0  1.802277  0  0  -0.005718  0  1.794125  0  0  0.095221  0.001989  0  1.808095  0
O  O52  1  0.03724645  0.47037008  0.32582194  1  0  -0.592875  0  2.15271  0  0  -0.517693  0  2.419179  0  0  -0.550556  0  2.412047  0  0  -0.320181  -0.494709  0  2.423253  0
O  O53  1  0.46275792  0.97037083  0.82581955  1  0  -0.592898  0  2.152889  0  0  -0.517704  0  2.419367  0  0  -0.550565  0  2.412232  0  0  -0.32017  -0.494721  0  2.42345  0
O  O54  1  0.96276019  0.52962735  0.67418028  1  0  -0.592907  0  2.152779  0  0  -0.517735  0  2.41927  0  0  -0.550597  0  2.412134  0  0  -0.320166  -0.494752  0  2.423347  0
O  O55  1  0.53724006  0.02962824  0.17417907  1  0  -0.592901  0  2.152784  0  0  -0.517728  0  2.419294  0  0  -0.55059  0  2.412159  0  0  -0.32015  -0.494744  0  2.423375  0
O  O56  1  0.37008037  0.48679452  0.41092050  1  0  -0.602688  0  2.151598  0  0  -0.517198  0  2.424669  0  0  -0.550674  0  2.412616  0  0  -0.325951  -0.493927  0  2.432178  0
O  O57  1  0.12992600  0.98679358  0.91091884  1  0  -0.602627  0  2.151673  0  0  -0.517122  0  2.424759  0  0  -0.5506  0  2.412707  0  0  -0.325879  -0.493839  0  2.432257  0
O  O58  1  0.62992628  0.51320534  0.58908105  1  0  -0.602637  0  2.151634  0  0  -0.51713  0  2.424694  0  0  -0.550611  0  2.412645  0  0  -0.325896  -0.493858  0  2.432199  0
O  O59  1  0.87007198  0.01320710  0.08908092  1  0  -0.602637  0  2.151634  0  0  -0.517119  0  2.424692  0  0  -0.550599  0  2.412641  0  0  -0.32588  -0.493837  0  2.432188  0
