# generated using pymatgen
data_CuH8C12(NCl)2
_symmetry_space_group_name_H-M   'P 1'
_cell_length_a   6.02243635
_cell_length_b   6.95549500
_cell_length_c   12.98072213
_cell_angle_alpha   90.00924760
_cell_angle_beta   90.00101897
_cell_angle_gamma   90.00290841
_symmetry_Int_Tables_number   1
_chemical_formula_structural   CuH8C12(NCl)2
_chemical_formula_sum   'Cu2 H16 C24 N4 Cl4'
_cell_volume   543.74979762
_cell_formula_units_Z   2
loop_
 _symmetry_equiv_pos_site_id
 _symmetry_equiv_pos_as_xyz
  1  'x, y, z'
loop_
 _atom_site_type_symbol
 _atom_site_label
 _atom_site_symmetry_multiplicity
 _atom_site_fract_x
 _atom_site_fract_y
 _atom_site_fract_z
 _atom_site_occupancy
 _atom_site_hle17_ddec_charge
 _atom_site_hle17_ddec_spin_density
 _atom_site_hle17_ddec_sum_bond_order
 _atom_site_hle17_magmom
 _atom_site_hse06_10hf_ddec_charge
 _atom_site_hse06_10hf_ddec_spin_density
 _atom_site_hse06_10hf_ddec_sum_bond_order
 _atom_site_hse06_10hf_magmom
 _atom_site_hse06_ddec_charge
 _atom_site_hse06_ddec_spin_density
 _atom_site_hse06_ddec_sum_bond_order
 _atom_site_hse06_magmom
 _atom_site_pbe_cm5_charge
 _atom_site_pbe_ddec_charge
 _atom_site_pbe_ddec_spin_density
 _atom_site_pbe_ddec_sum_bond_order
 _atom_site_pbe_magmom
Cu  Cu0  1  0.00003391  0.50000353  0.99999070  1  0.697527  0.618452  1.944864  0.423  0.668194  0.7183  2.359401  0.534  0.752435  0.79842  2.286416  0.612  0.59034  0.619858  0.664496  2.406484  0.486
Cu  Cu1  1  0.50000505  0.49999452  0.50000489  1  0.697517  -0.618448  1.944846  -0.423  0.668292  -0.718299  2.359267  -0.534  0.752399  -0.798405  2.286431  -0.612  0.590281  0.619953  -0.664511  2.406393  -0.486
H  H2  1  0.32738233  0.35877972  0.10734841  1  0.096121  -0.000104  0.986243  0.001  0.101526  -0.000236  1.061208  0.0  0.104485  -0.000329  1.058009  0.0  0.097376  0.099058  -0.000173  1.064248  0.001
H  H3  1  0.67261688  0.35868163  0.89269193  1  0.096109  -0.000106  0.986745  0.001  0.101457  -0.000236  1.06177  0.0  0.104401  -0.000329  1.058582  0.0  0.097468  0.099001  -0.000174  1.064786  0.001
H  H4  1  0.82738812  0.64128113  0.39271362  1  0.095901  0.000105  0.98672  -0.001  0.101354  0.000237  1.061644  0.0  0.104294  0.000329  1.058464  0.0  0.09743  0.098911  0.000174  1.064668  -0.001
H  H5  1  0.17261128  0.64131038  0.60734265  1  0.095939  0.000104  0.986608  -0.001  0.101354  0.000236  1.061606  0.0  0.104297  0.000329  1.058424  0.0  0.097404  0.098899  0.000173  1.064623  -0.001
H  H6  1  0.67270581  0.64121363  0.89263133  1  0.096088  -0.000104  0.986138  0.001  0.101519  -0.000237  1.0611  0.0  0.104476  -0.000329  1.057899  0.0  0.097382  0.099046  -0.000174  1.064148  0.001
H  H7  1  0.32740651  0.64131173  0.10729783  1  0.096159  -0.000104  0.986427  0.001  0.101466  -0.000236  1.061502  0.0  0.104403  -0.000328  1.058323  0.0  0.097481  0.099021  -0.000173  1.064526  0.001
H  H8  1  0.17264855  0.35876830  0.60732775  1  0.096154  0.000106  0.98644  -0.001  0.101505  0.000237  1.061438  0.0  0.104469  0.000329  1.058232  0.0  0.097386  0.099039  0.000174  1.064464  -0.001
H  H9  1  0.82728425  0.35873329  0.39263632  1  0.096002  0.000106  0.986325  -0.001  0.101376  0.000237  1.061382  0.0  0.104344  0.000329  1.058169  0.0  0.097302  0.098908  0.000174  1.064423  -0.001
H  H10  1  0.61721682  0.18165303  0.19904264  1  0.101609  0.000235  0.976784  0.0  0.109026  0.00023  1.041935  0.0  0.112303  0.000172  1.040572  0.0  0.093386  0.106938  0.000287  1.042575  0.0
H  H11  1  0.38280155  0.18149851  0.80097056  1  0.101906  0.000236  0.976416  0.0  0.109125  0.000229  1.041723  0.0  0.112399  0.000172  1.040365  0.0  0.093382  0.107038  0.000286  1.042363  0.0
H  H12  1  0.11713242  0.81842180  0.30098400  1  0.102019  -0.000235  0.976843  0.0  0.109245  -0.00023  1.042095  0.0  0.112486  -0.000172  1.040769  0.0  0.093518  0.107163  -0.000287  1.042739  0.0
H  H13  1  0.88281959  0.81847231  0.69901621  1  0.101938  -0.000235  0.976966  0.0  0.109156  -0.000229  1.042177  0.0  0.112419  -0.000172  1.040836  0.0  0.093497  0.107072  -0.000286  1.042822  0.0
H  H14  1  0.38285306  0.81834751  0.80094712  1  0.101677  0.000235  0.977095  0.0  0.109131  0.000229  1.042103  0.0  0.112403  0.000172  1.040744  0.0  0.093473  0.107045  0.000286  1.042745  0.0
H  H15  1  0.61722017  0.81850059  0.19901688  1  0.101863  0.000234  0.97663  0.0  0.109073  0.000229  1.041894  0.0  0.112344  0.000172  1.040541  0.0  0.093427  0.10699  0.000287  1.042538  0.0
H  H16  1  0.88278635  0.18159456  0.69902655  1  0.101788  -0.000235  0.977136  0.0  0.109128  -0.000229  1.042295  0.0  0.112403  -0.000172  1.040932  0.0  0.093426  0.107041  -0.000286  1.042937  0.0
H  H17  1  0.11710416  0.18155842  0.30095737  1  0.10211  -0.000236  0.976374  0.0  0.109204  -0.000229  1.041745  0.0  0.112474  -0.000171  1.040396  0.0  0.093505  0.107122  -0.000286  1.042386  0.0
C  C18  1  0.15728020  0.10438183  0.05210372  1  0.18502  0.002639  3.729782  0.002  0.182791  0.003733  3.970052  0.003  0.189425  0.002154  3.991556  0.002  0.125326  0.178759  0.00522  3.955566  0.005
C  C19  1  0.84276483  0.10434073  0.94788144  1  0.185105  0.00263  3.729458  0.002  0.183189  0.003732  3.969305  0.003  0.189829  0.002153  3.990794  0.002  0.125475  0.179137  0.005219  3.95486  0.005
C  C20  1  0.65726582  0.89564207  0.44791395  1  0.18504  -0.002639  3.729977  -0.002  0.183098  -0.00373  3.969686  -0.003  0.189726  -0.002157  3.991185  -0.002  0.125376  0.179071  -0.005213  3.955227  -0.005
C  C21  1  0.34274090  0.89563789  0.55211197  1  0.184965  -0.002641  3.729672  -0.002  0.183063  -0.003729  3.9697  -0.003  0.189711  -0.002156  3.991178  -0.002  0.125483  0.179025  -0.005216  3.955224  -0.005
C  C22  1  0.84277141  0.89565609  0.94787448  1  0.184848  0.00266  3.729749  0.002  0.182771  0.003734  3.96974  0.003  0.189403  0.002156  3.99123  0.002  0.125527  0.178725  0.005222  3.955284  0.005
C  C23  1  0.15724527  0.89566556  0.05212294  1  0.185051  0.002657  3.72942  0.002  0.183129  0.003733  3.969348  0.003  0.189765  0.002154  3.990839  0.002  0.125484  0.179072  0.005221  3.954907  0.005
C  C24  1  0.34272103  0.10433116  0.55212125  1  0.185477  -0.002646  3.728535  -0.002  0.18315  -0.003734  3.968928  -0.003  0.189796  -0.002156  3.990415  -0.002  0.125553  0.179107  -0.005223  3.954436  -0.005
C  C25  1  0.65725094  0.10431808  0.44788394  1  0.184745  -0.002649  3.729309  -0.002  0.182949  -0.00373  3.968897  -0.003  0.189579  -0.002155  3.990404  -0.002  0.125345  0.178887  -0.005219  3.954463  -0.005
C  C26  1  0.32658037  0.20241117  0.10688350  1  -0.134369  0.001384  3.725747  0.002  -0.157054  0.000777  3.981974  0.002  -0.163305  0.000641  4.004453  0.001  -0.084411  -0.152857  0.001222  3.967212  0.002
C  C27  1  0.67338241  0.20238802  0.89313452  1  -0.134388  0.001398  3.7257  0.002  -0.157144  0.000779  3.981819  0.002  -0.163391  0.000641  4.004302  0.001  -0.084506  -0.152941  0.001224  3.96705  0.002
C  C28  1  0.82659106  0.79760362  0.39314232  1  -0.134132  -0.001364  3.726877  -0.002  -0.156926  -0.000772  3.982922  -0.002  -0.16315  -0.000634  4.005366  -0.001  -0.084463  -0.152751  -0.001219  3.968182  -0.002
C  C29  1  0.17338167  0.79762128  0.60690699  1  -0.134199  -0.001366  3.726486  -0.002  -0.157038  -0.000776  3.982647  -0.002  -0.163275  -0.000638  4.005098  -0.001  -0.084608  -0.152843  -0.001224  3.967888  -0.002
C  C30  1  0.67343803  0.79759943  0.89309239  1  -0.134204  0.001355  3.725829  0.002  -0.156994  0.000776  3.981891  0.002  -0.163258  0.00064  4.004416  0.001  -0.084512  -0.152781  0.001221  3.967108  0.002
C  C31  1  0.32662769  0.79762977  0.10686217  1  -0.1345  0.001351  3.725677  0.002  -0.157204  0.000776  3.981775  0.002  -0.163451  0.000639  4.004267  0.001  -0.084564  -0.153016  0.001221  3.967024  0.002
C  C32  1  0.17335262  0.20241993  0.60688133  1  -0.13469  -0.00138  3.724886  -0.002  -0.157247  -0.00078  3.981028  -0.002  -0.163501  -0.000643  4.003493  -0.001  -0.084538  -0.153057  -0.001223  3.966293  -0.002
C  C33  1  0.82660352  0.20238070  0.39313283  1  -0.13403  -0.001393  3.725473  -0.002  -0.156881  -0.000776  3.981492  -0.002  -0.163134  -0.000641  4.003973  -0.001  -0.084343  -0.152675  -0.001219  3.966736  -0.002
C  C34  1  0.48764545  0.10217501  0.15882075  1  -0.025139  -0.002214  3.693329  -0.002  -0.039036  -0.000988  3.937086  -0.001  -0.038981  -0.000987  3.956123  -0.001  -0.07605  -0.038794  -0.000989  3.923728  -0.001
C  C35  1  0.51237623  0.10208921  0.84117656  1  -0.025382  -0.002225  3.693017  -0.002  -0.039171  -0.000988  3.936859  -0.001  -0.039122  -0.000985  3.955893  -0.001  -0.076191  -0.038933  -0.000988  3.923506  -0.001
C  C36  1  0.98760161  0.89779857  0.34121160  1  -0.025327  0.002187  3.69493  0.002  -0.039105  0.000982  3.93863  0.001  -0.03903  0.000979  3.957676  0.001  -0.076139  -0.038861  0.000985  3.925287  0.001
C  C37  1  0.01237199  0.89783335  0.65882297  1  -0.025336  0.002192  3.694421  0.002  -0.039025  0.000983  3.938237  0.001  -0.038971  0.000982  3.957268  0.001  -0.076138  -0.038787  0.000985  3.924892  0.001
C  C38  1  0.51239453  0.89779246  0.84114974  1  -0.025374  -0.00219  3.694093  -0.002  -0.039157  -0.000986  3.937678  -0.001  -0.039105  -0.000985  3.956708  -0.001  -0.076225  -0.038918  -0.000988  3.924322  -0.001
C  C39  1  0.48765545  0.89789839  0.15881551  1  -0.025365  -0.002183  3.693546  -0.002  -0.03903  -0.000986  3.93734  -0.001  -0.038979  -0.000984  3.956364  -0.001  -0.076221  -0.038793  -0.000987  3.923999  -0.001
C  C40  1  0.01233875  0.10214303  0.65884209  1  -0.025232  0.002213  3.692986  0.002  -0.039076  0.000993  3.936693  0.001  -0.039013  0.000992  3.955717  0.001  -0.0761  -0.038844  0.000992  3.923346  0.001
C  C41  1  0.98759660  0.10208093  0.34117371  1  -0.025917  0.002229  3.693478  0.002  -0.039459  0.000986  3.937298  0.001  -0.039412  0.000988  3.956341  0.001  -0.076367  -0.03922  0.000988  3.92394  0.001
N  N42  1  0.00001088  0.20264410  0.00000770  1  -0.305799  0.076825  3.271703  0.094  -0.255695  0.061041  3.543325  0.079  -0.281381  0.052902  3.56394  0.072  -0.309011  -0.240736  0.065738  3.530876  0.082
N  N43  1  0.49996810  0.79737379  0.50000962  1  -0.305788  -0.076755  3.272411  -0.093  -0.255795  -0.061012  3.543963  -0.079  -0.281463  -0.052868  3.564585  -0.071  -0.308888  -0.240846  -0.065708  3.531527  -0.082
N  N44  1  0.00001522  0.79736555  0.99998388  1  -0.3058  0.076757  3.271721  0.093  -0.255654  0.061022  3.543243  0.079  -0.28133  0.052886  3.56385  0.071  -0.308982  -0.240695  0.065718  3.530803  0.082
N  N45  1  0.49995400  0.20266845  0.50000786  1  -0.306143  -0.076806  3.270642  -0.093  -0.256067  -0.06104  3.542328  -0.079  -0.28173  -0.052908  3.562926  -0.072  -0.309123  -0.241101  -0.065726  3.529896  -0.082
Cl  Cl46  1  0.15668473  0.49993921  0.84451455  1  -0.489382  0.126429  0.949857  0.143  -0.473144  0.0849  1.227379  0.101  -0.502901  0.07088  1.208823  0.088  -0.297407  -0.455611  0.091405  1.240622  0.106
Cl  Cl47  1  0.84336854  0.50006277  0.15546750  1  -0.489403  0.126437  0.949671  0.143  -0.473128  0.084916  1.227041  0.101  -0.502888  0.070893  1.208493  0.088  -0.297454  -0.45562  0.091416  1.240342  0.106
Cl  Cl48  1  0.65666597  0.49998863  0.65548678  1  -0.489368  -0.126434  0.949764  -0.143  -0.473098  -0.08491  1.227157  -0.101  -0.502827  -0.070891  1.208643  -0.088  -0.29739  -0.455586  -0.091412  1.240452  -0.106
Cl  Cl49  1  0.34333085  0.49999322  0.34452223  1  -0.489411  -0.126464  0.949659  -0.143  -0.473144  -0.08493  1.226993  -0.101  -0.502873  -0.070907  1.208474  -0.088  -0.297403  -0.455623  -0.09143  1.240289  -0.106
