# generated using pymatgen
data_Cd2H18RuC36(NO2)6
_symmetry_space_group_name_H-M   'P 1'
_cell_length_a   12.67259527
_cell_length_b   12.67159336
_cell_length_c   22.82987921
_cell_angle_alpha   99.96791580
_cell_angle_beta   104.25461694
_cell_angle_gamma   104.15777185
_symmetry_Int_Tables_number   1
_chemical_formula_structural   Cd2H18RuC36(NO2)6
_chemical_formula_sum   'Cd4 H36 Ru2 C72 N12 O24'
_cell_volume   3337.39384799
_cell_formula_units_Z   2
loop_
 _symmetry_equiv_pos_site_id
 _symmetry_equiv_pos_as_xyz
  1  'x, y, z'
loop_
 _atom_site_type_symbol
 _atom_site_label
 _atom_site_symmetry_multiplicity
 _atom_site_fract_x
 _atom_site_fract_y
 _atom_site_fract_z
 _atom_site_occupancy
 _atom_site_pbe_bader_charge
 _atom_site_pbe_bader_spin_density
 _atom_site_pbe_cm5_charge
 _atom_site_pbe_ddec_charge
 _atom_site_pbe_ddec_spin_density
 _atom_site_pbe_ddec_sum_bond_order
 _atom_site_pbe_magmom
Cd  Cd0  1  0.55875225  0.14081705  0.54401823  1  1.342322  0  0.774033  1.048373  0  2.082475  0
Cd  Cd1  1  0.59674555  0.51473186  0.95601993  1  1.342866  0  0.773963  1.048319  0  2.081009  0
Cd  Cd2  1  0.44124671  0.85921615  0.45598984  1  1.342206  0  0.773991  1.04831  0  2.082606  0
Cd  Cd3  1  0.40324548  0.48527822  0.04397095  1  1.342764  0  0.774002  1.048469  0  2.080699  0
H  H4  1  0.92701626  0.42808300  0.27312252  1  0.105311  0  0.120593  0.091722  0  1.004371  0
H  H5  1  0.15497948  0.15383159  0.22700533  1  0.078361  0  0.121734  0.092883  0  1.003656  0
H  H6  1  0.07298943  0.57192729  0.72688469  1  0.105452  0  0.120554  0.091619  0  1.004358  0
H  H7  1  0.84501685  0.84618068  0.77299589  1  0.078168  0  0.121697  0.0928  0  1.003644  0
H  H8  1  0.07108681  0.61413433  0.33463780  1  0.113381  0  0.118998  0.132739  0  0.980875  0
H  H9  1  0.27953757  0.23644154  0.16551358  1  0.144958  0  0.119403  0.134323  0  0.979943  0
H  H10  1  0.92891737  0.38587781  0.66537042  1  0.113614  0  0.118917  0.132598  0  0.980881  0
H  H11  1  0.72046251  0.76355620  0.83448968  1  0.144935  0  0.11942  0.134309  0  0.979964  0
H  H12  1  0.29408263  0.43609953  0.41324122  1  0.143867  0  0.123815  0.143103  0  0.983435  0
H  H13  1  0.02306248  0.38101193  0.08698218  1  0.127807  0  0.123125  0.141933  0  0.984234  0
H  H14  1  0.70591732  0.56389477  0.58676778  1  0.143878  0  0.123856  0.143144  0  0.983469  0
H  H15  1  0.97694461  0.61899341  0.91301718  1  0.127906  0  0.123125  0.141925  0  0.98419  0
H  H16  1  0.30085190  0.27177469  0.42459199  1  0.131423  0  0.124931  0.145881  0  0.977298  0
H  H17  1  0.84737296  0.37648476  0.07560099  1  0.134896  0  0.125379  0.146488  0  0.976503  0
H  H18  1  0.69913971  0.72822319  0.57541289  1  0.132057  0  0.124925  0.145892  0  0.977229  0
H  H19  1  0.15262664  0.62351231  0.92439676  1  0.134889  0  0.125383  0.146494  0  0.976563  0
H  H20  1  0.15088322  0.91900853  0.34103104  1  0.124637  0  0.124193  0.144689  0  0.971732  0
H  H21  1  0.57805011  0.30984855  0.15903559  1  0.134661  0  0.124123  0.143722  0  0.972508  0
H  H22  1  0.84910837  0.08099206  0.65896711  1  0.124858  0  0.124174  0.144636  0  0.971729  0
H  H23  1  0.42193318  0.69013166  0.84094836  1  0.134511  0  0.124076  0.143659  0  0.972645  0
H  H24  1  0.98467817  0.96205660  0.27295716  1  0.090291  0  0.120746  0.09353  0  0.997412  0
H  H25  1  0.68916259  0.21185387  0.22713548  1  0.096117  0  0.120914  0.093516  0  0.997842  0
H  H26  1  0.01531568  0.03794728  0.72704241  1  0.090359  0  0.120731  0.093289  0  0.997221  0
H  H27  1  0.31082561  0.78813603  0.77285925  1  0.095915  0  0.120933  0.093734  0  0.997851  0
H  H28  1  0.89043562  0.28142924  0.37279954  1  0.09758  0  0.120393  0.091823  0  0.998751  0
H  H29  1  0.90867245  0.01776047  0.12734791  1  0.101979  0  0.120069  0.092366  0  0.997776  0
H  H30  1  0.10957367  0.71856699  0.62720453  1  0.097484  0  0.120381  0.091826  0  0.998795  0
H  H31  1  0.09133648  0.98223644  0.87265496  1  0.102005  0  0.120047  0.092317  0  0.997765  0
H  H32  1  0.76625957  0.21164537  0.43773698  1  0.145874  0  0.122284  0.140536  0  0.977367  0
H  H33  1  0.77402781  0.82867988  0.06238613  1  0.148493  0  0.122069  0.14055  0  0.976709  0
H  H34  1  0.23375556  0.78835017  0.56226705  1  0.14576  0  0.122326  0.140617  0  0.977322  0
H  H35  1  0.22598465  0.17132671  0.93761860  1  0.148449  0  0.122039  0.140492  0  0.976645  0
H  H36  1  0.61922402  0.90001811  0.29826427  1  0.132742  0  0.122348  0.141387  0  0.982977  0
H  H37  1  0.60162118  0.82115282  0.20174782  1  0.129814  0  0.122604  0.141031  0  0.984168  0
H  H38  1  0.38077869  0.09998343  0.70173743  1  0.132751  0  0.122333  0.141356  0  0.982984  0
H  H39  1  0.39837752  0.17884816  0.79824652  1  0.12933  0  0.122575  0.140993  0  0.984257  0
Ru  Ru40  1  0.92939832  0.17944553  0.25008599  1  1.216595  0  1.00323  0.431695  0  4.323138  0
Ru  Ru41  1  0.07060189  0.82055565  0.74991154  1  1.216609  0  1.003196  0.431998  0  4.323163  0
C  C42  1  0.00868705  0.43281828  0.30486811  1  0.398309  0  0.037115  0.05788  0  3.959066  0
C  C43  1  0.12795343  0.20377742  0.19526790  1  0.431933  0  0.036985  0.058158  0  3.955458  0
C  C44  1  0.99131562  0.56718714  0.69513692  1  0.398158  0  0.037201  0.058138  0  3.958752  0
C  C45  1  0.87204509  0.79622845  0.80473131  1  0.432376  0  0.037037  0.05823  0  3.955287  0
C  C46  1  0.08794673  0.53508760  0.33879293  1  -0.009136  0  -0.069291  -0.12449  0  3.934556  0
C  C47  1  0.19635830  0.24919072  0.16137788  1  -0.04694  0  -0.069618  -0.128301  0  3.934832  0
C  C48  1  0.91205488  0.46491860  0.66121608  1  -0.009279  0  -0.069218  -0.124366  0  3.934639  0
C  C49  1  0.80364512  0.75081127  0.83862537  1  -0.046929  0  -0.069581  -0.128182  0  3.934814  0
C  C50  1  0.19309389  0.53684280  0.37761228  1  0.06424  0  0.010543  0.041736  0  3.921264  0
C  C51  1  0.15935943  0.31559472  0.12257880  1  0.048347  0  0.009849  0.043534  0  3.917451  0
C  C52  1  0.80690901  0.46315970  0.62239549  1  0.063733  0  0.010522  0.041713  0  3.921457  0
C  C53  1  0.84064627  0.68441231  0.87742841  1  0.048297  0  0.009756  0.043378  0  3.917482  0
C  C54  1  0.21218925  0.43462444  0.38298414  1  -0.001328  0  -0.063142  -0.153877  0  3.880957  0
C  C55  1  0.05179591  0.32936547  0.11723998  1  -0.029821  0  -0.060985  -0.151235  0  3.878628  0
C  C56  1  0.78781504  0.56537723  0.61702418  1  -0.001764  0  -0.063265  -0.154044  0  3.88108  0
C  C57  1  0.94820450  0.67063786  0.88275943  1  -0.029972  0  -0.060985  -0.151194  0  3.878639  0
C  C58  1  0.12874387  0.33392896  0.34840381  1  0.417926  0  0.108573  0.143584  0  3.983806  0
C  C59  1  0.98565142  0.28049546  0.15180626  1  0.443068  0  0.109063  0.144029  0  3.981866  0
C  C60  1  0.87125344  0.66607576  0.65160258  1  0.418905  0  0.108672  0.143703  0  3.983636  0
C  C61  1  0.01434827  0.71951099  0.84819327  1  0.443239  0  0.109086  0.144075  0  3.981818  0
C  C62  1  0.14025716  0.22211923  0.35009609  1  0.392419  0  0.107506  0.141475  0  3.990399  0
C  C63  1  0.87218553  0.29040577  0.15008831  1  0.406523  0  0.106046  0.137222  0  3.992814  0
C  C64  1  0.85973280  0.77787946  0.64990715  1  0.392715  0  0.107468  0.141599  0  3.990655  0
C  C65  1  0.12781628  0.70960173  0.84991418  1  0.406666  0  0.106042  0.1373  0  3.992702  0
C  C66  1  0.23205322  0.20299501  0.39038164  1  0.02518  0  -0.063132  -0.153506  0  3.886781  0
C  C67  1  0.81274837  0.34192113  0.10979970  1  -0.003878  0  -0.062559  -0.153239  0  3.887367  0
C  C68  1  0.76793578  0.79700201  0.60962315  1  0.024104  0  -0.063155  -0.153475  0  3.88662  0
C  C69  1  0.18725014  0.65807323  0.89019695  1  -0.003766  0  -0.062587  -0.153351  0  3.887318  0
C  C70  1  0.23744592  0.09366103  0.38687892  1  -0.009132  0  0.01092  0.038583  0  3.913963  0
C  C71  1  0.70688354  0.35074845  0.11324303  1  0.031938  0  0.010856  0.038559  0  3.914598  0
C  C72  1  0.76254220  0.90633512  0.61312499  1  -0.008655  0  0.010945  0.038535  0  3.913977  0
C  C73  1  0.29311337  0.64924610  0.88674866  1  0.031886  0  0.010838  0.038737  0  3.914486  0
C  C74  1  0.14756202  0.00489975  0.34418051  1  0.027942  0  -0.066578  -0.125928  0  3.929163  0
C  C75  1  0.66083421  0.30350543  0.15593269  1  0.005191  0  -0.065755  -0.121562  0  3.927223  0
C  C76  1  0.85242659  0.99509947  0.65582053  1  0.027744  0  -0.066545  -0.125786  0  3.928801  0
C  C77  1  0.33915528  0.69648198  0.84405663  1  0.005857  0  -0.065745  -0.121645  0  3.927556  0
C  C78  1  0.05669099  0.02843747  0.30658673  1  0.413763  0  0.038383  0.059107  0  3.961768  0
C  C79  1  0.72198296  0.25028485  0.19355111  1  0.406353  0  0.035889  0.053551  0  3.963155  0
C  C80  1  0.94329961  0.97156176  0.69341463  1  0.413538  0  0.038461  0.059815  0  3.961445  0
C  C81  1  0.27800559  0.74970588  0.80644230  1  0.406195  0  0.036009  0.053452  0  3.963369  0
C  C82  1  0.28575500  0.64662956  0.41021916  1  1.59286  0  0.179656  0.532355  0  4.300517  0
C  C83  1  0.23662146  0.37550773  0.08992208  1  1.603944  0  0.180825  0.532858  0  4.297399  0
C  C84  1  0.71424198  0.35337608  0.58979109  1  1.593145  0  0.179461  0.532097  0  4.300839  0
C  C85  1  0.76338283  0.62448537  0.91008203  1  1.603502  0  0.181019  0.533057  0  4.297182  0
C  C86  1  0.33892419  0.07059365  0.42763955  1  1.658753  0  0.205964  0.576245  0  4.243702  0
C  C87  1  0.64294670  0.41128909  0.07238191  1  1.638433  0  0.205915  0.574393  0  4.243917  0
C  C88  1  0.66106650  0.92939868  0.57236356  1  1.658683  0  0.205961  0.576062  0  4.24396  0
C  C89  1  0.35704670  0.58869993  0.92760208  1  1.638122  0  0.205908  0.574246  0  4.24394  0
C  C90  1  0.82895104  0.19783420  0.35769258  1  0.424447  0  0.037407  0.060501  0  3.959598  0
C  C91  1  0.84023452  0.97137707  0.14248417  1  0.38042  0  0.037516  0.058722  0  3.962787  0
C  C92  1  0.17106155  0.80215955  0.64230639  1  0.424479  0  0.037356  0.060525  0  3.959783  0
C  C93  1  0.15977122  0.02862403  0.85751553  1  0.379933  0  0.037641  0.058887  0  3.962455  0
C  C94  1  0.76087765  0.15932743  0.39325335  1  -0.047627  0  -0.067996  -0.123267  0  3.93041  0
C  C95  1  0.76617785  0.86774740  0.10687976  1  0.011065  0  -0.067599  -0.12163  0  3.932045  0
C  C96  1  0.23913364  0.84067002  0.60674685  1  -0.047582  0  -0.067881  -0.123262  0  3.930398  0
C  C97  1  0.23383693  0.13225503  0.89312141  1  0.012107  0  -0.067663  -0.121743  0  3.931259  0
C  C98  1  0.68445250  0.05042530  0.37201369  1  0.028635  0  0.008534  0.033315  0  3.910514  0
C  C99  1  0.67837333  0.81260371  0.12804484  1  0.065464  0  0.009092  0.032515  0  3.913098  0
C  C100  1  0.31555664  0.94957346  0.62798939  1  0.028441  0  0.008451  0.033372  0  3.910502  0
C  C101  1  0.32163865  0.18740016  0.87195017  1  0.064883  0  0.009232  0.032795  0  3.912667  0
C  C102  1  0.67801556  0.98504174  0.31473647  1  -0.005363  0  -0.064058  -0.153311  0  3.890964  0
C  C103  1  0.67018793  0.86348865  0.18530088  1  -0.029535  0  -0.064268  -0.152674  0  3.890599  0
C  C104  1  0.32198865  0.01495501  0.68526588  1  -0.00531  0  -0.064012  -0.153275  0  3.890881  0
C  C105  1  0.32981586  0.13651180  0.81469518  1  -0.028864  0  -0.06421  -0.152651  0  3.890807  0
C  C106  1  0.74754089  0.02846155  0.28030614  1  0.420039  0  0.106775  0.140137  0  3.990417  0
C  C107  1  0.74802992  0.96744455  0.21977646  1  0.419429  0  0.106121  0.139671  0  3.986819  0
C  C108  1  0.25245790  0.97153783  0.71969415  1  0.419627  0  0.106817  0.140153  0  3.990394  0
C  C109  1  0.25196766  0.03255934  0.78022264  1  0.419783  0  0.106007  0.139601  0  3.986881  0
C  C110  1  0.61205757  0.00593885  0.41137535  1  1.646057  0  0.204149  0.582092  0  4.231959  0
C  C111  1  0.59462865  0.70076914  0.08862614  1  1.624954  0  0.202854  0.579099  0  4.238591  0
C  C112  1  0.38794433  0.99406825  0.58862891  1  1.645657  0  0.2041  0.581956  0  4.23207  0
C  C113  1  0.40538845  0.29923184  0.91136474  1  1.624342  0  0.202506  0.578419  0  4.239676  0
N  N114  1  0.02843269  0.33354913  0.30827669  1  -1.192359  0  -0.352965  -0.204996  0  3.67466  0
N  N115  1  0.02533218  0.22022903  0.19190889  1  -1.171544  0  -0.354095  -0.205065  0  3.671872  0
N  N116  1  0.97156786  0.66645525  0.69172536  1  -1.192525  0  -0.353034  -0.205093  0  3.674645  0
N  N117  1  0.97466742  0.77977781  0.80808887  1  -1.171892  0  -0.354086  -0.20512  0  3.671774  0
N  N118  1  0.05289860  0.13469216  0.30820622  1  -1.17845  0  -0.356377  -0.20943  0  3.688251  0
N  N119  1  0.82664106  0.24492677  0.19197165  1  -1.183972  0  -0.354388  -0.203625  0  3.685477  0
N  N120  1  0.94709727  0.86530816  0.69179200  1  -1.178535  0  -0.356339  -0.210207  0  3.689201  0
N  N121  1  0.17335393  0.75507269  0.80802570  1  -1.184103  0  -0.354499  -0.203871  0  3.685624  0
N  N122  1  0.82376651  0.13442399  0.30228941  1  -1.183444  0  -0.356281  -0.208145  0  3.689264  0
N  N123  1  0.83211680  0.02164158  0.19784363  1  -1.178072  0  -0.35595  -0.206979  0  3.688616  0
N  N124  1  0.17623457  0.86557306  0.69770645  1  -1.183222  0  -0.356296  -0.208327  0  3.689616  0
N  N125  1  0.16788236  0.97835831  0.80215368  1  -1.178342  0  -0.355973  -0.206952  0  3.688431  0
O  O126  1  0.25964803  0.73586942  0.40323993  1  -1.141501  0  -0.338203  -0.554708  0  2.1695  0
O  O127  1  0.33271788  0.35618768  0.09682472  1  -1.143333  0  -0.339823  -0.556556  0  2.169011  0
O  O128  1  0.74035795  0.26414058  0.59676672  1  -1.141755  0  -0.338079  -0.554535  0  2.169639  0
O  O129  1  0.66728644  0.64380716  0.90318193  1  -1.143248  0  -0.339878  -0.556633  0  2.169187  0
O  O130  1  0.38248583  0.64398257  0.44037171  1  -1.149145  0  -0.336238  -0.548503  0  2.078642  0
O  O131  1  0.20394492  0.44218265  0.05978548  1  -1.148264  0  -0.337066  -0.549437  0  2.077717  0
O  O132  1  0.61750788  0.35601993  0.55963779  1  -1.149239  0  -0.336107  -0.548352  0  2.078758  0
O  O133  1  0.79605010  0.55779165  0.94020598  1  -1.147962  0  -0.337239  -0.549544  0  2.077666  0
O  O134  1  0.40062263  0.15000446  0.47492288  1  -1.149043  0  -0.323014  -0.550918  0  2.259527  0
O  O135  1  0.67494156  0.42547332  0.02503509  1  -1.14132  0  -0.3234  -0.550681  0  2.258079  0
O  O136  1  0.59937300  0.84999433  0.52507678  1  -1.149009  0  -0.323048  -0.550842  0  2.259547  0
O  O137  1  0.32505167  0.57452506  0.97494958  1  -1.1411  0  -0.323456  -0.550732  0  2.258036  0
O  O138  1  0.35005553  0.97549907  0.40919975  1  -1.159373  0  -0.319776  -0.553577  0  2.301221  0
O  O139  1  0.56635972  0.44098599  0.09081810  1  -1.155298  0  -0.319314  -0.552516  0  2.301967  0
O  O140  1  0.64994391  0.02449814  0.59080540  1  -1.159229  0  -0.319809  -0.553588  0  2.301116  0
O  O141  1  0.43361870  0.55897825  0.90916013  1  -1.155213  0  -0.319243  -0.552302  0  2.301733  0
O  O142  1  0.55207430  0.90351077  0.39196234  1  -1.146446  0  -0.3252  -0.545397  0  2.18945  0
O  O143  1  0.51154464  0.66015345  0.10796421  1  -1.137116  0  -0.323482  -0.542604  0  2.19094  0
O  O144  1  0.44793285  0.09649775  0.60804045  1  -1.14629  0  -0.325255  -0.545421  0  2.18944  0
O  O145  1  0.48847461  0.33984827  0.89202798  1  -1.136565  0  -0.323304  -0.542267  0  2.191145  0
O  O146  1  0.62036280  0.07646435  0.46004413  1  -1.186868  0  -0.326909  -0.586892  0  2.311918  0
O  O147  1  0.61669172  0.66044237  0.04001798  1  -1.18328  0  -0.32799  -0.586962  0  2.314735  0
O  O148  1  0.37963216  0.92354399  0.53995908  1  -1.18662  0  -0.326799  -0.58676  0  2.312067  0
O  O149  1  0.38332410  0.33955873  0.95997247  1  -1.183066  0  -0.327913  -0.586723  0  2.315119  0
