# generated using pymatgen
data_CdH11C8NCl2O
_symmetry_space_group_name_H-M   'P 1'
_cell_length_a   6.45434495
_cell_length_b   11.31834256
_cell_length_c   15.07978599
_cell_angle_alpha   90.00004585
_cell_angle_beta   89.99952902
_cell_angle_gamma   105.71274830
_symmetry_Int_Tables_number   1
_chemical_formula_structural   CdH11C8NCl2O
_chemical_formula_sum   'Cd4 H44 C32 N4 Cl8 O4'
_cell_volume   1060.45015522
_cell_formula_units_Z   4
loop_
 _symmetry_equiv_pos_site_id
 _symmetry_equiv_pos_as_xyz
  1  'x, y, z'
loop_
 _atom_site_type_symbol
 _atom_site_label
 _atom_site_symmetry_multiplicity
 _atom_site_fract_x
 _atom_site_fract_y
 _atom_site_fract_z
 _atom_site_occupancy
 _atom_site_hle17_bader_spin_density
 _atom_site_hle17_ddec_charge
 _atom_site_hle17_ddec_spin_density
 _atom_site_hle17_ddec_sum_bond_order
 _atom_site_hle17_magmom
 _atom_site_hse06_10hf_bader_spin_density
 _atom_site_hse06_10hf_ddec_charge
 _atom_site_hse06_10hf_ddec_spin_density
 _atom_site_hse06_10hf_ddec_sum_bond_order
 _atom_site_hse06_10hf_magmom
 _atom_site_hse06_bader_spin_density
 _atom_site_hse06_ddec_charge
 _atom_site_hse06_ddec_spin_density
 _atom_site_hse06_ddec_sum_bond_order
 _atom_site_hse06_magmom
 _atom_site_pbe_bader_spin_density
 _atom_site_pbe_cm5_charge
 _atom_site_pbe_ddec_charge
 _atom_site_pbe_ddec_spin_density
 _atom_site_pbe_ddec_sum_bond_order
 _atom_site_pbe_magmom
Cd  Cd0  1  0.78120326  0.06295343  0.54315622  1  0  0.971893  0  1.92297  0  0  0.813121  0  2.369174  0  0  0.860211  0  2.328881  0  0  0.597179  0.780514  0  2.396485  0
Cd  Cd1  1  0.21879872  0.43704592  0.04315553  1  0  0.971924  0  1.922959  0  0  0.81315  0  2.369161  0  0  0.860241  0  2.328868  0  0  0.597193  0.780544  0  2.396478  0
Cd  Cd2  1  0.21879969  0.93704598  0.45684523  1  0  0.97192  0  1.922979  0  0  0.813143  0  2.369163  0  0  0.860233  0  2.328868  0  0  0.597197  0.780537  0  2.396475  0
Cd  Cd3  1  0.78120268  0.56295350  0.95684659  1  0  0.97191  0  1.922927  0  0  0.813129  0  2.369111  0  0  0.860219  0  2.32882  0  0  0.597206  0.780522  0  2.396427  0
H  H4  1  0.73141564  0.26882260  0.42347098  1  0  0.074593  0  0.964503  0  0  0.082143  0  1.033192  0  0  0.084373  0  1.03096  0  0  0.1037  0.080335  0  1.035021  0
H  H5  1  0.26858333  0.23117599  0.92347026  1  0  0.074585  0  0.964511  0  0  0.082135  0  1.0332  0  0  0.084363  0  1.030969  0  0  0.103693  0.080326  0  1.035028  0
H  H6  1  0.26859221  0.73117407  0.57652516  1  0  0.074668  0  0.964426  0  0  0.082123  0  1.033205  0  0  0.084352  0  1.030972  0  0  0.103712  0.080318  0  1.035027  0
H  H7  1  0.73142050  0.76882527  0.07653119  1  0  0.074577  0  0.964535  0  0  0.082156  0  1.033199  0  0  0.084386  0  1.030965  0  0  0.103703  0.080347  0  1.035027  0
H  H8  1  0.72064085  0.48818862  0.41845972  1  0  0.104068  0  0.936275  0  0  0.118779  0  0.986408  0  0  0.121354  0  0.986802  0  0  0.108596  0.116856  0  0.986398  0
H  H9  1  0.27935822  0.01180998  0.91845883  1  0  0.104047  0  0.936242  0  0  0.118747  0  0.986399  0  0  0.121322  0  0.986793  0  0  0.108597  0.116824  0  0.986388  0
H  H10  1  0.27936148  0.51180621  0.58153311  1  0  0.104025  0  0.936336  0  0  0.118682  0  0.98655  0  0  0.121259  0  0.986941  0  0  0.108581  0.116761  0  0.986537  0
H  H11  1  0.72064406  0.98819128  0.08154195  1  0  0.104062  0  0.936244  0  0  0.118784  0  0.986363  0  0  0.121361  0  0.986753  0  0  0.108618  0.116862  0  0.986353  0
H  H12  1  0.73355751  0.60243499  0.56245050  1  0  0.096806  0  0.961583  0  0  0.106166  0  1.025299  0  0  0.108907  0  1.023235  0  0  0.096917  0.104303  0  1.026435  0
H  H13  1  0.26643843  0.89756436  0.06245028  1  0  0.096873  0  0.961531  0  0  0.106195  0  1.025297  0  0  0.108935  0  1.02323  0  0  0.096944  0.104332  0  1.02643  0
H  H14  1  0.26643881  0.39756351  0.43753968  1  0  0.096844  0  0.961508  0  0  0.106215  0  1.025218  0  0  0.108961  0  1.023158  0  0  0.096901  0.104352  0  1.026353  0
H  H15  1  0.73355789  0.10243413  0.93755051  1  0  0.096812  0  0.961569  0  0  0.10613  0  1.025345  0  0  0.108871  0  1.023282  0  0  0.096906  0.104268  0  1.026479  0
H  H16  1  0.75290279  0.48964555  0.70484635  1  0  0.118357  0  0.959482  0  0  0.127976  0  1.020742  0  0  0.131141  0  1.019956  0  0  0.105457  0.125532  0  1.021646  0
H  H17  1  0.24709240  0.01035255  0.20484797  1  0  0.118336  0  0.959468  0  0  0.127967  0  1.020719  0  0  0.131127  0  1.019938  0  0  0.105453  0.125525  0  1.021622  0
H  H18  1  0.24708597  0.51035661  0.29514647  1  0  0.118381  0  0.959365  0  0  0.12793  0  1.020723  0  0  0.131089  0  1.019948  0  0  0.105421  0.125486  0  1.021627  0
H  H19  1  0.75290237  0.98964594  0.79515282  1  0  0.118346  0  0.95947  0  0  0.127976  0  1.020724  0  0  0.131137  0  1.019942  0  0  0.10546  0.125533  0  1.021627  0
H  H20  1  0.68279999  0.15683126  0.71487106  1  0  0.083917  0  0.963261  0  0  0.097365  0  1.032217  0  0  0.098882  0  1.031046  0  0  0.085478  0.096118  0  1.033311  0
H  H21  1  0.31720052  0.34316866  0.21486996  1  0  0.083911  0  0.963306  0  0  0.097347  0  1.032249  0  0  0.09887  0  1.03107  0  0  0.085476  0.096102  0  1.033342  0
H  H22  1  0.31719981  0.84317458  0.28512708  1  0  0.083847  0  0.963276  0  0  0.09733  0  1.032226  0  0  0.098835  0  1.031065  0  0  0.085463  0.096084  0  1.03332  0
H  H23  1  0.68279933  0.65683075  0.78513215  1  0  0.083914  0  0.963303  0  0  0.097358  0  1.032259  0  0  0.098881  0  1.03108  0  0  0.085468  0.096113  0  1.033354  0
H  H24  1  0.68974486  0.29123517  0.77650459  1  0  0.095939  0  0.934083  0  0  0.110102  0  0.999109  0  0  0.111766  0  0.998257  0  0  0.092316  0.108764  0  1.00004  0
H  H25  1  0.31025552  0.20876371  0.27650476  1  0  0.09594  0  0.934081  0  0  0.110094  0  0.99911  0  0  0.111756  0  0.998257  0  0  0.092316  0.108758  0  1.000039  0
H  H26  1  0.31025227  0.70877158  0.22349156  1  0  0.095914  0  0.93408  0  0  0.110094  0  0.999132  0  0  0.111756  0  0.998283  0  0  0.092307  0.108753  0  1.000068  0
H  H27  1  0.68974501  0.79123387  0.72349735  1  0  0.095967  0  0.934106  0  0  0.11011  0  0.999167  0  0  0.111771  0  0.998314  0  0  0.092325  0.108776  0  1.000092  0
H  H28  1  0.08504781  0.36560312  0.76180785  1  0  0.080889  0  0.95199  0  0  0.09802  0  1.013383  0  0  0.098949  0  1.013626  0  0  0.08497  0.097348  0  1.013283  0
H  H29  1  0.91495243  0.13439488  0.26180785  1  0  0.080872  0  0.951941  0  0  0.097997  0  1.013355  0  0  0.098947  0  1.013576  0  0  0.084967  0.09732  0  1.013261  0
H  H30  1  0.91495266  0.63440089  0.23819095  1  0  0.080834  0  0.952022  0  0  0.097997  0  1.013428  0  0  0.098927  0  1.013672  0  0  0.084936  0.097324  0  1.013323  0
H  H31  1  0.08504966  0.86560270  0.73819360  1  0  0.080919  0  0.951906  0  0  0.098049  0  1.01333  0  0  0.09898  0  1.013572  0  0  0.084985  0.097375  0  1.013232  0
H  H32  1  0.99909145  0.22474903  0.81744094  1  0  0.075242  0  0.949004  0  0  0.091751  0  1.012742  0  0  0.092393  0  1.013485  0  0  0.085062  0.091288  0  1.012249  0
H  H33  1  0.00090612  0.27524885  0.31743960  1  0  0.075224  0  0.949058  0  0  0.09176  0  1.012775  0  0  0.092397  0  1.013531  0  0  0.085083  0.091298  0  1.012275  0
H  H34  1  0.00090127  0.77525497  0.18255918  1  0  0.075247  0  0.948966  0  0  0.091793  0  1.012711  0  0  0.092435  0  1.013456  0  0  0.085088  0.091322  0  1.012223  0
H  H35  1  0.99909399  0.72474781  0.68256185  1  0  0.075262  0  0.949046  0  0  0.091784  0  1.012782  0  0  0.092423  0  1.013535  0  0  0.085067  0.09132  0  1.012288  0
H  H36  1  0.16514640  0.26626992  0.62532166  1  0  0.038405  0  0.949854  0  0  0.049564  0  1.021803  0  0  0.050574  0  1.020855  0  0  0.081551  0.048801  0  1.022534  0
H  H37  1  0.83485350  0.23372834  0.12532200  1  0  0.03843  0  0.949783  0  0  0.049563  0  1.021749  0  0  0.050565  0  1.020809  0  0  0.081546  0.0488  0  1.022484  0
H  H38  1  0.83485966  0.73372949  0.37467979  1  0  0.038442  0  0.949813  0  0  0.049572  0  1.021795  0  0  0.050575  0  1.020855  0  0  0.081528  0.048809  0  1.022524  0
H  H39  1  0.16514394  0.76626923  0.87468144  1  0  0.038434  0  0.949819  0  0  0.049552  0  1.021812  0  0  0.050558  0  1.020869  0  0  0.08152  0.048791  0  1.022542  0
H  H40  1  0.29447772  0.22049574  0.71819807  1  0  0.050021  0  0.924492  0  0  0.069248  0  0.983948  0  0  0.068905  0  0.984385  0  0  0.09655  0.069344  0  0.983904  0
H  H41  1  0.70551943  0.27950050  0.21819889  1  0  0.050042  0  0.924479  0  0  0.069269  0  0.983916  0  0  0.068925  0  0.98435  0  0  0.096541  0.069363  0  0.983873  0
H  H42  1  0.70551947  0.77950459  0.28180603  1  0  0.050069  0  0.924515  0  0  0.06933  0  0.983914  0  0  0.068987  0  0.984348  0  0  0.096543  0.069423  0  0.983874  0
H  H43  1  0.29447955  0.72049708  0.78180455  1  0  0.050084  0  0.924491  0  0  0.069316  0  0.983912  0  0  0.068973  0  0.984347  0  0  0.09655  0.069411  0  0.983867  0
H  H44  1  0.13508482  0.04790614  0.64947783  1  0  0.350943  0  0.927173  0  0  0.32667  0  1.004836  0  0  0.335987  0  0.994529  0  0  0.269618  0.319943  0  1.012304  0
H  H45  1  0.86491106  0.45209116  0.14947885  1  0  0.350947  0  0.927168  0  0  0.326675  0  1.004831  0  0  0.335991  0  0.994526  0  0  0.269616  0.319949  0  1.012298  0
H  H46  1  0.86491547  0.95209419  0.35052495  1  0  0.350896  0  0.927247  0  0  0.326625  0  1.004906  0  0  0.335942  0  0.9946  0  0  0.269584  0.3199  0  1.012375  0
H  H47  1  0.13508638  0.54790642  0.85052459  1  0  0.350891  0  0.927238  0  0  0.326624  0  1.004906  0  0  0.335941  0  0.994598  0  0  0.269596  0.319897  0  1.012373  0
C  C48  1  0.73694736  0.32240399  0.48400500  1  0  0.129581  0  3.725012  0  0  0.095828  0  3.982069  0  0  0.103493  0  4.000892  0  0  0.037438  0.090806  0  3.969539  0
C  C49  1  0.26305125  0.17759631  0.98400493  1  0  0.129629  0  3.725003  0  0  0.095883  0  3.982043  0  0  0.103549  0  4.000867  0  0  0.037501  0.090861  0  3.969514  0
C  C50  1  0.26305429  0.67759267  0.51599180  1  0  0.129511  0  3.724923  0  0  0.095829  0  3.981959  0  0  0.103496  0  4.000779  0  0  0.037397  0.090806  0  3.969435  0
C  C51  1  0.73695146  0.82240586  0.01599652  1  0  0.129559  0  3.725158  0  0  0.095767  0  3.982222  0  0  0.103434  0  4.001042  0  0  0.037431  0.090746  0  3.969691  0
C  C52  1  0.72962688  0.44372441  0.48183327  1  0  -0.125388  0  3.756811  0  0  -0.137239  0  4.008483  0  0  -0.145166  0  4.030876  0  0  -0.087544  -0.132239  0  3.993574  0
C  C53  1  0.27037358  0.05627315  0.98183377  1  0  -0.125388  0  3.756792  0  0  -0.137236  0  4.008475  0  0  -0.145161  0  4.030861  0  0  -0.087564  -0.132236  0  3.993569  0
C  C54  1  0.27037520  0.55627317  0.51815823  1  0  -0.125314  0  3.757157  0  0  -0.137129  0  4.008797  0  0  -0.145056  0  4.031191  0  0  -0.087528  -0.132131  0  3.993893  0
C  C55  1  0.72962981  0.94372718  0.01816702  1  0  -0.125368  0  3.756867  0  0  -0.137216  0  4.008538  0  0  -0.145143  0  4.030927  0  0  -0.087554  -0.132216  0  3.993631  0
C  C56  1  0.73587723  0.50635393  0.56193653  1  0  -0.001582  0  3.744855  0  0  -0.01998  0  3.994612  0  0  -0.015548  0  4.013267  0  0  -0.069003  -0.022599  0  3.981606  0
C  C57  1  0.26412182  0.99364542  0.06193771  1  0  -0.001637  0  3.744972  0  0  -0.020007  0  3.994734  0  0  -0.015572  0  4.013385  0  0  -0.069041  -0.022624  0  3.981725  0
C  C58  1  0.26411798  0.49364548  0.43805629  1  0  -0.00156  0  3.745121  0  0  -0.019936  0  3.994799  0  0  -0.015512  0  4.013465  0  0  -0.068953  -0.022554  0  3.981792  0
C  C59  1  0.73587847  0.00635491  0.93806441  1  0  -0.001554  0  3.744819  0  0  -0.019929  0  3.994591  0  0  -0.015497  0  4.013248  0  0  -0.068988  -0.022547  0  3.981584  0
C  C60  1  0.74632790  0.44432846  0.64073735  1  0  -0.172239  0  3.683379  0  0  -0.187424  0  3.924943  0  0  -0.196353  0  3.946479  0  0  -0.086622  -0.181672  0  3.910669  0
C  C61  1  0.25367478  0.05566977  0.14073764  1  0  -0.172219  0  3.68328  0  0  -0.187402  0  3.924845  0  0  -0.196328  0  3.946386  0  0  -0.08661  -0.181649  0  3.91057  0
C  C62  1  0.25365999  0.55567186  0.35925614  1  0  -0.172287  0  3.683253  0  0  -0.18747  0  3.924905  0  0  -0.196384  0  3.946418  0  0  -0.086606  -0.181721  0  3.910634  0
C  C63  1  0.74632507  0.94432964  0.85926381  1  0  -0.172184  0  3.683244  0  0  -0.187376  0  3.924785  0  0  -0.196306  0  3.946331  0  0  -0.08663  -0.181623  0  3.910509  0
C  C64  1  0.75288609  0.32156977  0.63862454  1  0  0.276694  0  3.695115  0  0  0.278405  0  3.937939  0  0  0.28761  0  3.959314  0  0  0.12421  0.272211  0  3.923561  0
C  C65  1  0.24711750  0.17843030  0.13862426  1  0  0.27664  0  3.695019  0  0  0.278299  0  3.937897  0  0  0.287501  0  3.959273  0  0  0.124164  0.272107  0  3.92352  0
C  C66  1  0.24711947  0.67843515  0.36137293  1  0  0.2766  0  3.694985  0  0  0.278341  0  3.937831  0  0  0.287548  0  3.9592  0  0  0.124152  0.272148  0  3.92345  0
C  C67  1  0.75288589  0.82157003  0.86137851  1  0  0.276565  0  3.695137  0  0  0.27829  0  3.937938  0  0  0.287491  0  3.959314  0  0  0.12422  0.272096  0  3.92356  0
C  C68  1  0.76920074  0.25424324  0.72286840  1  0  -0.195161  0  3.692861  0  0  -0.239222  0  3.942668  0  0  -0.241405  0  3.954111  0  0  -0.166893  -0.237631  0  3.935084  0
C  C69  1  0.23079694  0.24575758  0.22286821  1  0  -0.1952  0  3.692859  0  0  -0.239187  0  3.942601  0  0  -0.241366  0  3.954036  0  0  -0.16688  -0.237596  0  3.935014  0
C  C70  1  0.23080215  0.74576260  0.27712907  1  0  -0.194968  0  3.692522  0  0  -0.239088  0  3.942473  0  0  -0.241259  0  3.953919  0  0  -0.166849  -0.237499  0  3.934883  0
C  C71  1  0.76920137  0.75424183  0.77713390  1  0  -0.195237  0  3.692923  0  0  -0.239279  0  3.942764  0  0  -0.241455  0  3.954191  0  0  -0.166929  -0.23769  0  3.935181  0
C  C72  1  0.00300671  0.26797118  0.75206910  1  0  -0.135876  0  3.68503  0  0  -0.173738  0  3.942573  0  0  -0.175876  0  3.956004  0  0  -0.173795  -0.172072  0  3.933207  0
C  C73  1  0.99699261  0.23202775  0.25206820  1  0  -0.13575  0  3.6851  0  0  -0.173673  0  3.942657  0  0  -0.17583  0  3.956082  0  0  -0.1738  -0.172  0  3.93329  0
C  C74  1  0.99699066  0.73203282  0.24793102  1  0  -0.135799  0  3.684783  0  0  -0.173776  0  3.942502  0  0  -0.175918  0  3.955929  0  0  -0.173788  -0.172093  0  3.933106  0
C  C75  1  0.00300483  0.76796983  0.74793258  1  0  -0.135872  0  3.684948  0  0  -0.173796  0  3.942566  0  0  -0.17594  0  3.955992  0  0  -0.173828  -0.172125  0  3.933199  0
C  C76  1  0.13656565  0.21550309  0.68858386  1  0  0.141223  0  3.622213  0  0  0.078842  0  3.899846  0  0  0.086944  0  3.905529  0  0  -0.087521  0.073437  0  3.895804  0
C  C77  1  0.86343253  0.28449413  0.18858479  1  0  0.141145  0  3.62227  0  0  0.078822  0  3.899853  0  0  0.08693  0  3.905541  0  0  -0.087474  0.073417  0  3.895809  0
C  C78  1  0.86343308  0.78449724  0.31141825  1  0  0.141108  0  3.622265  0  0  0.078756  0  3.899924  0  0  0.086864  0  3.905608  0  0  -0.087481  0.073346  0  3.895876  0
C  C79  1  0.13656491  0.71550345  0.81141798  1  0  0.141138  0  3.622161  0  0  0.078806  0  3.899783  0  0  0.086914  0  3.905463  0  0  -0.087453  0.073402  0  3.895739  0
N  N80  1  0.75017854  0.26281462  0.56032766  1  0  -0.374967  0  3.230132  0  0  -0.298557  0  3.486026  0  0  -0.321059  0  3.507573  0  0  -0.330472  -0.283655  0  3.471398  0
N  N81  1  0.24982465  0.23718470  0.06032741  1  0  -0.37493  0  3.230218  0  0  -0.2985  0  3.486116  0  0  -0.321001  0  3.507665  0  0  -0.330454  -0.283599  0  3.471491  0
N  N82  1  0.24982683  0.73718663  0.43966981  1  0  -0.374971  0  3.23007  0  0  -0.298524  0  3.485902  0  0  -0.321025  0  3.507446  0  0  -0.330415  -0.283623  0  3.471278  0
N  N83  1  0.75018029  0.76281564  0.93967470  1  0  -0.37489  0  3.230256  0  0  -0.298454  0  3.486106  0  0  -0.320951  0  3.507652  0  0  -0.33046  -0.283553  0  3.47148  0
Cl  Cl84  1  0.59438745  0.02914741  0.38021523  1  0  -0.564929  0  1.021075  0  0  -0.502896  0  1.295585  0  0  -0.520767  0  1.273963  0  0  -0.27148  -0.489698  0  1.310403  0
Cl  Cl85  1  0.40561748  0.47085218  0.88021284  1  0  -0.564959  0  1.021055  0  0  -0.502934  0  1.295561  0  0  -0.520808  0  1.27395  0  0  -0.271493  -0.489732  0  1.310381  0
Cl  Cl86  1  0.40561508  0.97085109  0.61978754  1  0  -0.564973  0  1.021095  0  0  -0.502918  0  1.295585  0  0  -0.520788  0  1.273966  0  0  -0.271476  -0.48972  0  1.310405  0
Cl  Cl87  1  0.59438238  0.52914723  0.11978794  1  0  -0.564948  0  1.021085  0  0  -0.502919  0  1.295593  0  0  -0.520787  0  1.273973  0  0  -0.271483  -0.489719  0  1.310417  0
Cl  Cl88  1  0.84336663  0.84624603  0.53976968  1  0  -0.560265  0  1.025284  0  0  -0.49746  0  1.305289  0  0  -0.517484  0  1.287126  0  0  -0.287074  -0.483084  0  1.317166  0
Cl  Cl89  1  0.15663554  0.65375245  0.03977170  1  0  -0.560273  0  1.025285  0  0  -0.497463  0  1.305287  0  0  -0.517502  0  1.287151  0  0  -0.287067  -0.483086  0  1.31717  0
Cl  Cl90  1  0.15663633  0.15375339  0.46023176  1  0  -0.560269  0  1.025299  0  0  -0.497469  0  1.305325  0  0  -0.517488  0  1.287152  0  0  -0.287078  -0.483095  0  1.317206  0
Cl  Cl91  1  0.84336543  0.34624605  0.96023307  1  0  -0.560249  0  1.025269  0  0  -0.497461  0  1.305303  0  0  -0.517477  0  1.287124  0  0  -0.287074  -0.483084  0  1.317187  0
O  O92  1  0.02625791  0.08819288  0.67090340  1  0  -0.558131  0  2.152276  0  0  -0.48745  0  2.388363  0  0  -0.507821  0  2.378227  0  0  -0.408645  -0.472943  0  2.395128  0
O  O93  1  0.97373995  0.41180621  0.17090269  1  0  -0.558202  0  2.152393  0  0  -0.487494  0  2.388384  0  0  -0.507865  0  2.378244  0  0  -0.40869  -0.472985  0  2.395148  0
O  O94  1  0.97374281  0.91180837  0.32909871  1  0  -0.558154  0  2.152465  0  0  -0.487452  0  2.388498  0  0  -0.507823  0  2.37836  0  0  -0.408643  -0.472946  0  2.395265  0
O  O95  1  0.02625904  0.58819137  0.82909942  1  0  -0.558168  0  2.152501  0  0  -0.487417  0  2.388409  0  0  -0.507787  0  2.378271  0  0  -0.408656  -0.472909  0  2.395172  0
