# generated using pymatgen
data_AgPH17C22NO2F3
_symmetry_space_group_name_H-M   'P 1'
_cell_length_a   8.30184997
_cell_length_b   9.03462537
_cell_length_c   15.02051525
_cell_angle_alpha   103.13373089
_cell_angle_beta   92.44406704
_cell_angle_gamma   111.97149156
_symmetry_Int_Tables_number   1
_chemical_formula_structural   AgPH17C22NO2F3
_chemical_formula_sum   'Ag2 P2 H34 C44 N2 O4 F6'
_cell_volume   1007.23045017
_cell_formula_units_Z   2
loop_
 _symmetry_equiv_pos_site_id
 _symmetry_equiv_pos_as_xyz
  1  'x, y, z'
loop_
 _atom_site_type_symbol
 _atom_site_label
 _atom_site_symmetry_multiplicity
 _atom_site_fract_x
 _atom_site_fract_y
 _atom_site_fract_z
 _atom_site_occupancy
 _atom_site_hle17_bader_spin_density
 _atom_site_hle17_ddec_charge
 _atom_site_hle17_ddec_spin_density
 _atom_site_hle17_ddec_sum_bond_order
 _atom_site_hle17_magmom
 _atom_site_hse06_10hf_bader_spin_density
 _atom_site_hse06_10hf_ddec_charge
 _atom_site_hse06_10hf_ddec_spin_density
 _atom_site_hse06_10hf_ddec_sum_bond_order
 _atom_site_hse06_10hf_magmom
 _atom_site_hse06_bader_spin_density
 _atom_site_hse06_ddec_charge
 _atom_site_hse06_ddec_spin_density
 _atom_site_hse06_ddec_sum_bond_order
 _atom_site_hse06_magmom
 _atom_site_pbe_bader_spin_density
 _atom_site_pbe_cm5_charge
 _atom_site_pbe_ddec_charge
 _atom_site_pbe_ddec_spin_density
 _atom_site_pbe_ddec_sum_bond_order
 _atom_site_pbe_magmom
Ag  Ag0  1  0.06846295  0.19297874  0.10262821  1  0  0.40275  0  1.726299  0  0  0.276486  0  2.210442  0  0  0.295552  0  2.166455  0  0  0.458895  0.263932  0  2.240098  0
Ag  Ag1  1  0.93153668  0.80702754  0.89737476  1  0  0.402761  0  1.72639  0  0  0.27655  0  2.21046  0  0  0.295596  0  2.166505  0  0  0.458939  0.26399  0  2.240111  0
P  P2  1  0.17690706  0.21876675  0.25344275  1  0  0.271083  0  3.819094  0  0  0.220691  0  4.294341  0  0  0.23123  0  4.288396  0  0  -0.023592  0.213686  0  4.297765  0
P  P3  1  0.82309478  0.78123333  0.74655875  1  0  0.271051  0  3.819071  0  0  0.220669  0  4.294299  0  0  0.231202  0  4.288348  0  0  -0.023594  0.213679  0  4.297696  0
H  H4  1  0.75150232  0.29489159  0.04275464  1  0  0.099513  0  0.964754  0  0  0.103199  0  1.033537  0  0  0.106259  0  1.030992  0  0  0.114368  0.100912  0  1.03554  0
H  H5  1  0.24849879  0.70510969  0.95724369  1  0  0.099512  0  0.964711  0  0  0.10322  0  1.033484  0  0  0.106279  0  1.030939  0  0  0.114365  0.100932  0  1.035482  0
H  H6  1  0.71495047  0.51781912  0.98229509  1  0  0.111673  0  0.94367  0  0  0.117042  0  1.008831  0  0  0.12053  0  1.00619  0  0  0.122919  0.114435  0  1.010923  0
H  H7  1  0.28504943  0.48218216  0.01770321  1  0  0.111632  0  0.943699  0  0  0.117057  0  1.008801  0  0  0.120544  0  1.006162  0  0  0.122922  0.114448  0  1.010896  0
H  H8  1  0.45500836  0.37107588  0.15440216  1  0  0.103427  0  0.989203  0  0  0.109767  0  1.059568  0  0  0.114248  0  1.055483  0  0  0.09692  0.106459  0  1.062644  0
H  H9  1  0.54498948  0.62892046  0.84559677  1  0  0.103467  0  0.989218  0  0  0.109809  0  1.059572  0  0  0.11429  0  1.055488  0  0  0.096924  0.106494  0  1.062651  0
H  H10  1  0.72572673  0.62554020  0.19794356  1  0  0.087627  0  0.954081  0  0  0.101023  0  1.010994  0  0  0.103193  0  1.010858  0  0  0.10086  0.099505  0  1.011078  0
H  H11  1  0.27427040  0.37445736  0.80205285  1  0  0.087531  0  0.954117  0  0  0.100938  0  1.01103  0  0  0.1031  0  1.010904  0  0  0.100812  0.099415  0  1.011118  0
H  H12  1  0.80645451  0.80474456  0.35904932  1  0  0.085962  0  0.957792  0  0  0.096294  0  1.020779  0  0  0.098564  0  1.020513  0  0  0.0981  0.094676  0  1.020934  0
H  H13  1  0.19354656  0.19525669  0.64094634  1  0  0.085976  0  0.957746  0  0  0.096285  0  1.020763  0  0  0.098547  0  1.020521  0  0  0.098094  0.094663  0  1.020928  0
H  H14  1  0.61649652  0.72252646  0.47835271  1  0  0.079285  0  0.973236  0  0  0.089886  0  1.03829  0  0  0.092223  0  1.03786  0  0  0.096141  0.088163  0  1.038763  0
H  H15  1  0.38351216  0.27747850  0.52164561  1  0  0.079251  0  0.973287  0  0  0.089878  0  1.038326  0  0  0.092197  0  1.037913  0  0  0.096139  0.088154  0  1.038808  0
H  H16  1  0.34527568  0.46433829  0.43572949  1  0  0.08694  0  0.976088  0  0  0.096592  0  1.042317  0  0  0.098508  0  1.042829  0  0  0.097301  0.095217  0  1.042024  0
H  H17  1  0.65473011  0.53566547  0.56427127  1  0  0.086961  0  0.976063  0  0  0.096587  0  1.042317  0  0  0.098504  0  1.04283  0  0  0.097281  0.09521  0  1.042027  0
H  H18  1  0.94519306  0.39084818  0.27219971  1  0  0.079679  0  0.961763  0  0  0.088287  0  1.033514  0  0  0.091542  0  1.030891  0  0  0.094916  0.085935  0  1.035452  0
H  H19  1  0.05480773  0.60914942  0.72780144  1  0  0.07971  0  0.961683  0  0  0.088297  0  1.033485  0  0  0.091551  0  1.030864  0  0  0.094912  0.085946  0  1.035419  0
H  H20  1  0.75168101  0.43441851  0.38748901  1  0  0.082082  0  0.986981  0  0  0.092591  0  1.04992  0  0  0.093697  0  1.052175  0  0  0.095026  0.091763  0  1.048486  0
H  H21  1  0.24831805  0.56557784  0.61251061  1  0  0.082032  0  0.986958  0  0  0.092547  0  1.049895  0  0  0.093653  0  1.05215  0  0  0.095016  0.091721  0  1.048458  0
H  H22  1  0.72585724  0.30458856  0.51968047  1  0  0.078844  0  0.978789  0  0  0.089999  0  1.043313  0  0  0.092023  0  1.043148  0  0  0.096238  0.088534  0  1.043461  0
H  H23  1  0.27414167  0.69541028  0.48032082  1  0  0.078803  0  0.978824  0  0  0.089943  0  1.043358  0  0  0.091982  0  1.04318  0  0  0.096232  0.088478  0  1.043506  0
H  H24  1  0.89812558  0.13935687  0.53724621  1  0  0.078923  0  0.972521  0  0  0.089772  0  1.035512  0  0  0.09179  0  1.036002  0  0  0.094502  0.088314  0  1.035287  0
H  H25  1  0.10187506  0.86064322  0.46275594  1  0  0.078891  0  0.972553  0  0  0.089731  0  1.035564  0  0  0.091748  0  1.036055  0  0  0.094451  0.088274  0  1.03534  0
H  H26  1  0.09762195  0.09977359  0.42271717  1  0  0.079709  0  0.982857  0  0  0.091212  0  1.046537  0  0  0.093362  0  1.046435  0  0  0.09458  0.089644  0  1.046708  0
H  H27  1  0.90238095  0.90022898  0.57728670  1  0  0.079717  0  0.98279  0  0  0.09121  0  1.0465  0  0  0.093359  0  1.0464  0  0  0.094585  0.089646  0  1.046666  0
H  H28  1  0.99036656  0.87210693  0.17559041  1  0  0.090338  0  0.957912  0  0  0.097952  0  1.028296  0  0  0.101125  0  1.026217  0  0  0.097055  0.095693  0  1.029706  0
H  H29  1  0.00963167  0.12789316  0.82441169  1  0  0.090408  0  0.957888  0  0  0.098006  0  1.028281  0  0  0.10118  0  1.0262  0  0  0.097061  0.095747  0  1.029691  0
H  H30  1  0.02893434  0.62313885  0.20055762  1  0  0.073411  0  0.97636  0  0  0.084464  0  1.040983  0  0  0.086054  0  1.041939  0  0  0.093573  0.083371  0  1.040362  0
H  H31  1  0.97106336  0.37685999  0.79944363  1  0  0.073366  0  0.976408  0  0  0.084437  0  1.041013  0  0  0.086028  0  1.041967  0  0  0.093561  0.083344  0  1.040389  0
H  H32  1  0.28707343  0.65605727  0.30542460  1  0  0.080178  0  0.991497  0  0  0.090668  0  1.054961  0  0  0.091851  0  1.056759  0  0  0.093554  0.089773  0  1.053813  0
H  H33  1  0.71292615  0.34394033  0.69457586  1  0  0.080176  0  0.991426  0  0  0.090669  0  1.054908  0  0  0.091852  0  1.056706  0  0  0.093556  0.089774  0  1.053757  0
H  H34  1  0.50495739  0.93772974  0.38710637  1  0  0.08474  0  0.958319  0  0  0.095893  0  1.01945  0  0  0.098056  0  1.019573  0  0  0.096562  0.094364  0  1.019388  0
H  H35  1  0.49504220  0.06226786  0.61289476  1  0  0.084734  0  0.958366  0  0  0.095909  0  1.019468  0  0  0.098072  0  1.019592  0  0  0.09658  0.094385  0  1.019408  0
H  H36  1  0.46397442  0.18547518  0.36439795  1  0  0.081962  0  0.984876  0  0  0.091285  0  1.053096  0  0  0.093072  0  1.053834  0  0  0.0937  0.090004  0  1.052648  0
H  H37  1  0.53602707  0.81452118  0.63560372  1  0  0.081968  0  0.984842  0  0  0.091272  0  1.053089  0  0  0.093059  0  1.053827  0  0  0.093695  0.089993  0  1.052634  0
C  C38  1  0.33158319  0.14508581  0.96129709  1  0  0.474213  0  4.059525  0  0  0.425227  0  4.356075  0  0  0.454471  0  4.351329  0  0  0.186246  0.405607  0  4.358373  0
C  C39  1  0.66842609  0.85492909  0.03870590  1  0  0.474453  0  4.059019  0  0  0.425371  0  4.355649  0  0  0.454624  0  4.350886  0  0  0.186352  0.405742  0  4.357961  0
C  C40  1  0.39237580  0.05269694  0.87700123  1  0  0.670059  0  3.638889  0  0  0.597576  0  3.986623  0  0  0.626031  0  3.95775  0  0  0.29263  0.577723  0  4.006324  0
C  C41  1  0.60762290  0.94730435  0.12299705  1  0  0.669701  0  3.639514  0  0  0.597369  0  3.987024  0  0  0.625834  0  3.958131  0  0  0.29257  0.577517  0  4.006728  0
C  C42  1  0.86355987  0.38666094  0.02411658  1  0  0.072854  0  3.666585  0  0  0.044084  0  3.918298  0  0  0.046215  0  3.935834  0  0  0.050017  0.042141  0  3.907522  0
C  C43  1  0.13644071  0.61333910  0.97588157  1  0  0.072846  0  3.666522  0  0  0.044038  0  3.918266  0  0  0.046178  0  3.935782  0  0  0.049994  0.042092  0  3.907487  0
C  C44  1  0.84296808  0.51072575  0.99019710  1  0  0.071895  0  3.645221  0  0  0.045973  0  3.891757  0  0  0.047792  0  3.909065  0  0  0.053676  0.04448  0  3.88074  0
C  C45  1  0.15703302  0.48927552  0.00980056  1  0  0.071958  0  3.645241  0  0  0.046  0  3.891762  0  0  0.047819  0  3.909074  0  0  0.053698  0.044511  0  3.880741  0
C  C46  1  0.38342756  0.39915747  0.29293805  1  0  -0.095409  0  3.771827  0  0  -0.055569  0  4.006406  0  0  -0.06144  0  4.032399  0  0  -0.027462  -0.051722  0  3.988841  0
C  C47  1  0.61657358  0.60084383  0.70706294  1  0  -0.095362  0  3.771792  0  0  -0.055582  0  4.006458  0  0  -0.061453  0  4.03245  0  0  -0.027491  -0.051726  0  3.988872  0
C  C48  1  0.49210115  0.44507311  0.22624440  1  0  -0.073941  0  3.71861  0  0  -0.090019  0  3.953414  0  0  -0.091212  0  3.973865  0  0  -0.082572  -0.089007  0  3.939595  0
C  C49  1  0.50789946  0.55492695  0.77375575  1  0  -0.074026  0  3.718673  0  0  -0.090102  0  3.953514  0  0  -0.091293  0  3.97396  0  0  -0.082575  -0.089094  0  3.939688  0
C  C50  1  0.64461749  0.58922149  0.25069529  1  0  -0.055426  0  3.74288  0  0  -0.067269  0  3.984935  0  0  -0.069639  0  4.006158  0  0  -0.086395  -0.06559  0  3.970254  0
C  C51  1  0.35538190  0.41077855  0.74930284  1  0  -0.055247  0  3.742805  0  0  -0.067084  0  3.984835  0  0  -0.069447  0  4.00606  0  0  -0.086307  -0.0654  0  3.970152  0
C  C52  1  0.68964232  0.68977933  0.34116044  1  0  -0.053978  0  3.746066  0  0  -0.06942  0  3.995193  0  0  -0.069152  0  4.014528  0  0  -0.084511  -0.06934  0  3.981744  0
C  C53  1  0.31035825  0.31022070  0.65883638  1  0  -0.053999  0  3.746085  0  0  -0.069424  0  3.995233  0  0  -0.069159  0  4.01456  0  0  -0.084515  -0.069344  0  3.981792  0
C  C54  1  0.58261203  0.64395420  0.40781635  1  0  -0.086978  0  3.783417  0  0  -0.097787  0  4.03292  0  0  -0.100603  0  4.053177  0  0  -0.095608  -0.095864  0  4.01917  0
C  C55  1  0.41739200  0.35604830  0.59218154  1  0  -0.087001  0  3.783472  0  0  -0.097847  0  4.032984  0  0  -0.100644  0  4.053246  0  0  -0.095657  -0.095925  0  4.019244  0
C  C56  1  0.43033381  0.49866429  0.38408098  1  0  -0.091246  0  3.762214  0  0  -0.110708  0  4.006974  0  0  -0.111111  0  4.027767  0  0  -0.090921  -0.110282  0  3.992854  0
C  C57  1  0.56966904  0.50133823  0.61591888  1  0  -0.091236  0  3.762134  0  0  -0.110648  0  4.006912  0  0  -0.11105  0  4.027699  0  0  -0.090867  -0.110225  0  3.992791  0
C  C58  1  0.03683561  0.24537641  0.34098528  1  0  -0.087181  0  3.765618  0  0  -0.046551  0  3.998193  0  0  -0.051939  0  4.024301  0  0  -0.024866  -0.042929  0  3.98032  0
C  C59  1  0.96316623  0.75462367  0.65901690  1  0  -0.087145  0  3.765593  0  0  -0.046498  0  3.998174  0  0  -0.05186  0  4.024245  0  0  -0.024855  -0.042887  0  3.980315  0
C  C60  1  0.93745740  0.33823611  0.33129687  1  0  -0.067663  0  3.745125  0  0  -0.089198  0  3.989971  0  0  -0.090124  0  4.010552  0  0  -0.084075  -0.088384  0  3.975822  0
C  C61  1  0.06254271  0.66176273  0.66870443  1  0  -0.067803  0  3.745131  0  0  -0.089345  0  3.989976  0  0  -0.090278  0  4.010551  0  0  -0.084106  -0.088532  0  3.975837  0
C  C62  1  0.82680762  0.36066888  0.39553912  1  0  -0.0614  0  3.751339  0  0  -0.070665  0  3.99096  0  0  -0.072974  0  4.013435  0  0  -0.088977  -0.069071  0  3.9757  0
C  C63  1  0.17319129  0.63932997  0.60446283  1  0  -0.061211  0  3.75115  0  0  -0.070474  0  3.99075  0  0  -0.072784  0  4.013232  0  0  -0.088886  -0.068884  0  3.975491  0
C  C64  1  0.81235539  0.28815137  0.46927091  1  0  -0.060136  0  3.754817  0  0  -0.073025  0  3.996029  0  0  -0.074043  0  4.017219  0  0  -0.088968  -0.072191  0  3.981632  0
C  C65  1  0.18764524  0.71184870  0.53073057  1  0  -0.060143  0  3.754806  0  0  -0.073021  0  3.996021  0  0  -0.074054  0  4.017204  0  0  -0.089053  -0.072186  0  3.98163  0
C  C66  1  0.90963270  0.19452111  0.47910273  1  0  -0.07081  0  3.771912  0  0  -0.080502  0  4.015513  0  0  -0.083339  0  4.037893  0  0  -0.091766  -0.078539  0  4.000255  0
C  C67  1  0.09036846  0.80548021  0.52089959  1  0  -0.070845  0  3.771965  0  0  -0.08053  0  4.01556  0  0  -0.083368  0  4.037948  0  0  -0.091686  -0.078567  0  4.00031  0
C  C68  1  0.02186565  0.17331077  0.41534223  1  0  -0.084684  0  3.756314  0  0  -0.104844  0  3.99762  0  0  -0.106291  0  4.019989  0  0  -0.092065  -0.103691  0  3.98236  0
C  C69  1  0.97813672  0.82669055  0.58466079  1  0  -0.084617  0  3.756224  0  0  -0.104787  0  3.997508  0  0  -0.106242  0  4.019871  0  0  -0.092073  -0.103639  0  3.98226  0
C  C70  1  0.22176270  0.04427046  0.27065800  1  0  -0.087155  0  3.772782  0  0  -0.047574  0  4.006743  0  0  -0.052803  0  4.031981  0  0  -0.027787  -0.044155  0  3.989719  0
C  C71  1  0.77823913  0.95572962  0.72934351  1  0  -0.087214  0  3.772771  0  0  -0.04761  0  4.00669  0  0  -0.052838  0  4.031928  0  0  -0.027805  -0.044193  0  3.989664  0
C  C72  1  0.10048434  0.88528270  0.22361278  1  0  -0.07187  0  3.732181  0  0  -0.092155  0  3.976252  0  0  -0.093162  0  3.997432  0  0  -0.085611  -0.09128  0  3.961839  0
C  C73  1  0.89951577  0.11471614  0.77638853  1  0  -0.071944  0  3.732232  0  0  -0.092219  0  3.976295  0  0  -0.093226  0  3.997472  0  0  -0.085623  -0.091348  0  3.961887  0
C  C74  1  0.12314235  0.74643696  0.23733947  1  0  -0.071035  0  3.773812  0  0  -0.082349  0  4.018938  0  0  -0.08539  0  4.042059  0  0  -0.093683  -0.080241  0  4.00315  0
C  C75  1  0.87685775  0.25356187  0.76266117  1  0  -0.071028  0  3.773812  0  0  -0.082349  0  4.018935  0  0  -0.08539  0  4.042053  0  0  -0.093698  -0.080233  0  4.003142  0
C  C76  1  0.26780982  0.76485315  0.29651089  1  0  -0.059553  0  3.750864  0  0  -0.072568  0  3.994107  0  0  -0.073083  0  4.014911  0  0  -0.089595  -0.072071  0  3.979883  0
C  C77  1  0.73219044  0.23514320  0.70348942  1  0  -0.059505  0  3.750887  0  0  -0.072532  0  3.994137  0  0  -0.073049  0  4.014948  0  0  -0.089596  -0.072042  0  3.979919  0
C  C78  1  0.38987179  0.92272481  0.34245026  1  0  -0.068255  0  3.767291  0  0  -0.081885  0  4.018124  0  0  -0.083605  0  4.037628  0  0  -0.09364  -0.080641  0  4.004708  0
C  C79  1  0.61012728  0.07727156  0.65755070  1  0  -0.068337  0  3.767386  0  0  -0.081976  0  4.018231  0  0  -0.083699  0  4.03774  0  0  -0.093672  -0.08074  0  4.004827  0
C  C80  1  0.36691394  0.06232036  0.32980029  1  0  -0.081778  0  3.750605  0  0  -0.103639  0  3.996603  0  0  -0.104317  0  4.017365  0  0  -0.090151  -0.103049  0  3.982491  0
C  C81  1  0.63308617  0.93767848  0.67020102  1  0  -0.081676  0  3.750441  0  0  -0.103532  0  3.996454  0  0  -0.104206  0  4.017209  0  0  -0.090115  -0.102944  0  3.982344  0
N  N82  1  0.02010915  0.37531838  0.03401604  1  0  -0.235708  0  3.26008  0  0  -0.165148  0  3.541981  0  0  -0.175926  0  3.555554  0  0  -0.319711  -0.157975  0  3.533058  0
N  N83  1  0.97989075  0.62468290  0.96598226  1  0  -0.235738  0  3.260013  0  0  -0.165181  0  3.541906  0  0  -0.175951  0  3.555471  0  0  -0.319722  -0.158008  0  3.532983  0
O  O84  1  0.17626206  0.06447841  0.97485500  1  0  -0.557837  0  2.164786  0  0  -0.49229  0  2.44969  0  0  -0.518221  0  2.435444  0  0  -0.341949  -0.474122  0  2.458588  0
O  O85  1  0.82373030  0.93551920  0.02514531  1  0  -0.557786  0  2.165091  0  0  -0.492205  0  2.450023  0  0  -0.518127  0  2.435765  0  0  -0.341857  -0.474037  0  2.458913  0
O  O86  1  0.43634497  0.28682088  0.00332028  1  0  -0.542451  0  1.978824  0  0  -0.507835  0  2.199119  0  0  -0.529756  0  2.192119  0  0  -0.30975  -0.49222  0  2.203216  0
O  O87  1  0.56364784  0.71316927  0.99667638  1  0  -0.542697  0  1.977914  0  0  -0.508066  0  2.198266  0  0  -0.529996  0  2.191262  0  0  -0.309959  -0.492444  0  2.202363  0
F  F88  1  0.32066340  0.06555212  0.79657803  1  0  -0.262203  0  1.170859  0  0  -0.214874  0  1.333033  0  0  -0.228809  0  1.323425  0  0  -0.103834  -0.20697  0  1.341757  0
F  F89  1  0.67933496  0.93445411  0.20342024  1  0  -0.262131  0  1.171059  0  0  -0.214802  0  1.333153  0  0  -0.228772  0  1.323566  0  0  -0.103813  -0.206904  0  1.341877  0
F  F90  1  0.56901823  0.11516190  0.87970443  1  0  -0.235758  0  1.21685  0  0  -0.199826  0  1.392959  0  0  -0.211095  0  1.380465  0  0  -0.093652  -0.191481  0  1.401408  0
F  F91  1  0.43097771  0.88483568  0.12029396  1  0  -0.23571  0  1.216917  0  0  -0.199813  0  1.392976  0  0  -0.211081  0  1.380476  0  0  -0.093679  -0.191472  0  1.401422  0
F  F92  1  0.34098486  0.88693317  0.86992244  1  0  -0.264665  0  1.177498  0  0  -0.220252  0  1.345918  0  0  -0.229328  0  1.3291  0  0  -0.106601  -0.213482  0  1.357383  0
F  F93  1  0.65900691  0.11306316  0.13007303  1  0  -0.264534  0  1.177625  0  0  -0.220182  0  1.346007  0  0  -0.229257  0  1.329183  0  0  -0.106576  -0.213414  0  1.357475  0
