# generated using pymatgen
data_CuH17C20N3O4
_symmetry_space_group_name_H-M   'P 1'
_cell_length_a   8.23128576
_cell_length_b   8.01244733
_cell_length_c   14.28351203
_cell_angle_alpha   90.61521576
_cell_angle_beta   80.42609646
_cell_angle_gamma   77.32085720
_symmetry_Int_Tables_number   1
_chemical_formula_structural   CuH17C20N3O4
_chemical_formula_sum   'Cu2 H34 C40 N6 O8'
_cell_volume   905.17052096
_cell_formula_units_Z   2
loop_
 _symmetry_equiv_pos_site_id
 _symmetry_equiv_pos_as_xyz
  1  'x, y, z'
loop_
 _atom_site_type_symbol
 _atom_site_label
 _atom_site_symmetry_multiplicity
 _atom_site_fract_x
 _atom_site_fract_y
 _atom_site_fract_z
 _atom_site_occupancy
 _atom_site_hle17_ddec_charge
 _atom_site_hle17_ddec_spin_density
 _atom_site_hle17_ddec_sum_bond_order
 _atom_site_hle17_magmom
 _atom_site_hse06_10hf_ddec_charge
 _atom_site_hse06_10hf_ddec_spin_density
 _atom_site_hse06_10hf_ddec_sum_bond_order
 _atom_site_hse06_10hf_magmom
 _atom_site_hse06_ddec_charge
 _atom_site_hse06_ddec_spin_density
 _atom_site_hse06_ddec_sum_bond_order
 _atom_site_hse06_magmom
 _atom_site_pbe_cm5_charge
 _atom_site_pbe_ddec_charge
 _atom_site_pbe_ddec_spin_density
 _atom_site_pbe_ddec_sum_bond_order
 _atom_site_pbe_magmom
Cu  Cu0  1  0.99999755  0.50000396  0.99999958  1  0.804497  0.69676  1.741253  0.471  0.771403  0.784854  2.128435  0.586  0.864162  0.864614  2.060977  0.671  0.71789  0.713592  0.730972  2.177899  0.535
Cu  Cu1  1  0.50000487  0.49999896  0.49999703  1  0.817875  -0.721115  1.776223  -0.494  0.781658  -0.800082  2.166314  -0.604  0.877426  -0.876142  2.089906  -0.685  0.730274  0.723733  -0.748277  2.218832  -0.554
H  H2  1  0.27715156  0.20890992  0.91660786  1  0.292502  -0.000116  0.956639  0.0  0.268912  -0.000141  1.03461  0.0  0.277571  -0.000151  1.027115  0.0  0.298297  0.26268  -0.000118  1.040091  0.0
H  H3  1  0.72284561  0.79109482  0.08339147  1  0.292534  -0.000115  0.956608  0.0  0.268945  -0.000141  1.034583  0.0  0.277608  -0.000151  1.027081  0.0  0.298288  0.262717  -0.000118  1.040064  0.0
H  H4  1  0.02118987  0.67910103  0.81752149  1  0.08065  0.000635  0.98626  0.002  0.087899  0.000573  1.050935  0.001  0.089442  0.000397  1.050512  0.001  0.115759  0.086623  0.000719  1.051315  0.002
H  H5  1  0.97881756  0.32089577  0.18247558  1  0.080689  0.000633  0.986207  0.002  0.087935  0.000573  1.050896  0.001  0.089474  0.000397  1.050476  0.001  0.115785  0.086662  0.000719  1.05126  0.002
H  H6  1  0.10899927  0.93220224  0.75376256  1  0.114735  0.000481  0.988147  0.0  0.124307  0.000396  1.048453  0.0  0.126868  0.000295  1.049382  0.0  0.10825  0.122356  0.000469  1.048141  0.0
H  H7  1  0.89101245  0.06779183  0.24623204  1  0.114772  0.000479  0.988095  0.0  0.124309  0.000395  1.048438  0.0  0.126867  0.000295  1.04937  0.0  0.108233  0.122356  0.000469  1.048122  0.0
H  H8  1  0.27397640  0.00623070  0.02135695  1  0.121187  0.000495  0.970663  0.001  0.128634  0.000419  1.035213  0.0  0.131957  0.000312  1.034717  0.0  0.110443  0.126196  0.0005  1.03584  0.001
H  H9  1  0.72601356  0.99377930  0.97864299  1  0.121117  0.000494  0.970743  0.001  0.128622  0.000419  1.035219  0.0  0.131941  0.000312  1.03473  0.0  0.110468  0.126185  0.0005  1.035847  0.001
H  H10  1  0.17173236  0.74899445  0.07540618  1  0.089155  0.000418  0.953709  0.001  0.098079  0.000493  1.01511  0.001  0.100655  0.00036  1.012533  0.001  0.117781  0.096082  0.000593  1.016969  0.001
H  H11  1  0.82825132  0.25102211  0.92459569  1  0.089086  0.000418  0.953728  0.001  0.097986  0.000493  1.015171  0.001  0.100559  0.00036  1.012592  0.001  0.117721  0.095991  0.000594  1.01704  0.001
H  H12  1  0.40288713  0.58592002  0.70158461  1  0.087211  -0.000502  0.954946  -0.001  0.095855  -0.00053  1.017639  -0.001  0.098314  -0.000381  1.01524  -0.001  0.118614  0.093909  -0.000654  1.019521  -0.001
H  H13  1  0.59711439  0.41408193  0.29841085  1  0.087155  -0.000503  0.954996  -0.001  0.095833  -0.000531  1.017654  -0.001  0.098293  -0.000381  1.015255  -0.001  0.11862  0.093884  -0.000654  1.019535  -0.001
H  H14  1  0.31072562  0.44452123  0.84920970  1  0.115228  -0.000607  0.971925  0.0  0.11955  -0.000547  1.04126  0.0  0.122943  -0.000457  1.040102  0.0  0.108235  0.117004  -0.000604  1.042466  -0.001
H  H15  1  0.68926539  0.55548993  0.15078805  1  0.115255  -0.000608  0.971896  0.0  0.11957  -0.000547  1.041235  0.0  0.122966  -0.000457  1.040067  0.0  0.108222  0.117018  -0.000604  1.042455  -0.001
H  H16  1  0.29421810  0.01077421  0.66998612  1  0.122805  -0.000387  0.949717  0.0  0.136702  -0.000373  1.000104  0.0  0.140054  -0.000278  0.999311  0.0  0.114984  0.134222  -0.00045  1.000995  0.0
H  H17  1  0.70580846  0.98921229  0.33001701  1  0.122806  -0.000387  0.94971  0.0  0.136737  -0.000372  1.000058  0.0  0.140089  -0.000278  0.999265  0.0  0.115022  0.134256  -0.00045  1.000952  0.0
H  H18  1  0.38229314  0.17210670  0.53185405  1  0.092512  -0.000645  0.928313  -0.001  0.103201  -0.000626  0.984298  -0.001  0.105774  -0.000464  0.981637  -0.001  0.124788  0.101107  -0.000758  0.986435  -0.001
H  H19  1  0.61773239  0.82787861  0.46815057  1  0.092422  -0.000643  0.92833  -0.001  0.103139  -0.000626  0.98428  -0.001  0.105723  -0.000464  0.981606  -0.001  0.124791  0.101046  -0.000758  0.986419  -0.001
H  H20  1  0.01681162  0.16700308  0.43174045  1  0.11132  -7e-06  0.96194  0.0  0.123801  -2.6e-05  1.018956  0.0  0.127098  -1.8e-05  1.017165  0.0  0.101193  0.121337  -3.7e-05  1.020443  0.0
H  H21  1  0.98318763  0.83300306  0.56826289  1  0.111373  -6e-06  0.961869  0.0  0.12381  -2.6e-05  1.018925  0.0  0.127104  -1.8e-05  1.017142  0.0  0.101228  0.12136  -3.7e-05  1.020394  0.0
H  H22  1  0.10924098  0.85904811  0.37496976  1  0.099519  -0.00012  0.978459  0.0  0.109542  1.4e-05  1.040067  0.0  0.112934  2e-06  1.038158  0.0  0.095986  0.107043  2.3e-05  1.041487  0.0
H  H23  1  0.89075227  0.14095697  0.62503622  1  0.099407  -0.00012  0.978555  0.0  0.109437  1.4e-05  1.040154  0.0  0.112829  2e-06  1.03825  0.0  0.095952  0.106938  2.3e-05  1.041573  0.0
H  H24  1  0.31184368  0.77808964  0.22228246  1  0.079976  -1.2e-05  0.958361  0.0  0.093544  -1.2e-05  1.016121  0.0  0.095866  -1.1e-05  1.015642  0.0  0.093208  0.091876  -1.1e-05  1.016528  0.0
H  H25  1  0.68814421  0.22190536  0.77772404  1  0.080032  -1e-05  0.958398  0.0  0.093602  -1.2e-05  1.01613  0.0  0.095934  -1.1e-05  1.015653  0.0  0.093248  0.091936  -1.1e-05  1.016537  0.0
H  H26  1  0.42848620  0.00156677  0.13304171  1  0.092228  -7.4e-05  0.962754  0.0  0.104819  1.2e-05  1.022082  0.0  0.107789  1.4e-05  1.020669  0.0  0.096609  0.102758  9e-06  1.023103  0.0
H  H27  1  0.57150505  0.99842419  0.86696101  1  0.092178  -7.5e-05  0.962757  0.0  0.104776  1.2e-05  1.022081  0.0  0.107747  1.4e-05  1.020666  0.0  0.096614  0.102711  9e-06  1.023105  0.0
H  H28  1  0.99269980  0.45423119  0.40376879  1  0.127483  -0.000245  0.941837  0.0  0.140759  -0.000295  1.001705  0.0  0.14249  -0.000176  1.002036  0.0  0.104732  0.139553  -0.000396  1.001449  0.0
H  H29  1  0.00730429  0.54576963  0.59623135  1  0.127457  -0.000247  0.941858  0.0  0.140727  -0.000295  1.00172  0.0  0.142458  -0.000176  1.002052  0.0  0.104726  0.139539  -0.000396  1.001446  0.0
H  H30  1  0.09846954  0.53174726  0.30173683  1  0.112464  0.000172  0.929503  0.0  0.126467  -7e-06  0.990332  0.0  0.128959  9e-06  0.989108  0.0  0.100589  0.124885  -1.5e-05  0.991044  0.0
H  H31  1  0.90153022  0.46825096  0.69826021  1  0.112488  0.000174  0.929494  0.0  0.126459  -7e-06  0.99034  0.0  0.128953  1e-05  0.989113  0.0  0.100593  0.12488  -1.5e-05  0.991056  0.0
H  H32  1  0.50328491  0.28772503  0.14890648  1  0.108456  0.001498  0.945517  0.002  0.120283  0.000945  1.007435  0.001  0.12076  0.000587  1.009138  0.001  0.09714  0.120051  0.001247  1.006225  0.001
H  H33  1  0.49671194  0.71227476  0.85109641  1  0.10842  0.001498  0.945567  0.002  0.120269  0.000945  1.007482  0.001  0.120746  0.000587  1.009183  0.001  0.097142  0.120039  0.001247  1.006273  0.001
H  H34  1  0.35083967  0.45900716  0.21553112  1  0.108094  -0.000371  0.949637  -0.001  0.121373  5e-06  1.011705  0.0  0.123593  3e-06  1.010182  0.0  0.100649  0.119749  8e-06  1.012853  0.0
H  H35  1  0.64914826  0.54099410  0.78447255  1  0.108054  -0.000369  0.9497  -0.001  0.121365  5e-06  1.011716  0.0  0.123571  3e-06  1.010207  0.0  0.100616  0.119742  8e-06  1.012868  0.0
C  C36  1  0.07882145  0.75413172  0.86061531  1  0.135029  -0.004037  3.737124  -0.004  0.107398  0.000129  3.98908  0.0  0.118932  -0.001007  4.008649  -0.002  0.039406  0.100285  0.001001  3.975847  0.0
C  C37  1  0.92118179  0.24586767  0.13938071  1  0.135019  -0.004037  3.737  -0.004  0.107398  0.000129  3.988949  0.0  0.118931  -0.001007  4.008514  -0.002  0.039394  0.100286  0.001001  3.975709  0.0
C  C38  1  0.13242845  0.89624268  0.82419531  1  -0.230045  0.007991  3.695381  0.008  -0.242886  0.003818  3.939697  0.004  -0.254965  0.003492  3.95983  0.004  -0.093992  -0.235245  0.003988  3.926424  0.005
C  C39  1  0.86757248  0.10376192  0.17580229  1  -0.230182  0.007996  3.695389  0.008  -0.243001  0.003818  3.939739  0.004  -0.255079  0.003491  3.959868  0.004  -0.094041  -0.235357  0.003987  3.926455  0.005
C  C40  1  0.20313494  0.99399443  0.88199877  1  0.307849  -0.005247  3.797318  -0.005  0.294362  -0.001889  4.045847  -0.002  0.310915  -0.002137  4.061715  -0.002  0.123649  0.283382  -0.001666  4.034895  -0.002
C  C41  1  0.79686621  0.00600894  0.11800022  1  0.307911  -0.005248  3.797125  -0.005  0.294425  -0.001889  4.045664  -0.002  0.310984  -0.002137  4.061526  -0.002  0.123652  0.283449  -0.001666  4.034706  -0.002
C  C42  1  0.21880179  0.93653103  0.97392722  1  -0.216383  0.007825  3.70072  0.008  -0.232235  0.003715  3.952447  0.004  -0.243378  0.003439  3.971263  0.004  -0.091472  -0.225157  0.003845  3.939937  0.004
C  C43  1  0.78119142  0.06348138  0.02607103  1  -0.21646  0.007827  3.701083  0.008  -0.232364  0.003714  3.952812  0.004  -0.243507  0.003439  3.97162  0.004  -0.091613  -0.225292  0.003844  3.940312  0.004
C  C44  1  0.16204819  0.79379557  0.00453391  1  0.138746  -0.003506  3.725297  -0.004  0.109017  0.000266  3.978992  0.0  0.120871  -0.000817  3.996361  -0.001  0.036725  0.10172  0.001088  3.967163  0.001
C  C45  1  0.83793448  0.20621346  0.99547018  1  0.138912  -0.003506  3.725711  -0.004  0.10922  0.000267  3.979367  0.0  0.121087  -0.000816  3.996725  -0.001  0.036861  0.101916  0.00109  3.967548  0.001
C  C46  1  0.37433486  0.45988268  0.69842204  1  0.129945  0.005174  3.738087  0.005  0.101195  0.000545  3.990265  0.001  0.112319  0.001524  4.009097  0.002  0.039017  0.094195  -0.000221  3.97782  0.0
C  C47  1  0.62566957  0.54011674  0.30157528  1  0.129917  0.005168  3.738044  0.005  0.101177  0.000545  3.99021  0.001  0.112296  0.001524  4.009045  0.002  0.038987  0.09418  -0.000221  3.977755  0.0
C  C48  1  0.32246416  0.38140508  0.77973986  1  -0.227153  -0.007997  3.718128  -0.008  -0.243094  -0.003674  3.971584  -0.004  -0.254822  -0.003476  3.99116  -0.004  -0.094172  -0.23556  -0.003771  3.958607  -0.004
C  C49  1  0.67753676  0.61859955  0.22025845  1  -0.22719  -0.007991  3.71798  -0.008  -0.243098  -0.003674  3.971408  -0.004  -0.254824  -0.003477  3.990986  -0.004  -0.094176  -0.235566  -0.003772  3.958424  -0.004
C  C50  1  0.29031752  0.21618737  0.77362221  1  0.312528  0.00593  3.78652  0.006  0.300555  0.002059  4.032285  0.002  0.316497  0.002288  4.049779  0.002  0.124919  0.289985  0.001869  4.02021  0.002
C  C51  1  0.70968893  0.78381985  0.22637980  1  0.312538  0.005925  3.786223  0.006  0.300548  0.002059  4.032036  0.002  0.316492  0.002289  4.049527  0.002  0.12492  0.289981  0.001869  4.01995  0.002
C  C52  1  0.31083493  0.13959082  0.68199551  1  -0.221685  -0.008205  3.683068  -0.008  -0.235752  -0.003697  3.926018  -0.004  -0.247207  -0.003502  3.945198  -0.004  -0.089363  -0.228421  -0.003796  3.913201  -0.004
C  C53  1  0.68917607  0.86039977  0.31800687  1  -0.221657  -0.008201  3.683066  -0.008  -0.235755  -0.003697  3.926044  -0.004  -0.247212  -0.003503  3.945226  -0.004  -0.089382  -0.228424  -0.003797  3.913224  -0.004
C  C54  1  0.36422909  0.22791974  0.60380157  1  0.154208  0.005367  3.696808  0.006  0.126497  0.000337  3.946677  0.001  0.138648  0.001356  3.964171  0.002  0.055661  0.118763  -0.000458  3.935218  0.0
C  C55  1  0.63578962  0.77206306  0.39620087  1  0.154352  0.005362  3.696793  0.006  0.126655  0.000338  3.946681  0.001  0.138803  0.001358  3.964167  0.002  0.055723  0.118912  -0.000456  3.935229  0.0
C  C56  1  0.29137199  0.20932369  0.23179423  1  0.057685  0.00048  3.701954  0.0  0.072827  -0.000448  3.939452  -0.001  0.072457  -0.000577  3.962706  -0.001  -0.014788  0.073235  -0.000184  3.923439  0.0
C  C57  1  0.70862075  0.79067228  0.76820694  1  0.057551  0.000471  3.702118  0.0  0.072705  -0.000447  3.939584  -0.001  0.072335  -0.000577  3.962831  -0.001  -0.014781  0.073122  -0.000184  3.923583  0.0
C  C58  1  0.17252409  0.25661412  0.31616228  1  0.080439  0.004267  3.717729  0.004  0.095568  0.000535  3.952908  0.001  0.097114  0.000318  3.975551  0.001  -0.01239  0.094571  0.000925  3.937358  0.001
C  C59  1  0.82746745  0.74338814  0.68383617  1  0.080598  0.004275  3.717917  0.004  0.095722  0.000534  3.953028  0.001  0.097274  0.000317  3.975664  0.001  -0.012376  0.094708  0.000925  3.937526  0.001
C  C60  1  0.10760242  0.12869219  0.36603511  1  -0.129809  -0.002403  3.722309  -0.002  -0.146559  -0.000199  3.964005  0.0  -0.150034  -0.000215  3.98501  0.0  -0.095452  -0.144189  -0.000254  3.949768  0.0
C  C61  1  0.89239149  0.87131015  0.63396662  1  -0.129943  -0.002412  3.722323  -0.002  -0.146671  -0.000198  3.964054  0.0  -0.150147  -0.000215  3.985056  0.0  -0.095469  -0.144301  -0.000254  3.94981  0.0
C  C62  1  0.15681433  0.95714923  0.33350703  1  -0.074705  0.005328  3.788794  0.005  -0.09257  0.00094  4.04408  0.001  -0.094559  0.000603  4.065792  0.001  -0.100652  -0.090924  0.00143  4.029031  0.001
C  C63  1  0.84317601  0.04285838  0.66649710  1  -0.074541  0.005333  3.788747  0.005  -0.092404  0.00094  4.044011  0.001  -0.094393  0.000604  4.065728  0.001  -0.100651  -0.090758  0.00143  4.028966  0.001
C  C64  1  0.27141482  0.91157022  0.24870332  1  -0.078159  -0.001672  3.802923  -0.002  -0.095681  -0.000235  4.064391  0.0  -0.09793  -0.00027  4.087555  0.0  -0.105233  -0.093971  -0.000212  4.048236  0.0
C  C65  1  0.72857066  0.08842475  0.75130130  1  -0.078249  -0.001678  3.803236  -0.002  -0.095783  -0.000235  4.064707  0.0  -0.098049  -0.000271  4.087889  0.0  -0.105187  -0.094068  -0.000212  4.048554  0.0
C  C66  1  0.33747317  0.03715710  0.19870320  1  -0.132089  0.002887  3.764362  0.003  -0.154356  0.000808  4.021263  0.001  -0.15739  0.000587  4.043826  0.001  -0.103996  -0.152018  0.00107  4.005511  0.001
C  C67  1  0.66251565  0.96283386  0.80129834  1  -0.13197  0.002893  3.764503  0.003  -0.154247  0.000806  4.021389  0.001  -0.157281  0.000588  4.043957  0.001  -0.104075  -0.151898  0.00107  4.005626  0.001
C  C68  1  0.11595361  0.43796617  0.35705935  1  -0.311678  -0.00953  3.694312  -0.01  -0.353662  -0.005684  3.933587  -0.006  -0.360034  -0.004006  3.941033  -0.005  -0.165205  -0.349115  -0.006881  3.928112  -0.007
C  C69  1  0.88404828  0.56203971  0.64293886  1  -0.311745  -0.00953  3.69444  -0.01  -0.353681  -0.005684  3.933601  -0.006  -0.360055  -0.004006  3.941046  -0.005  -0.165242  -0.34915  -0.00688  3.92814  -0.007
C  C70  1  0.23439177  0.49283521  0.41742937  1  0.679431  0.005764  3.844903  0.009  0.641704  0.001325  4.15293  0.004  0.677076  0.001627  4.148544  0.004  0.198457  0.617902  0.001012  4.154889  0.004
C  C71  1  0.76561820  0.50716146  0.58256537  1  0.679543  0.005766  3.844978  0.009  0.641871  0.001326  4.152886  0.004  0.677246  0.001627  4.148496  0.004  0.198646  0.618071  0.001012  4.154853  0.004
C  C72  1  0.36776141  0.33928373  0.17364567  1  -0.298592  0.011095  3.684704  0.011  -0.340384  0.006763  3.92248  0.007  -0.345822  0.004716  3.929669  0.005  -0.163222  -0.336595  0.00831  3.917452  0.009
C  C73  1  0.63223353  0.66071349  0.82635599  1  -0.29844  0.011093  3.684766  0.011  -0.340287  0.006763  3.922513  0.007  -0.34571  0.004716  3.929712  0.005  -0.163157  -0.336506  0.008308  3.917505  0.009
C  C74  1  0.28288265  0.37431271  0.08642304  1  0.696455  -0.003564  3.825012  -0.007  0.656603  -0.000126  4.128102  -0.003  0.692757  -0.000772  4.120785  -0.003  0.211302  0.63233  0.000535  4.132195  -0.003
C  C75  1  0.71712048  0.62568682  0.91357649  1  0.696334  -0.003567  3.825062  -0.007  0.656535  -0.000127  4.128087  -0.003  0.692674  -0.000773  4.120789  -0.003  0.21129  0.632266  0.000534  4.132188  -0.003
N  N76  1  0.09095930  0.70179754  0.94934686  1  -0.346302  0.077925  3.331304  0.093  -0.295936  0.057009  3.630429  0.073  -0.328755  0.048851  3.650913  0.066  -0.365918  -0.276106  0.060718  3.618407  0.075
N  N77  1  0.90903720  0.29821092  0.05064971  1  -0.346288  0.077921  3.331306  0.093  -0.295944  0.057006  3.630428  0.073  -0.328767  0.048851  3.650912  0.066  -0.365924  -0.276113  0.060716  3.618406  0.075
N  N78  1  0.25121192  0.14406059  0.85927435  1  -0.411004  -0.000188  3.383377  0.0  -0.353695  -0.000298  3.621127  0.0  -0.376491  -0.000341  3.630623  0.0  -0.395155  -0.338073  -0.000224  3.614397  0.0
N  N79  1  0.74878198  0.85594807  0.14072596  1  -0.411026  -0.000191  3.383197  0.0  -0.353734  -0.0003  3.620991  0.0  -0.376535  -0.000342  3.630483  0.0  -0.395102  -0.338122  -0.000225  3.614273  0.0
N  N80  1  0.39755718  0.38453171  0.61076884  1  -0.313502  -0.075937  3.337196  -0.091  -0.26419  -0.054321  3.631921  -0.07  -0.296634  -0.046236  3.652575  -0.062  -0.356905  -0.245002  -0.058618  3.620064  -0.073
N  N81  1  0.60244901  0.61545881  0.38922977  1  -0.313437  -0.075935  3.337207  -0.091  -0.264221  -0.054324  3.63204  -0.07  -0.296668  -0.046239  3.652698  -0.062  -0.35693  -0.245034  -0.058622  3.620181  -0.073
O  O82  1  0.18801256  0.63218147  0.46502295  1  -0.630399  0.000721  1.925114  -0.001  -0.601392  0.000554  2.161192  -0.001  -0.628097  0.001263  2.151384  0.001  -0.328787  -0.582797  -1.3e-05  2.167489  -0.001
O  O83  1  0.81199472  0.36781647  0.53497063  1  -0.630421  0.000722  1.925217  -0.001  -0.60145  0.000554  2.16129  -0.001  -0.628155  0.001263  2.151474  0.001  -0.328838  -0.582849  -1.3e-05  2.167582  -0.001
O  O84  1  0.34986275  0.29377649  0.00875913  1  -0.621023  0.00104  1.938238  0.002  -0.579067  0.000183  2.168854  0.001  -0.603518  -0.00059  2.159537  0.0  -0.323334  -0.562116  0.000883  2.174702  0.002
O  O85  1  0.65014306  0.70622177  0.99124157  1  -0.620949  0.00104  1.938265  0.002  -0.579016  0.000183  2.168853  0.001  -0.603463  -0.000591  2.159542  0.0  -0.323313  -0.562057  0.000883  2.174693  0.002
O  O86  1  0.13848322  0.48321233  0.10171594  1  -0.60729  0.101731  2.068953  0.129  -0.573041  0.069455  2.351083  0.097  -0.615984  0.055267  2.342481  0.082  -0.328351  -0.545096  0.077465  2.357496  0.104
O  O87  1  0.86152372  0.51678701  0.89828046  1  -0.607285  0.101738  2.068972  0.129  -0.573064  0.069461  2.351091  0.097  -0.616001  0.055273  2.342493  0.082  -0.328356  -0.545119  0.077466  2.35751  0.104
O  O88  1  0.38005773  0.38862824  0.41567051  1  -0.609251  -0.109662  2.028997  -0.139  -0.581499  -0.070551  2.303748  -0.099  -0.62584  -0.055663  2.297442  -0.082  -0.332114  -0.552101  -0.07971  2.307941  -0.108
O  O89  1  0.61994685  0.61136470  0.58432403  1  -0.609282  -0.109677  2.029019  -0.139  -0.581573  -0.070556  2.303741  -0.099  -0.625914  -0.055668  2.297431  -0.082  -0.332183  -0.552175  -0.079711  2.307939  -0.108
