# generated using pymatgen
data_ZnH11C17(NO)4
_symmetry_space_group_name_H-M   'P 1'
_cell_length_a   7.35202961
_cell_length_b   15.12169610
_cell_length_c   16.74512450
_cell_angle_alpha   105.58088782
_cell_angle_beta   89.99998700
_cell_angle_gamma   90.00005531
_symmetry_Int_Tables_number   1
_chemical_formula_structural   ZnH11C17(NO)4
_chemical_formula_sum   'Zn4 H44 C68 N16 O16'
_cell_volume   1793.23064155
_cell_formula_units_Z   4
loop_
 _symmetry_equiv_pos_site_id
 _symmetry_equiv_pos_as_xyz
  1  'x, y, z'
loop_
 _atom_site_type_symbol
 _atom_site_label
 _atom_site_symmetry_multiplicity
 _atom_site_fract_x
 _atom_site_fract_y
 _atom_site_fract_z
 _atom_site_occupancy
 _atom_site_hle17_bader_spin_density
 _atom_site_hle17_ddec_charge
 _atom_site_hle17_ddec_spin_density
 _atom_site_hle17_ddec_sum_bond_order
 _atom_site_hle17_magmom
 _atom_site_hse06_10hf_bader_spin_density
 _atom_site_hse06_10hf_ddec_charge
 _atom_site_hse06_10hf_ddec_spin_density
 _atom_site_hse06_10hf_ddec_sum_bond_order
 _atom_site_hse06_10hf_magmom
 _atom_site_hse06_bader_spin_density
 _atom_site_hse06_ddec_charge
 _atom_site_hse06_ddec_spin_density
 _atom_site_hse06_ddec_sum_bond_order
 _atom_site_hse06_magmom
 _atom_site_pbe_bader_spin_density
 _atom_site_pbe_cm5_charge
 _atom_site_pbe_ddec_charge
 _atom_site_pbe_ddec_spin_density
 _atom_site_pbe_ddec_sum_bond_order
 _atom_site_pbe_magmom
Zn  Zn0  1  0.85333992  0.18698615  0.51405081  1  0  1.009754  0  1.892861  0  0  0.81995  0  2.377732  0  0  0.866737  0  2.32122  0  0  0.697488  0.787339  0  2.416608  0
Zn  Zn1  1  0.85333857  0.31301399  0.98594920  1  0  1.009763  0  1.892827  0  0  0.819962  0  2.377693  0  0  0.866747  0  2.321182  0  0  0.697489  0.787353  0  2.416565  0
Zn  Zn2  1  0.14665814  0.81301415  0.48594928  1  0  1.009815  0  1.892775  0  0  0.820024  0  2.377644  0  0  0.866808  0  2.32113  0  0  0.697497  0.787414  0  2.416507  0
Zn  Zn3  1  0.14665950  0.68698563  0.01405071  1  0  1.009731  0  1.892885  0  0  0.819958  0  2.377752  0  0  0.866743  0  2.321238  0  0  0.697479  0.787349  0  2.416621  0
H  H4  1  0.69489918  0.07258784  0.63406255  1  0  0.118821  0  0.943758  0  0  0.129682  0  0.999  0  0  0.131947  0  0.998605  0  0  0.124784  0.128004  0  0.999459  0
H  H5  1  0.69489947  0.42741087  0.86593591  1  0  0.118834  0  0.943752  0  0  0.129701  0  0.998997  0  0  0.131966  0  0.998601  0  0  0.124793  0.128024  0  0.99946  0
H  H6  1  0.30509889  0.92740907  0.36593369  1  0  0.118874  0  0.943721  0  0  0.129741  0  0.998961  0  0  0.132007  0  0.998564  0  0  0.124811  0.128061  0  0.999419  0
H  H7  1  0.30509996  0.57259149  0.13406529  1  0  0.118875  0  0.943723  0  0  0.129736  0  0.99897  0  0  0.132002  0  0.998572  0  0  0.124812  0.128057  0  0.999433  0
H  H8  1  0.23843347  0.14785921  0.59880178  1  0  0.118155  0  0.946439  0  0  0.124232  0  1.013784  0  0  0.127724  0  1.009349  0  0  0.138747  0.121646  0  1.016979  0
H  H9  1  0.23843224  0.35214133  0.90119779  1  0  0.118117  0  0.946459  0  0  0.124208  0  1.013792  0  0  0.127696  0  1.009358  0  0  0.138746  0.121621  0  1.016981  0
H  H10  1  0.76156596  0.85214109  0.40119830  1  0  0.118164  0  0.946447  0  0  0.124242  0  1.013799  0  0  0.127734  0  1.009363  0  0  0.138737  0.121651  0  1.016991  0
H  H11  1  0.76156583  0.64785829  0.09880152  1  0  0.118158  0  0.946429  0  0  0.124235  0  1.01378  0  0  0.127727  0  1.009342  0  0  0.138746  0.121646  0  1.016975  0
H  H12  1  0.56706587  0.89329736  0.75301794  1  0  0.098444  0  0.944666  0  0  0.111227  0  1.000627  0  0  0.114337  0  0.999371  0  0  0.105205  0.108989  0  1.00163  0
H  H13  1  0.56706559  0.60670334  0.74698316  1  0  0.09845  0  0.944626  0  0  0.111234  0  1.000591  0  0  0.114344  0  0.999335  0  0  0.105216  0.108989  0  1.001594  0
H  H14  1  0.43293083  0.10670157  0.24698180  1  0  0.098467  0  0.94461  0  0  0.111256  0  1.000575  0  0  0.114366  0  0.999319  0  0  0.105241  0.109016  0  1.001573  0
H  H15  1  0.43293112  0.39329696  0.25301752  1  0  0.098452  0  0.944605  0  0  0.111241  0  1.000573  0  0  0.114352  0  0.999317  0  0  0.10523  0.108998  0  1.001582  0
H  H16  1  0.70473990  0.02994594  0.85474042  1  0  0.092989  0  0.95817  0  0  0.102179  0  1.021155  0  0  0.105673  0  1.018943  0  0  0.099535  0.09965  0  1.022832  0
H  H17  1  0.70474039  0.47005410  0.64526197  1  0  0.092986  0  0.958178  0  0  0.102178  0  1.021164  0  0  0.105671  0  1.018951  0  0  0.099515  0.099651  0  1.022835  0
H  H18  1  0.29525953  0.97005230  0.14525974  1  0  0.093019  0  0.958226  0  0  0.102209  0  1.021203  0  0  0.105703  0  1.01899  0  0  0.099524  0.099681  0  1.022878  0
H  H19  1  0.29526176  0.52994687  0.35473948  1  0  0.093001  0  0.958198  0  0  0.102192  0  1.021179  0  0  0.105685  0  1.018966  0  0  0.099532  0.099665  0  1.022854  0
H  H20  1  0.29686904  0.20247533  0.79287072  1  0  0.108837  0  0.963897  0  0  0.114435  0  1.036085  0  0  0.118111  0  1.033362  0  0  0.107775  0.111751  0  1.038131  0
H  H21  1  0.29686780  0.29752456  0.70712808  1  0  0.108831  0  0.963866  0  0  0.114424  0  1.036062  0  0  0.118101  0  1.033339  0  0  0.107749  0.11174  0  1.038108  0
H  H22  1  0.70313039  0.79752430  0.20712800  1  0  0.108832  0  0.963891  0  0  0.114435  0  1.036075  0  0  0.118111  0  1.033352  0  0  0.107765  0.11175  0  1.038119  0
H  H23  1  0.70313163  0.70247575  0.29287140  1  0  0.108847  0  0.963889  0  0  0.114451  0  1.036069  0  0  0.118127  0  1.033346  0  0  0.107776  0.111764  0  1.038113  0
H  H24  1  0.16403773  0.13022379  0.36936559  1  0  0.095947  0  0.974676  0  0  0.102868  0  1.040862  0  0  0.104658  0  1.041457  0  0  0.115554  0.101571  0  1.040551  0
H  H25  1  0.16403939  0.36977598  0.13063407  1  0  0.095933  0  0.97468  0  0  0.102854  0  1.040871  0  0  0.104644  0  1.041465  0  0  0.115549  0.101555  0  1.04056  0
H  H26  1  0.83595898  0.86977582  0.63063492  1  0  0.095999  0  0.974614  0  0  0.102947  0  1.040786  0  0  0.104722  0  1.041395  0  0  0.115579  0.101649  0  1.040471  0
H  H27  1  0.83595732  0.63022569  0.86936695  1  0  0.09593  0  0.974654  0  0  0.102872  0  1.040833  0  0  0.104654  0  1.041436  0  0  0.115542  0.101575  0  1.040521  0
H  H28  1  0.43609198  0.25428013  0.35800947  1  0  0.13444  0  0.979427  0  0  0.143149  0  1.040117  0  0  0.146603  0  1.037469  0  0  0.12735  0.140581  0  1.042211  0
H  H29  1  0.43609339  0.24572046  0.14199037  1  0  0.134458  0  0.979403  0  0  0.143168  0  1.040091  0  0  0.146623  0  1.037444  0  0  0.127361  0.140606  0  1.042185  0
H  H30  1  0.56390880  0.74571603  0.64199136  1  0  0.134444  0  0.979422  0  0  0.143143  0  1.040124  0  0  0.146597  0  1.037476  0  0  0.127343  0.140581  0  1.04222  0
H  H31  1  0.56390740  0.75428327  0.85801118  1  0  0.134467  0  0.979425  0  0  0.143157  0  1.040139  0  0  0.146614  0  1.037493  0  0  0.127342  0.140593  0  1.04223  0
H  H32  1  0.08587719  0.37274730  0.56050524  1  0  0.100145  0  0.930891  0  0  0.109826  0  0.993344  0  0  0.11269  0  0.989888  0  0  0.13966  0.107702  0  0.995873  0
H  H33  1  0.08587549  0.12725247  0.93949475  1  0  0.100148  0  0.930886  0  0  0.109829  0  0.993341  0  0  0.112692  0  0.989886  0  0  0.139656  0.1077  0  0.995869  0
H  H34  1  0.91412496  0.62725231  0.43949526  1  0  0.100136  0  0.93089  0  0  0.10982  0  0.993338  0  0  0.112683  0  0.989884  0  0  0.139654  0.107695  0  0.995863  0
H  H35  1  0.91412666  0.87274851  0.06050610  1  0  0.100112  0  0.930936  0  0  0.109794  0  0.993392  0  0  0.112657  0  0.989937  0  0  0.139647  0.107673  0  0.995917  0
H  H36  1  0.64183933  0.34912446  0.42980289  1  0  0.13073  0  0.939879  0  0  0.140346  0  0.998295  0  0  0.144132  0  0.995526  0  0  0.117532  0.137584  0  1.000409  0
H  H37  1  0.64183786  0.15087551  0.07019915  1  0  0.130728  0  0.93987  0  0  0.140371  0  0.998253  0  0  0.144157  0  0.995483  0  0  0.117538  0.137606  0  1.000369  0
H  H38  1  0.35816690  0.65087240  0.57019692  1  0  0.130797  0  0.939904  0  0  0.140414  0  0.998307  0  0  0.144201  0  0.995536  0  0  0.117549  0.137649  0  1.000426  0
H  H39  1  0.35816701  0.84912753  0.92980282  1  0  0.130805  0  0.939906  0  0  0.140425  0  0.998311  0  0  0.144212  0  0.99554  0  0  0.117547  0.137662  0  1.000429  0
H  H40  1  0.17198825  0.50964940  0.53689730  1  0  0.099085  0  0.944759  0  0  0.111887  0  1.001062  0  0  0.114613  0  0.99982  0  0  0.108528  0.109859  0  1.002123  0
H  H41  1  0.17198862  0.99035045  0.96310124  1  0  0.09912  0  0.944686  0  0  0.111909  0  1.001006  0  0  0.114634  0  0.999764  0  0  0.108548  0.109874  0  1.002071  0
H  H42  1  0.82801798  0.49034815  0.46310209  1  0  0.099095  0  0.9447  0  0  0.111886  0  1.001021  0  0  0.114612  0  0.999779  0  0  0.108506  0.109851  0  1.002088  0
H  H43  1  0.82801625  0.00965260  0.03689894  1  0  0.099081  0  0.944725  0  0  0.111869  0  1.001049  0  0  0.114595  0  0.999806  0  0  0.108513  0.10983  0  1.002122  0
H  H44  1  0.92516340  0.01161255  0.74155407  1  0  0.111088  0  0.955788  0  0  0.123431  0  1.012874  0  0  0.12597  0  1.011625  0  0  0.122837  0.121599  0  1.013871  0
H  H45  1  0.92516251  0.48838626  0.75844499  1  0  0.111054  0  0.955797  0  0  0.123394  0  1.012886  0  0  0.125932  0  1.011637  0  0  0.12282  0.12156  0  1.013886  0
H  H46  1  0.07483331  0.98838435  0.25844276  1  0  0.110995  0  0.955855  0  0  0.123356  0  1.012927  0  0  0.125894  0  1.011679  0  0  0.122812  0.121526  0  1.013928  0
H  H47  1  0.07483692  0.51161541  0.24155603  1  0  0.111037  0  0.955864  0  0  0.123402  0  1.012922  0  0  0.125941  0  1.011674  0  0  0.122851  0.12157  0  1.013923  0
C  C48  1  0.84119484  0.07746676  0.64187196  1  0  0.015808  0  3.723  0  0  -0.017823  0  3.982702  0  0  -0.015379  0  4.002521  0  0  0.004697  -0.019459  0  3.96939  0
C  C49  1  0.84119376  0.42253270  0.85812728  1  0  0.015806  0  3.722997  0  0  -0.017843  0  3.982694  0  0  -0.015398  0  4.002511  0  0  0.004708  -0.019485  0  3.96939  0
C  C50  1  0.15880323  0.92253014  0.35812547  1  0  0.015697  0  3.723112  0  0  -0.017952  0  3.98282  0  0  -0.015508  0  4.002638  0  0  0.004659  -0.019586  0  3.969506  0
C  C51  1  0.15880566  0.57746966  0.14187392  1  0  0.015678  0  3.72306  0  0  -0.01796  0  3.982761  0  0  -0.015515  0  4.002578  0  0  0.004626  -0.019593  0  3.969447  0
C  C52  1  0.11868147  0.11964948  0.62138934  1  0  0.185104  0  3.600024  0  0  0.123175  0  3.862062  0  0  0.138116  0  3.87192  0  0  0.15336  0.113546  0  3.855138  0
C  C53  1  0.11868030  0.38035031  0.87861066  1  0  0.185117  0  3.600053  0  0  0.123175  0  3.862103  0  0  0.138123  0  3.871956  0  0  0.153326  0.113555  0  3.855167  0
C  C54  1  0.88131660  0.88035082  0.37861075  1  0  0.185051  0  3.599943  0  0  0.123106  0  3.861997  0  0  0.138047  0  3.871853  0  0  0.153343  0.113489  0  3.855056  0
C  C55  1  0.88131776  0.61964930  0.12138925  1  0  0.185081  0  3.599897  0  0  0.123167  0  3.861941  0  0  0.13811  0  3.871798  0  0  0.153352  0.113548  0  3.855008  0
C  C56  1  0.28645003  0.05963837  0.72457299  1  0  0.158818  0  3.748308  0  0  0.146863  0  3.99558  0  0  0.151308  0  4.017727  0  0  0.097291  0.143712  0  3.980755  0
C  C57  1  0.28644767  0.44036151  0.77542641  1  0  0.158865  0  3.748291  0  0  0.146957  0  3.995501  0  0  0.151404  0  4.017649  0  0  0.097355  0.143799  0  3.980691  0
C  C58  1  0.71354940  0.94035989  0.27542538  1  0  0.158944  0  3.748474  0  0  0.147034  0  3.995671  0  0  0.151477  0  4.017822  0  0  0.097369  0.143878  0  3.980855  0
C  C59  1  0.71355040  0.55963948  0.22457385  1  0  0.158906  0  3.748351  0  0  0.146958  0  3.99561  0  0  0.151403  0  4.017761  0  0  0.097329  0.1438  0  3.980793  0
C  C60  1  0.36284888  0.97162219  0.71128606  1  0  -0.096708  0  3.693938  0  0  -0.080863  0  3.928006  0  0  -0.085713  0  3.94705  0  0  -0.00503  -0.077702  0  3.915239  0
C  C61  1  0.36284706  0.52837772  0.78871487  1  0  -0.096861  0  3.694002  0  0  -0.081055  0  3.928111  0  0  -0.085908  0  3.947154  0  0  -0.005116  -0.077899  0  3.915354  0
C  C62  1  0.63715054  0.02837673  0.28871427  1  0  -0.096935  0  3.694131  0  0  -0.081087  0  3.928189  0  0  -0.085938  0  3.947234  0  0  -0.00509  -0.077925  0  3.915425  0
C  C63  1  0.63715236  0.47162257  0.21128581  1  0  -0.096879  0  3.694095  0  0  -0.081007  0  3.928148  0  0  -0.085859  0  3.947192  0  0  -0.005075  -0.077847  0  3.915387  0
C  C64  1  0.51174516  0.96195761  0.76058151  1  0  -0.078191  0  3.74828  0  0  -0.098152  0  3.996257  0  0  -0.100695  0  4.017754  0  0  -0.084498  -0.096456  0  3.981756  0
C  C65  1  0.51174475  0.53804171  0.73941805  1  0  -0.078173  0  3.748095  0  0  -0.098125  0  3.996081  0  0  -0.100667  0  4.017577  0  0  -0.084497  -0.096417  0  3.981573  0
C  C66  1  0.48825427  0.03804064  0.23941745  1  0  -0.078091  0  3.748173  0  0  -0.098072  0  3.996151  0  0  -0.100613  0  4.017647  0  0  -0.08452  -0.096367  0  3.981637  0
C  C67  1  0.48825468  0.46195859  0.26058263  1  0  -0.078132  0  3.748254  0  0  -0.09812  0  3.99624  0  0  -0.100662  0  4.017739  0  0  -0.084535  -0.096414  0  3.98174  0
C  C68  1  0.58788783  0.03759746  0.81719326  1  0  -0.074246  0  3.757982  0  0  -0.101269  0  4.014159  0  0  -0.101296  0  4.035036  0  0  -0.085502  -0.101107  0  4.000066  0
C  C69  1  0.58788965  0.46240185  0.68280716  1  0  -0.074218  0  3.757977  0  0  -0.101234  0  4.014168  0  0  -0.10126  0  4.035039  0  0  -0.085466  -0.101077  0  4.000074  0
C  C70  1  0.41211024  0.96240010  0.18280553  1  0  -0.074379  0  3.758051  0  0  -0.101378  0  4.014253  0  0  -0.101399  0  4.035132  0  0  -0.085489  -0.101216  0  4.000159  0
C  C71  1  0.41211114  0.53759842  0.31719471  1  0  -0.074249  0  3.758019  0  0  -0.101249  0  4.014208  0  0  -0.101277  0  4.035082  0  0  -0.085461  -0.10109  0  4.000115  0
C  C72  1  0.51370160  0.12530215  0.82782000  1  0  -0.042455  0  3.758719  0  0  -0.01884  0  3.990651  0  0  -0.025654  0  4.013496  0  0  -0.014619  -0.014557  0  3.975394  0
C  C73  1  0.51370188  0.37469920  0.67218035  1  0  -0.042503  0  3.758832  0  0  -0.018932  0  3.990821  0  0  -0.025738  0  4.013653  0  0  -0.014652  -0.014646  0  3.975561  0
C  C74  1  0.48629919  0.87469748  0.17217932  1  0  -0.042395  0  3.758681  0  0  -0.018859  0  3.990704  0  0  -0.025687  0  4.013568  0  0  -0.014694  -0.014575  0  3.975448  0
C  C75  1  0.48629890  0.62530109  0.32782033  1  0  -0.042502  0  3.758758  0  0  -0.018936  0  3.990767  0  0  -0.025743  0  4.013601  0  0  -0.014658  -0.014647  0  3.975501  0
C  C76  1  0.35939185  0.13505312  0.78240985  1  0  -0.139733  0  3.727191  0  0  -0.174556  0  3.983106  0  0  -0.17579  0  4.001768  0  0  -0.079707  -0.173553  0  3.970596  0
C  C77  1  0.35939345  0.36494678  0.71759015  1  0  -0.139723  0  3.727144  0  0  -0.174531  0  3.983053  0  0  -0.175769  0  4.001713  0  0  -0.079678  -0.17352  0  3.970538  0
C  C78  1  0.64060758  0.86494581  0.21758989  1  0  -0.139757  0  3.72726  0  0  -0.174578  0  3.983194  0  0  -0.175807  0  4.001861  0  0  -0.079666  -0.173569  0  3.970677  0
C  C79  1  0.64060870  0.63505352  0.28240993  1  0  -0.139737  0  3.727168  0  0  -0.174548  0  3.983096  0  0  -0.175784  0  4.001756  0  0  -0.079681  -0.173538  0  3.970575  0
C  C80  1  0.59447800  0.20923728  0.88649216  1  0  0.632467  0  3.937013  0  0  0.585386  0  4.227223  0  0  0.619369  0  4.219805  0  0  0.19478  0.562403  0  4.231426  0
C  C81  1  0.59447951  0.29076273  0.61350843  1  0  0.632492  0  3.936973  0  0  0.585417  0  4.227192  0  0  0.619398  0  4.219775  0  0  0.194792  0.562438  0  4.231391  0
C  C82  1  0.40552143  0.79076096  0.11350740  1  0  0.632591  0  3.936939  0  0  0.585546  0  4.227129  0  0  0.619534  0  4.219711  0  0  0.19486  0.562559  0  4.231339  0
C  C83  1  0.40552264  0.70923758  0.38649165  1  0  0.632528  0  3.936983  0  0  0.585447  0  4.227224  0  0  0.61943  0  4.219805  0  0  0.194769  0.562458  0  4.231432  0
C  C84  1  0.29695273  0.88911042  0.64467623  1  0  0.641748  0  3.947028  0  0  0.590886  0  4.24964  0  0  0.624893  0  4.241318  0  0  0.197988  0.567809  0  4.254478  0
C  C85  1  0.29695104  0.61088877  0.85532512  1  0  0.641941  0  3.946804  0  0  0.591089  0  4.249397  0  0  0.625098  0  4.241069  0  0  0.198041  0.568013  0  4.25424  0
C  C86  1  0.70304670  0.11088781  0.35532393  1  0  0.641887  0  3.946941  0  0  0.591016  0  4.249546  0  0  0.625024  0  4.241221  0  0  0.198011  0.567929  0  4.254399  0
C  C87  1  0.70304703  0.38911015  0.14467581  1  0  0.641782  0  3.946975  0  0  0.590906  0  4.249597  0  0  0.624913  0  4.241272  0  0  0.197976  0.567819  0  4.254451  0
C  C88  1  0.18743677  0.19988868  0.40635943  1  0  0.01884  0  3.737046  0  0  -0.012318  0  3.995769  0  0  -0.011316  0  4.017045  0  0  0.004761  -0.013028  0  3.981458  0
C  C89  1  0.18743831  0.30011110  0.09364023  1  0  0.018792  0  3.737124  0  0  -0.012354  0  3.995852  0  0  -0.011353  0  4.017129  0  0  0.004745  -0.013063  0  3.981547  0
C  C90  1  0.81256266  0.80010955  0.59364073  1  0  0.018717  0  3.737034  0  0  -0.012468  0  3.995762  0  0  -0.011453  0  4.017047  0  0  0.004722  -0.013173  0  3.981448  0
C  C91  1  0.81256112  0.69989057  0.90636079  1  0  0.018802  0  3.737071  0  0  -0.01235  0  3.995814  0  0  -0.011341  0  4.017096  0  0  0.004747  -0.013062  0  3.981504  0
C  C92  1  0.32018929  0.26083919  0.39926897  1  0  -0.057051  0  3.641612  0  0  -0.099167  0  3.894742  0  0  -0.098181  0  3.913752  0  0  0.006272  -0.099787  0  3.882045  0
C  C93  1  0.32018935  0.23916066  0.10073009  1  0  -0.057085  0  3.641665  0  0  -0.099203  0  3.894795  0  0  -0.098217  0  3.913806  0  0  0.006265  -0.099834  0  3.882111  0
C  C94  1  0.67981286  0.73915767  0.60073084  1  0  -0.056968  0  3.641555  0  0  -0.09907  0  3.894676  0  0  -0.098082  0  3.913684  0  0  0.006327  -0.099704  0  3.881993  0
C  C95  1  0.67981144  0.76084238  0.89927128  1  0  -0.057002  0  3.641562  0  0  -0.099109  0  3.89469  0  0  -0.098128  0  3.913705  0  0  0.00631  -0.09973  0  3.881992  0
C  C96  1  0.14025670  0.32416551  0.50597820  1  0  0.171999  0  3.633567  0  0  0.109852  0  3.896994  0  0  0.123353  0  3.909499  0  0  0.147538  0.101174  0  3.8882  0
C  C97  1  0.14025643  0.17583499  0.99402137  1  0  0.171955  0  3.633564  0  0  0.109814  0  3.897001  0  0  0.123315  0  3.909506  0  0  0.147554  0.101151  0  3.888189  0
C  C98  1  0.85974409  0.67583411  0.49402171  1  0  0.171994  0  3.633647  0  0  0.109853  0  3.897076  0  0  0.123354  0  3.909583  0  0  0.147543  0.101179  0  3.888271  0
C  C99  1  0.85974436  0.82416668  0.00597966  1  0  0.17204  0  3.63369  0  0  0.109904  0  3.89714  0  0  0.123408  0  3.909643  0  0  0.147536  0.101229  0  3.888337  0
C  C100  1  0.39532650  0.42088495  0.48116701  1  0  0.168131  0  3.784035  0  0  0.158676  0  4.035444  0  0  0.16294  0  4.059341  0  0  0.09663  0.155753  0  4.019278  0
C  C101  1  0.39532628  0.07911561  0.01883341  1  0  0.168079  0  3.784057  0  0  0.158665  0  4.035407  0  0  0.162929  0  4.059305  0  0  0.096621  0.155743  0  4.019235  0
C  C102  1  0.60467700  0.57911259  0.51883357  1  0  0.168018  0  3.784329  0  0  0.158599  0  4.035679  0  0  0.162862  0  4.059577  0  0  0.096539  0.155683  0  4.0195  0
C  C103  1  0.60467723  0.92088744  0.98116736  1  0  0.168011  0  3.784394  0  0  0.158597  0  4.035719  0  0  0.16286  0  4.059617  0  0  0.096544  0.155676  0  4.019551  0
C  C104  1  0.57936412  0.41526604  0.45934537  1  0  -0.106578  0  3.704265  0  0  -0.127905  0  3.956311  0  0  -0.130398  0  3.976002  0  0  -0.076449  -0.126159  0  3.942987  0
C  C105  1  0.57936390  0.08473390  0.04065608  1  0  -0.106615  0  3.704237  0  0  -0.127968  0  3.956262  0  0  -0.130461  0  3.975955  0  0  -0.076465  -0.126219  0  3.942935  0
C  C106  1  0.42063803  0.58473081  0.54065504  1  0  -0.10665  0  3.704456  0  0  -0.127979  0  3.956473  0  0  -0.130473  0  3.976167  0  0  -0.076481  -0.126231  0  3.943146  0
C  C107  1  0.42063825  0.91526915  0.95934470  1  0  -0.106731  0  3.704467  0  0  -0.128078  0  3.956501  0  0  -0.130572  0  3.976195  0  0  -0.076516  -0.126334  0  3.943179  0
C  C108  1  0.31631166  0.50520019  0.52149279  1  0  -0.133561  0  3.754717  0  0  -0.154793  0  4.009832  0  0  -0.158066  0  4.030708  0  0  -0.084933  -0.152506  0  3.995723  0
C  C109  1  0.31631203  0.99479972  0.97850635  1  0  -0.133497  0  3.754601  0  0  -0.154729  0  4.009701  0  0  -0.158  0  4.030577  0  0  -0.084914  -0.152431  0  3.99559  0
C  C110  1  0.68369185  0.49479804  0.47850737  1  0  -0.133563  0  3.754819  0  0  -0.154794  0  4.009918  0  0  -0.158064  0  4.030793  0  0  -0.084876  -0.152504  0  3.995811  0
C  C111  1  0.68369148  0.00520196  0.02149349  1  0  -0.133489  0  3.754844  0  0  -0.154728  0  4.009944  0  0  -0.157998  0  4.03082  0  0  -0.084883  -0.152433  0  3.995843  0
C  C112  1  0.95238450  0.04720521  0.69478258  1  0  -0.06178  0  3.684921  0  0  -0.104325  0  3.947328  0  0  -0.103665  0  3.966517  0  0  0.000451  -0.104807  0  3.93452  0
C  C113  1  0.95238215  0.45279498  0.80521683  1  0  -0.061716  0  3.684869  0  0  -0.104246  0  3.947273  0  0  -0.103585  0  3.966464  0  0  0.00048  -0.104719  0  3.934466  0
C  C114  1  0.04761221  0.95279168  0.30521485  1  0  -0.06156  0  3.684915  0  0  -0.104109  0  3.947307  0  0  -0.10345  0  3.966498  0  0  0.000491  -0.104598  0  3.934511  0
C  C115  1  0.04761456  0.54720736  0.19478497  1  0  -0.06162  0  3.684873  0  0  -0.104155  0  3.947258  0  0  -0.103496  0  3.966452  0  0  0.00048  -0.104631  0  3.934446  0
N  N116  1  0.94675486  0.12218533  0.59654864  1  0  -0.37343  0  3.294643  0  0  -0.291717  0  3.591552  0  0  -0.311535  0  3.602586  0  0  -0.353747  -0.278325  0  3.583805  0
N  N117  1  0.94675367  0.37781556  0.90345035  1  0  -0.373474  0  3.294719  0  0  -0.291732  0  3.591601  0  0  -0.311551  0  3.602633  0  0  -0.353739  -0.278341  0  3.583851  0
N  N118  1  0.05324457  0.87781567  0.40345043  1  0  -0.373478  0  3.294677  0  0  -0.291747  0  3.591579  0  0  -0.311565  0  3.602612  0  0  -0.353767  -0.278355  0  3.583821  0
N  N119  1  0.05324439  0.62218544  0.09654931  1  0  -0.373471  0  3.294703  0  0  -0.291762  0  3.591613  0  0  -0.31158  0  3.602645  0  0  -0.353754  -0.278378  0  3.583868  0
N  N120  1  0.12664248  0.07461579  0.68123588  1  0  -0.084117  0  3.627693  0  0  0.004952  0  3.840802  0  0  -0.009827  0  3.866693  0  0  -0.226522  0.014724  0  3.823187  0
N  N121  1  0.12664143  0.42538333  0.81876334  1  0  -0.084115  0  3.627671  0  0  0.004919  0  3.84081  0  0  -0.009862  0  3.866701  0  0  -0.22655  0.014687  0  3.823203  0
N  N122  1  0.87335423  0.92538315  0.31876326  1  0  -0.084179  0  3.627677  0  0  0.004865  0  3.840812  0  0  -0.009913  0  3.866703  0  0  -0.22655  0.014632  0  3.823202  0
N  N123  1  0.87335664  0.57461629  0.18123657  1  0  -0.084104  0  3.62754  0  0  0.004914  0  3.840713  0  0  -0.00987  0  3.866611  0  0  -0.226523  0.014683  0  3.8231  0
N  N124  1  0.07677347  0.24015997  0.47281501  1  0  -0.364471  0  3.306816  0  0  -0.284467  0  3.601451  0  0  -0.303104  0  3.613386  0  0  -0.350286  -0.271866  0  3.593168  0
N  N125  1  0.07677361  0.25984115  0.02718439  1  0  -0.364343  0  3.306843  0  0  -0.284371  0  3.601496  0  0  -0.303007  0  3.613434  0  0  -0.350282  -0.271772  0  3.593208  0
N  N126  1  0.92322595  0.75984035  0.52718447  1  0  -0.36442  0  3.306852  0  0  -0.284425  0  3.601498  0  0  -0.303062  0  3.61343  0  0  -0.35029  -0.271823  0  3.593205  0
N  N127  1  0.92322446  0.74016053  0.97281604  1  0  -0.364332  0  3.306853  0  0  -0.284405  0  3.601565  0  0  -0.303042  0  3.613498  0  0  -0.350217  -0.2718  0  3.593274  0
N  N128  1  0.28870281  0.33973159  0.46282087  1  0  -0.082896  0  3.604673  0  0  0.006143  0  3.817191  0  0  -0.00857  0  3.843444  0  0  -0.221918  0.015933  0  3.799224  0
N  N129  1  0.28870274  0.16026892  0.03717956  1  0  -0.082867  0  3.604677  0  0  0.006163  0  3.817174  0  0  -0.008549  0  3.843426  0  0  -0.221913  0.015951  0  3.799204  0
N  N130  1  0.71130206  0.66026664  0.53717988  1  0  -0.082919  0  3.604723  0  0  0.006099  0  3.817243  0  0  -0.008615  0  3.843497  0  0  -0.221927  0.015888  0  3.799275  0
N  N131  1  0.71130077  0.83973412  0.96282181  1  0  -0.083002  0  3.604767  0  0  0.006051  0  3.817257  0  0  -0.008663  0  3.843512  0  0  -0.221916  0.01584  0  3.799293  0
O  O132  1  0.51642071  0.28527960  0.89887900  1  0  -0.608922  0  1.886437  0  0  -0.564828  0  2.102597  0  0  -0.587073  0  2.093485  0  0  -0.323956  -0.549372  0  2.108408  0
O  O133  1  0.51642072  0.21472038  0.60112100  1  0  -0.608944  0  1.886383  0  0  -0.564844  0  2.102543  0  0  -0.587091  0  2.093433  0  0  -0.323962  -0.549386  0  2.10835  0
O  O134  1  0.48358007  0.71471864  0.10112116  1  0  -0.608961  0  1.886347  0  0  -0.56487  0  2.1025  0  0  -0.587117  0  2.093386  0  0  -0.323952  -0.549405  0  2.108311  0
O  O135  1  0.48358007  0.78528063  0.39887747  1  0  -0.608892  0  1.886393  0  0  -0.564775  0  2.102551  0  0  -0.587023  0  2.093443  0  0  -0.323872  -0.549313  0  2.108357  0
O  O136  1  0.74692568  0.19573337  0.92061605  1  0  -0.662228  0  2.049539  0  0  -0.592326  0  2.324914  0  0  -0.621596  0  2.31028  0  0  -0.340355  -0.571758  0  2.334129  0
O  O137  1  0.74692587  0.30426672  0.57938396  1  0  -0.662209  0  2.049556  0  0  -0.592305  0  2.324928  0  0  -0.621574  0  2.310293  0  0  -0.340344  -0.571737  0  2.334138  0
O  O138  1  0.25307647  0.80426488  0.07938292  1  0  -0.662262  0  2.049647  0  0  -0.592368  0  2.325025  0  0  -0.621634  0  2.310378  0  0  -0.340374  -0.5718  0  2.334248  0
O  O139  1  0.25307628  0.69573495  0.42061707  1  0  -0.662314  0  2.049583  0  0  -0.592426  0  2.324998  0  0  -0.62169  0  2.310346  0  0  -0.340416  -0.571862  0  2.334222  0
O  O140  1  0.24556288  0.90872780  0.57742605  1  0  -0.639056  0  2.06622  0  0  -0.568703  0  2.341529  0  0  -0.59706  0  2.324782  0  0  -0.333017  -0.548757  0  2.35219  0
O  O141  1  0.24555975  0.59127001  0.92257376  1  0  -0.639117  0  2.066205  0  0  -0.568757  0  2.341496  0  0  -0.597114  0  2.324747  0  0  -0.333052  -0.548809  0  2.352156  0
O  O142  1  0.75443791  0.09127044  0.42257351  1  0  -0.639051  0  2.066173  0  0  -0.568689  0  2.34147  0  0  -0.597047  0  2.324725  0  0  -0.33302  -0.548731  0  2.352121  0
O  O143  1  0.75443696  0.40872891  0.07742657  1  0  -0.639053  0  2.066207  0  0  -0.568694  0  2.341514  0  0  -0.597052  0  2.324767  0  0  -0.333011  -0.54874  0  2.352174  0
O  O144  1  0.30075160  0.81144384  0.65707012  1  0  -0.605903  0  1.897519  0  0  -0.567079  0  2.11168  0  0  -0.588241  0  2.101282  0  0  -0.328212  -0.552134  0  2.1183  0
O  O145  1  0.30075279  0.68855604  0.84293080  1  0  -0.605958  0  1.897375  0  0  -0.567132  0  2.111534  0  0  -0.588297  0  2.101135  0  0  -0.32819  -0.552177  0  2.118146  0
O  O146  1  0.69924647  0.18855440  0.34292944  1  0  -0.60597  0  1.897527  0  0  -0.567142  0  2.111676  0  0  -0.588304  0  2.101275  0  0  -0.32822  -0.552189  0  2.118297  0
O  O147  1  0.69924936  0.31144492  0.15707124  1  0  -0.605885  0  1.897494  0  0  -0.567067  0  2.111667  0  0  -0.588229  0  2.101268  0  0  -0.328201  -0.552111  0  2.118285  0
