# generated using pymatgen
data_GdH14C11NO8
_symmetry_space_group_name_H-M   'P 1'
_cell_length_a   8.38691583
_cell_length_b   11.87354048
_cell_length_c   13.34480000
_cell_angle_alpha   90.00000000
_cell_angle_beta   90.00000000
_cell_angle_gamma   96.27948710
_symmetry_Int_Tables_number   1
_chemical_formula_structural   GdH14C11NO8
_chemical_formula_sum   'Gd4 H56 C44 N4 O32'
_cell_volume   1320.93380137
_cell_formula_units_Z   4
loop_
 _symmetry_equiv_pos_site_id
 _symmetry_equiv_pos_as_xyz
  1  'x, y, z'
loop_
 _atom_site_type_symbol
 _atom_site_label
 _atom_site_symmetry_multiplicity
 _atom_site_fract_x
 _atom_site_fract_y
 _atom_site_fract_z
 _atom_site_occupancy
 _atom_site_hle17_bader_spin_density
 _atom_site_hle17_ddec_charge
 _atom_site_hle17_ddec_spin_density
 _atom_site_hle17_ddec_sum_bond_order
 _atom_site_hle17_magmom
 _atom_site_hse06_10hf_bader_spin_density
 _atom_site_hse06_10hf_ddec_charge
 _atom_site_hse06_10hf_ddec_spin_density
 _atom_site_hse06_10hf_ddec_sum_bond_order
 _atom_site_hse06_10hf_magmom
 _atom_site_hse06_bader_spin_density
 _atom_site_hse06_ddec_charge
 _atom_site_hse06_ddec_spin_density
 _atom_site_hse06_ddec_sum_bond_order
 _atom_site_hse06_magmom
 _atom_site_pbe_bader_charge
 _atom_site_pbe_bader_spin_density
 _atom_site_pbe_cm5_charge
 _atom_site_pbe_ddec_charge
 _atom_site_pbe_ddec_spin_density
 _atom_site_pbe_ddec_sum_bond_order
 _atom_site_pbe_magmom
Gd  Gd0  1  0.00667500  0.33538883  0.59517865  1  0  2.169784  0  1.785499  0  0  2.061228  0  2.158433  0  0  2.117936  0  2.098842  0  2.181886  0  1.467262  2.017  0  2.206484  0
Gd  Gd1  1  0.49332636  0.66461106  0.09517865  1  0  2.169837  0  1.785464  0  0  2.061239  0  2.158442  0  0  2.117948  0  2.098849  0  2.181908  0  1.467269  2.017046  0  2.206435  0
Gd  Gd2  1  0.99332542  0.66461106  0.40482135  1  0  2.169808  0  1.78548  0  0  2.061254  0  2.158404  0  0  2.117965  0  2.09881  0  2.181888  0  1.467269  2.017043  0  2.206427  0
Gd  Gd3  1  0.50667525  0.33538883  0.90482135  1  0  2.169801  0  1.785488  0  0  2.061242  0  2.158424  0  0  2.117954  0  2.098826  0  2.181929  0  1.467271  2.017019  0  2.206469  0
H  H4  1  0.80225649  0.52346401  0.61447755  1  0  0.445241  0  0.851786  0  0  0.413819  0  0.916884  0  0  0.424753  0  0.900725  0  0.654197  0  0.303414  0.406009  0  0.928418  0
H  H5  1  0.69774298  0.47653587  0.11447755  1  0  0.445237  0  0.851795  0  0  0.413811  0  0.916898  0  0  0.424745  0  0.900739  0  0.654197  0  0.303422  0.406002  0  0.928431  0
H  H6  1  0.19774273  0.47653587  0.38552245  1  0  0.445239  0  0.851791  0  0  0.413814  0  0.916893  0  0  0.424748  0  0.900734  0  0.654255  0  0.303412  0.406005  0  0.928426  0
H  H7  1  0.30225743  0.52346401  0.88552245  1  0  0.445244  0  0.851782  0  0  0.413818  0  0.916885  0  0  0.424753  0  0.900726  0  0.654256  0  0.303415  0.406009  0  0.928418  0
H  H8  1  0.78026042  0.46976516  0.72534320  1  0  0.44915  0  0.84794  0  0  0.419905  0  0.90771  0  0  0.431188  0  0.891413  0  0.661984  0  0.301934  0.411859  0  0.919322  0
H  H9  1  0.71973905  0.53023472  0.22534320  1  0  0.449141  0  0.84796  0  0  0.41989  0  0.907736  0  0  0.431175  0  0.891435  0  0.661985  0  0.301934  0.411844  0  0.919348  0
H  H10  1  0.21973880  0.53023472  0.27465754  1  0  0.449154  0  0.847937  0  0  0.419906  0  0.907708  0  0  0.43119  0  0.891411  0  0.661987  0  0.301939  0.41186  0  0.91932  0
H  H11  1  0.28026136  0.46976516  0.77465754  1  0  0.449154  0  0.847936  0  0  0.41991  0  0.907703  0  0  0.431193  0  0.891405  0  0.661989  0  0.301942  0.411864  0  0.919315  0
H  H12  1  0.93829756  0.26340202  0.80838679  1  0  0.446037  0  0.843334  0  0  0.418868  0  0.899456  0  0  0.42969  0  0.883778  0  0.642869  0  0.305323  0.41114  0  0.910647  0
H  H13  1  0.56170310  0.73659787  0.30838679  1  0  0.446038  0  0.843331  0  0  0.418871  0  0.899451  0  0  0.429692  0  0.883772  0  0.642866  0  0.305322  0.411143  0  0.910642  0
H  H14  1  0.06170285  0.73659787  0.19161321  1  0  0.446043  0  0.843323  0  0  0.418875  0  0.899443  0  0  0.429696  0  0.883767  0  0.642866  0  0.305322  0.411147  0  0.910634  0
H  H15  1  0.43829731  0.26340202  0.69161321  1  0  0.446043  0  0.843324  0  0  0.418875  0  0.899445  0  0  0.429696  0  0.883767  0  0.642869  0  0.305321  0.411146  0  0.910637  0
H  H16  1  0.12694522  0.25308115  0.79868038  1  0  0.448888  0  0.84732  0  0  0.417706  0  0.910992  0  0  0.429331  0  0.894101  0  0.653867  0  0.302684  0.409408  0  0.923034  0
H  H17  1  0.37305494  0.74691874  0.29868038  1  0  0.44889  0  0.847314  0  0  0.417706  0  0.910989  0  0  0.429331  0  0.894099  0  0.65387  0  0.302685  0.409408  0  0.923031  0
H  H18  1  0.87305519  0.74691874  0.20131962  1  0  0.448897  0  0.847308  0  0  0.417712  0  0.910984  0  0  0.429338  0  0.894093  0  0.65387  0  0.302687  0.409414  0  0.923026  0
H  H19  1  0.62694428  0.25308115  0.70131962  1  0  0.448884  0  0.847323  0  0  0.4177  0  0.910999  0  0  0.429326  0  0.894108  0  0.653871  0  0.302684  0.409402  0  0.923041  0
H  H20  1  0.15444568  0.19842232  0.37965724  1  0  0.07063  0  0.962424  0  0  0.079533  0  1.026898  0  0  0.082125  0  1.024746  0  0.099748  0  0.114517  0.077631  0  1.028492  0
H  H21  1  0.34555435  0.80157672  0.87965724  1  0  0.070613  0  0.962432  0  0  0.079514  0  1.026908  0  0  0.082106  0  1.024756  0  0.099718  0  0.114507  0.077612  0  1.028502  0
H  H22  1  0.84555473  0.80157757  0.62034276  1  0  0.070584  0  0.962464  0  0  0.079527  0  1.026892  0  0  0.08212  0  1.024739  0  0.099756  0  0.114509  0.077625  0  1.028486  0
H  H23  1  0.65444487  0.19842317  0.12034276  1  0  0.070631  0  0.962423  0  0  0.079537  0  1.026892  0  0  0.082129  0  1.02474  0  0.099737  0  0.114514  0.077635  0  1.028486  0
H  H24  1  0.05856209  0.05049269  0.25257104  1  0  0.11286  0  0.952574  0  0  0.123777  0  1.010161  0  0  0.126608  0  1.009901  0  0.113188  0  0.110286  0.121745  0  1.010495  0
H  H25  1  0.44143913  0.94950634  0.75257104  1  0  0.112882  0  0.952581  0  0  0.123803  0  1.010165  0  0  0.126633  0  1.009905  0  0.113195  0  0.110294  0.12177  0  1.010498  0
H  H26  1  0.94143938  0.94950634  0.74742896  1  0  0.11287  0  0.952591  0  0  0.12379  0  1.010173  0  0  0.12662  0  1.009913  0  0.113191  0  0.110292  0.121757  0  1.010506  0
H  H27  1  0.55856009  0.05049354  0.24742896  1  0  0.112879  0  0.95258  0  0  0.1238  0  1.010161  0  0  0.126631  0  1.009901  0  0.113196  0  0.110296  0.121768  0  1.010495  0
H  H28  1  0.80496541  0.92669469  0.28505635  1  0  0.110382  0  0.952646  0  0  0.119218  0  1.013124  0  0  0.122916  0  1.010061  0  0.134582  0  0.115739  0.116425  0  1.015577  0
H  H29  1  0.69503525  0.07330519  0.78505560  1  0  0.11039  0  0.952641  0  0  0.119224  0  1.013117  0  0  0.122922  0  1.010054  0  0.134571  0  0.115738  0.116432  0  1.01557  0
H  H30  1  0.19503500  0.07330519  0.71494365  1  0  0.110384  0  0.952669  0  0  0.119223  0  1.013145  0  0  0.12292  0  1.010082  0  0.134579  0  0.115747  0.11643  0  1.015598  0
H  H31  1  0.30496516  0.92669469  0.21494440  1  0  0.110384  0  0.952648  0  0  0.119217  0  1.013128  0  0  0.122915  0  1.010064  0  0.134576  0  0.115736  0.116425  0  1.01558  0
H  H32  1  0.65005789  0.95888333  0.44380208  1  0  0.127887  0  0.963191  0  0  0.132224  0  1.030023  0  0  0.136561  0  1.027091  0  0.153267  0  0.110909  0.129069  0  1.032315  0
H  H33  1  0.84994277  0.04111656  0.94380283  1  0  0.12789  0  0.963185  0  0  0.132228  0  1.030022  0  0  0.136565  0  1.027091  0  0.153263  0  0.110908  0.129074  0  1.032315  0
H  H34  1  0.34994252  0.04111656  0.55619792  1  0  0.127903  0  0.963165  0  0  0.13224  0  1.030002  0  0  0.136578  0  1.02707  0  0.153306  0  0.110921  0.129084  0  1.032294  0
H  H35  1  0.15005645  0.95888333  0.05619792  1  0  0.127889  0  0.963147  0  0  0.132204  0  1.030004  0  0  0.136541  0  1.027073  0  0.153249  0  0.110915  0.129052  0  1.032291  0
H  H36  1  0.52288047  0.22762171  0.50171453  1  0  0.113612  0  0.935698  0  0  0.131033  0  0.989778  0  0  0.132776  0  0.989963  0  0.06512  0  0.108729  0.129757  0  0.9898  0
H  H37  1  0.97712033  0.77237902  0.00171378  1  0  0.113546  0  0.93569  0  0  0.131056  0  0.989682  0  0  0.132799  0  0.989867  0  0.065119  0  0.108749  0.129779  0  0.989705  0
H  H38  1  0.47711888  0.77237902  0.49828547  1  0  0.113529  0  0.935727  0  0  0.131059  0  0.989713  0  0  0.132804  0  0.989899  0  0.065114  0  0.108749  0.129784  0  0.989735  0
H  H39  1  0.02287889  0.22762086  0.99828622  1  0  0.113583  0  0.935685  0  0  0.13104  0  0.989738  0  0  0.132784  0  0.989925  0  0.065108  0  0.108732  0.129763  0  0.989761  0
H  H40  1  0.56953902  0.37262055  0.52489659  1  0  0.122114  0  0.914351  0  0  0.13945  0  0.967453  0  0  0.142016  0  0.966572  0  0.091573  0  0.114364  0.137553  0  0.968301  0
H  H41  1  0.93046164  0.62737934  0.02489659  1  0  0.122121  0  0.914331  0  0  0.13945  0  0.96745  0  0  0.142016  0  0.96657  0  0.091575  0  0.11436  0.137553  0  0.968299  0
H  H42  1  0.43046152  0.62738018  0.47510416  1  0  0.122096  0  0.914308  0  0  0.139441  0  0.96744  0  0  0.142011  0  0.966564  0  0.091598  0  0.114346  0.137546  0  0.968288  0
H  H43  1  0.06953877  0.37262055  0.97510341  1  0  0.122117  0  0.914352  0  0  0.139449  0  0.967466  0  0  0.142021  0  0.966588  0  0.09158  0  0.114359  0.137553  0  0.968314  0
H  H44  1  0.47807854  0.41503855  0.34710974  1  0  0.077126  0  0.924036  0  0  0.095796  0  0.981589  0  0  0.097167  0  0.981572  0  0.052163  0  0.097821  0.094707  0  0.981776  0
H  H45  1  0.02192162  0.58496134  0.84710974  1  0  0.077125  0  0.924037  0  0  0.095807  0  0.981581  0  0  0.097179  0  0.981561  0  0.052161  0  0.097818  0.094718  0  0.981768  0
H  H46  1  0.52192187  0.58496134  0.65289026  1  0  0.077123  0  0.924042  0  0  0.095806  0  0.98158  0  0  0.097178  0  0.98156  0  0.05216  0  0.097818  0.094716  0  0.981768  0
H  H47  1  0.97807879  0.41503855  0.15289026  1  0  0.077129  0  0.924033  0  0  0.095799  0  0.981584  0  0  0.09717  0  0.981567  0  0.052163  0  0.097824  0.09471  0  0.981772  0
H  H48  1  0.43128790  0.26793164  0.32725106  1  0  0.064683  0  0.93372  0  0  0.085722  0  0.992018  0  0  0.086141  0  0.993097  0  0.023825  0  0.092846  0.085368  0  0.991359  0
H  H49  1  0.06871345  0.73206824  0.82725106  1  0  0.064693  0  0.93371  0  0  0.08573  0  0.992013  0  0  0.086149  0  0.993093  0  0.023826  0  0.092844  0.085376  0  0.991353  0
H  H50  1  0.56871251  0.73206824  0.67274894  1  0  0.064696  0  0.933712  0  0  0.085731  0  0.992013  0  0  0.08615  0  0.993093  0  0.023828  0  0.092846  0.085377  0  0.991354  0
H  H51  1  0.93128696  0.26793164  0.17274894  1  0  0.064688  0  0.933716  0  0  0.085723  0  0.992017  0  0  0.086142  0  0.993097  0  0.02382  0  0.092841  0.08537  0  0.991358  0
H  H52  1  0.72083759  0.23861702  0.35733619  1  0  0.104104  0  0.951546  0  0  0.117264  0  1.012215  0  0  0.118332  0  1.014313  0  0.043713  0  0.099294  0.116451  0  1.010919  0
H  H53  1  0.77916188  0.76138286  0.85733619  1  0  0.104109  0  0.951546  0  0  0.117269  0  1.012216  0  0  0.118337  0  1.014314  0  0.043713  0  0.099293  0.116456  0  1.01092  0
H  H54  1  0.27916163  0.76138286  0.64266381  1  0  0.104105  0  0.95155  0  0  0.117267  0  1.01222  0  0  0.118334  0  1.014318  0  0.043712  0  0.099292  0.116453  0  1.010924  0
H  H55  1  0.22083853  0.23861702  0.14266381  1  0  0.104111  0  0.951564  0  0  0.117258  0  1.012239  0  0  0.118325  0  1.014339  0  0.043709  0  0.099291  0.116444  0  1.010943  0
H  H56  1  0.68920283  0.32607454  0.25206822  1  0  0.101679  0  0.948857  0  0  0.114014  0  1.014514  0  0  0.116349  0  1.013241  0  0.023703  0  0.101667  0.112294  0  1.015581  0
H  H57  1  0.81079784  0.67392534  0.75206822  1  0  0.101678  0  0.948866  0  0  0.114012  0  1.014525  0  0  0.116347  0  1.013252  0  0.023703  0  0.101664  0.112292  0  1.015592  0
H  H58  1  0.31079759  0.67392534  0.74793178  1  0  0.101677  0  0.948869  0  0  0.114013  0  1.014526  0  0  0.116348  0  1.013252  0  0.023703  0  0.101663  0.112293  0  1.015593  0
H  H59  1  0.18920258  0.32607454  0.24793178  1  0  0.101692  0  0.948867  0  0  0.114025  0  1.014519  0  0  0.11636  0  1.013245  0  0.023703  0  0.101665  0.112306  0  1.015585  0
C  C60  1  0.04342907  0.14331612  0.39127076  1  0  0.139447  0  3.71532  0  0  0.111331  0  3.976406  0  0  0.116674  0  3.994821  0  0.475462  0  0.04837  0.107842  0  3.963805  0
C  C61  1  0.45657096  0.85668292  0.89127001  1  0  0.139497  0  3.715394  0  0  0.111387  0  3.97647  0  0  0.116731  0  3.994884  0  0.475627  0  0.048381  0.107897  0  3.963871  0
C  C62  1  0.95657253  0.85668377  0.60872999  1  0  0.139474  0  3.715406  0  0  0.111329  0  3.976498  0  0  0.116673  0  3.994911  0  0.475477  0  0.04837  0.10784  0  3.963898  0
C  C63  1  0.54342826  0.14331696  0.10872999  1  0  0.139454  0  3.71537  0  0  0.111339  0  3.976455  0  0  0.116682  0  3.994869  0  0.475528  0  0.048366  0.10785  0  3.963853  0
C  C64  1  0.99045782  0.06094235  0.32077289  1  0  -0.108927  0  3.694903  0  0  -0.123151  0  3.94601  0  0  -0.128655  0  3.966301  0  -0.069622  0  -0.077785  -0.119639  0  3.932433  0
C  C65  1  0.50954284  0.93905753  0.82077289  1  0  -0.108997  0  3.695064  0  0  -0.123233  0  3.946173  0  0  -0.128737  0  3.966463  0  -0.069641  0  -0.077801  -0.11972  0  3.932596  0
C  C66  1  0.00954391  0.93905838  0.67922786  1  0  -0.108945  0  3.69503  0  0  -0.123174  0  3.946149  0  0  -0.128678  0  3.966438  0  -0.069661  0  -0.07777  -0.119661  0  3.932572  0
C  C67  1  0.49045758  0.06094235  0.17922711  1  0  -0.108991  0  3.695052  0  0  -0.123229  0  3.946167  0  0  -0.128733  0  3.966456  0  -0.06964  0  -0.077806  -0.119715  0  3.93259  0
C  C68  1  0.84802395  0.99187350  0.33882486  1  0  0.005816  0  3.682403  0  0  -0.015587  0  3.938588  0  0  -0.012347  0  3.954375  0  -0.012063  0  -0.057615  -0.017508  0  3.927909  0
C  C69  1  0.65197539  0.00812553  0.83882411  1  0  0.005843  0  3.682416  0  0  -0.01554  0  3.938577  0  0  -0.0123  0  3.954365  0  -0.012045  0  -0.057594  -0.017462  0  3.927898  0
C  C70  1  0.15197514  0.00812553  0.66117664  1  0  0.005854  0  3.682384  0  0  -0.015542  0  3.938551  0  0  -0.012302  0  3.954342  0  -0.012045  0  -0.057611  -0.017464  0  3.927872  0
C  C71  1  0.34802383  0.99187435  0.16117589  1  0  0.005867  0  3.682391  0  0  -0.015514  0  3.938545  0  0  -0.012274  0  3.954334  0  -0.01232  0  -0.057577  -0.017436  0  3.927867  0
C  C72  1  0.76360871  0.00827127  0.42646799  1  0  -0.105072  0  3.677312  0  0  -0.127428  0  3.927588  0  0  -0.131536  0  3.945976  0  -0.044254  0  -0.072291  -0.124785  0  3.915382  0
C  C73  1  0.73639195  0.99172862  0.92646799  1  0  -0.1051  0  3.677307  0  0  -0.12747  0  3.92759  0  0  -0.131577  0  3.945974  0  -0.044255  0  -0.072308  -0.124829  0  3.915386  0
C  C74  1  0.23638932  0.99172862  0.57353126  1  0  -0.10511  0  3.6773  0  0  -0.127485  0  3.927599  0  0  -0.131587  0  3.945972  0  -0.044291  0  -0.072336  -0.124841  0  3.915392  0
C  C75  1  0.26360608  0.00827127  0.07353201  1  0  -0.105089  0  3.677232  0  0  -0.12744  0  3.927534  0  0  -0.131546  0  3.945913  0  -0.043981  0  -0.072325  -0.1248  0  3.91533  0
C  C76  1  0.82371036  0.09370800  0.49234533  1  0  0.086397  0  3.780574  0  0  0.092216  0  4.026489  0  0  0.092323  0  4.047009  0  0.455727  0  0.108221  0.092066  0  4.012548  0
C  C77  1  0.67628924  0.90629274  0.99234458  1  0  0.086393  0  3.780522  0  0  0.092211  0  4.026449  0  0  0.092317  0  4.046969  0  0.455733  0  0.108208  0.09206  0  4.01251  0
C  C78  1  0.17628886  0.90629189  0.50765542  1  0  0.086381  0  3.780593  0  0  0.092197  0  4.0265  0  0  0.092304  0  4.04702  0  0.455724  0  0.10824  0.092047  0  4.012559  0
C  C79  1  0.32371011  0.09370800  0.00765542  1  0  0.086345  0  3.780563  0  0  0.092167  0  4.026479  0  0  0.092274  0  4.046999  0  0.455747  0  0.1082  0.092017  0  4.012539  0
C  C80  1  0.72917346  0.11729831  0.58467418  1  0  0.61348  0  3.946925  0  0  0.562854  0  4.253262  0  0  0.59525  0  4.24536  0  1.585248  0  0.210603  0.540877  0  4.257832  0
C  C81  1  0.77082601  0.88270158  0.08467493  1  0  0.613465  0  3.946914  0  0  0.562827  0  4.253277  0  0  0.595225  0  4.245375  0  1.585267  0  0.210591  0.54085  0  4.257847  0
C  C82  1  0.27082563  0.88270073  0.41532507  1  0  0.613455  0  3.946915  0  0  0.562836  0  4.25325  0  0  0.595232  0  4.245348  0  1.584742  0  0.210572  0.540859  0  4.25782  0
C  C83  1  0.22917334  0.11729916  0.91532507  1  0  0.613499  0  3.946913  0  0  0.562875  0  4.253251  0  0  0.595271  0  4.24535  0  1.585264  0  0.210606  0.540898  0  4.257821  0
C  C84  1  0.32183231  0.31756179  0.51977025  1  0  0.708623  0  3.823126  0  0  0.658363  0  4.131417  0  0  0.69196  0  4.1237  0  1.533162  0  0.209968  0.635647  0  4.135455  0
C  C85  1  0.17816785  0.68243809  0.01977025  1  0  0.70864  0  3.823106  0  0  0.658352  0  4.131451  0  0  0.691948  0  4.123735  0  1.533185  0  0.209982  0.635635  0  4.135492  0
C  C86  1  0.67816929  0.68243809  0.48022900  1  0  0.708671  0  3.82302  0  0  0.658419  0  4.13136  0  0  0.692017  0  4.123642  0  1.533156  0  0.209988  0.635704  0  4.1354  0
C  C87  1  0.82183137  0.31756179  0.98022975  1  0  0.708611  0  3.82316  0  0  0.65835  0  4.131477  0  0  0.691948  0  4.12376  0  1.533171  0  0.209965  0.635634  0  4.135517  0
C  C88  1  0.48932765  0.31138588  0.48096562  1  0  -0.268851  0  3.649383  0  0  -0.30147  0  3.892865  0  0  -0.307541  0  3.900786  0  -0.068329  0  -0.160586  -0.297418  0  3.887588  0
C  C89  1  0.01067133  0.68861400  0.98096487  1  0  -0.26882  0  3.649293  0  0  -0.301499  0  3.892801  0  0  -0.307571  0  3.900723  0  -0.068337  0  -0.160605  -0.297448  0  3.887525  0
C  C90  1  0.51067528  0.68861485  0.51903438  1  0  -0.268795  0  3.649261  0  0  -0.301557  0  3.892864  0  0  -0.307643  0  3.900811  0  -0.068325  0  -0.160604  -0.297508  0  3.887588  0
C  C91  1  0.98932776  0.31138503  0.01903438  1  0  -0.268837  0  3.649338  0  0  -0.301496  0  3.892856  0  0  -0.307583  0  3.900799  0  -0.068321  0  -0.160587  -0.297445  0  3.88758  0
C  C92  1  0.51134664  0.33128369  0.36858252  1  0  -0.0435  0  3.653319  0  0  -0.08679  0  3.912517  0  0  -0.08611  0  3.924947  0  0.006125  0  -0.156642  -0.087071  0  3.903967  0
C  C93  1  0.98865402  0.66871619  0.86858327  1  0  -0.043492  0  3.653285  0  0  -0.086797  0  3.912497  0  0  -0.086118  0  3.924929  0  0.006123  0  -0.156631  -0.087077  0  3.903945  0
C  C94  1  0.48865377  0.66871619  0.63141673  1  0  -0.043488  0  3.653279  0  0  -0.086766  0  3.912503  0  0  -0.086085  0  3.924937  0  0.006136  0  -0.156625  -0.087046  0  3.903952  0
C  C95  1  0.01134640  0.33128369  0.13141748  1  0  -0.043485  0  3.65331  0  0  -0.086767  0  3.912505  0  0  -0.086084  0  3.924936  0  0.006134  0  -0.156634  -0.087047  0  3.903954  0
C  C96  1  0.68433258  0.32069508  0.33414364  1  0  -0.27887  0  3.643582  0  0  -0.316089  0  3.89151  0  0  -0.322009  0  3.899012  0  0.002101  0  -0.162821  -0.312039  0  3.886403  0
C  C97  1  0.81566689  0.67930480  0.83414364  1  0  -0.278895  0  3.643575  0  0  -0.316119  0  3.891505  0  0  -0.32204  0  3.899009  0  0.002104  0  -0.162839  -0.312069  0  3.886397  0
C  C98  1  0.31566664  0.67930480  0.66585636  1  0  -0.278899  0  3.643586  0  0  -0.316123  0  3.89151  0  0  -0.322044  0  3.899013  0  0.002105  0  -0.16284  -0.312072  0  3.886402  0
C  C99  1  0.18433352  0.32069508  0.16585636  1  0  -0.278935  0  3.643651  0  0  -0.316132  0  3.891563  0  0  -0.322052  0  3.899064  0  0.002102  0  -0.162827  -0.312081  0  3.886455  0
C  C100  1  0.79956525  0.41549439  0.37697230  1  0  0.766946  0  3.780352  0  0  0.726312  0  4.070315  0  0  0.760726  0  4.060647  0  1.560621  0  0.237606  0.702836  0  4.076  0
C  C101  1  0.70043541  0.58450550  0.87697155  1  0  0.766944  0  3.780406  0  0  0.726318  0  4.070355  0  0  0.760733  0  4.060691  0  1.560607  0  0.237611  0.702843  0  4.07604  0
C  C102  1  0.20043516  0.58450550  0.62302845  1  0  0.766948  0  3.780411  0  0  0.726319  0  4.070372  0  0  0.760734  0  4.060706  0  1.560614  0  0.237607  0.702843  0  4.076057  0
C  C103  1  0.29956501  0.41549439  0.12302845  1  0  0.766947  0  3.780353  0  0  0.726306  0  4.070323  0  0  0.760721  0  4.060657  0  1.560614  0  0.237601  0.70283  0  4.07601  0
N  N104  1  0.96185916  0.16103046  0.47560473  1  0  -0.43756  0  3.271047  0  0  -0.393326  0  3.534427  0  0  -0.40808  0  3.555387  0  -1.251081  0  -0.372507  -0.382717  0  3.520088  0
N  N105  1  0.53814031  0.83896943  0.97560398  1  0  -0.437593  0  3.271059  0  0  -0.39336  0  3.534444  0  0  -0.408116  0  3.555405  0  -1.251236  0  -0.372524  -0.382755  0  3.520105  0
N  N106  1  0.03814126  0.83896943  0.52439602  1  0  -0.43758  0  3.271077  0  0  -0.393352  0  3.534477  0  0  -0.408107  0  3.555438  0  -1.251085  0  -0.372557  -0.382745  0  3.520139  0
N  N107  1  0.46185891  0.16103046  0.02439527  1  0  -0.437556  0  3.271058  0  0  -0.393322  0  3.534439  0  0  -0.408078  0  3.555399  0  -1.251131  0  -0.372511  -0.382714  0  3.520099  0
O  O108  1  0.61115892  0.05068757  0.60922831  1  0  -0.564208  0  1.919681  0  0  -0.523615  0  2.143153  0  0  -0.544613  0  2.13574  0  -1.164688  0  -0.303632  -0.509034  0  2.14789  0
O  O109  1  0.88884081  0.94931401  0.10922831  1  0  -0.564179  0  1.919707  0  0  -0.523572  0  2.143174  0  0  -0.544571  0  2.135764  0  -1.164692  0  -0.303601  -0.508991  0  2.147912  0
O  O110  1  0.38884056  0.94931401  0.39077094  1  0  -0.564194  0  1.919659  0  0  -0.523598  0  2.143124  0  0  -0.544597  0  2.135713  0  -1.164678  0  -0.303603  -0.509017  0  2.147861  0
O  O111  1  0.11115867  0.05068757  0.89077094  1  0  -0.564211  0  1.919673  0  0  -0.523626  0  2.143154  0  0  -0.544624  0  2.135744  0  -1.164687  0  -0.303635  -0.509045  0  2.147893  0
O  O112  1  0.77798290  0.21126134  0.63144970  1  0  -0.754852  0  2.098894  0  0  -0.69762  0  2.347173  0  0  -0.725913  0  2.336454  0  -1.199551  0  -0.406954  -0.677137  0  2.35409  0
O  O113  1  0.72201895  0.78873855  0.13144970  1  0  -0.754851  0  2.098923  0  0  -0.697611  0  2.347197  0  0  -0.725905  0  2.336479  0  -1.199558  0  -0.40695  -0.677134  0  2.354112  0
O  O114  1  0.22201751  0.78873855  0.36855030  1  0  -0.754819  0  2.09895  0  0  -0.697596  0  2.347228  0  0  -0.725889  0  2.336511  0  -1.199049  0  -0.406932  -0.677115  0  2.354145  0
O  O115  1  0.27798146  0.21126134  0.86855030  1  0  -0.754821  0  2.098935  0  0  -0.697587  0  2.347209  0  0  -0.725881  0  2.336492  0  -1.199568  0  -0.40692  -0.677105  0  2.354126  0
O  O116  1  0.22038373  0.36879672  0.47017790  1  0  -0.716523  0  2.056297  0  0  -0.662253  0  2.30021  0  0  -0.688839  0  2.290567  0  -1.20927  0  -0.364667  -0.643268  0  2.306213  0
O  O117  1  0.27961630  0.63120232  0.97017865  1  0  -0.716534  0  2.056307  0  0  -0.662242  0  2.300213  0  0  -0.688831  0  2.290575  0  -1.209254  0  -0.364657  -0.643261  0  2.306215  0
O  O118  1  0.77961668  0.63120317  0.52982135  1  0  -0.716544  0  2.056225  0  0  -0.662275  0  2.30013  0  0  -0.688865  0  2.290497  0  -1.209277  0  -0.364682  -0.643292  0  2.306134  0
O  O119  1  0.72038398  0.36879672  0.02982210  1  0  -0.716498  0  2.056345  0  0  -0.66223  0  2.300264  0  0  -0.688816  0  2.290619  0  -1.209278  0  -0.364652  -0.643246  0  2.306267  0
O  O120  1  0.27955484  0.27049386  0.60328293  1  0  -0.689504  0  1.981371  0  0  -0.636909  0  2.215514  0  0  -0.663878  0  2.207374  0  -1.188071  0  -0.351133  -0.617733  0  2.220594  0
O  O121  1  0.22044532  0.72950603  0.10328368  1  0  -0.689513  0  1.981353  0  0  -0.636903  0  2.215508  0  0  -0.663871  0  2.207367  0  -1.188078  0  -0.351152  -0.61773  0  2.220587  0
O  O122  1  0.72044438  0.72950603  0.39671707  1  0  -0.68949  0  1.981345  0  0  -0.636898  0  2.215483  0  0  -0.663866  0  2.207341  0  -1.188089  0  -0.351131  -0.617724  0  2.220563  0
O  O123  1  0.77955509  0.27049386  0.89671707  1  0  -0.689504  0  1.981365  0  0  -0.636908  0  2.215509  0  0  -0.663876  0  2.207365  0  -1.188074  0  -0.351136  -0.617732  0  2.220589  0
O  O124  1  0.87891216  0.40002198  0.45564564  1  0  -0.753118  0  2.087897  0  0  -0.713229  0  2.356471  0  0  -0.740351  0  2.345429  0  -1.214767  0  -0.396819  -0.693438  0  2.363419  0
O  O125  1  0.62108731  0.59997790  0.95564490  1  0  -0.753127  0  2.087949  0  0  -0.713229  0  2.356508  0  0  -0.74034  0  2.34544  0  -1.214751  0  -0.396805  -0.693444  0  2.363453  0
O  O126  1  0.12108706  0.59997790  0.54435510  1  0  -0.753131  0  2.087952  0  0  -0.713237  0  2.35651  0  0  -0.74035  0  2.345452  0  -1.214767  0  -0.396807  -0.693448  0  2.363457  0
O  O127  1  0.37891311  0.40002198  0.04435436  1  0  -0.753109  0  2.087862  0  0  -0.713208  0  2.356417  0  0  -0.740323  0  2.345358  0  -1.214814  0  -0.396817  -0.693419  0  2.363368  0
O  O128  1  0.80932142  0.51199337  0.33324441  1  0  -0.722332  0  2.061375  0  0  -0.66582  0  2.291989  0  0  -0.693725  0  2.282191  0  -1.198979  0  -0.363329  -0.645986  0  2.298429  0
O  O129  1  0.69067805  0.48800652  0.83324516  1  0  -0.722302  0  2.061378  0  0  -0.665808  0  2.292002  0  0  -0.693715  0  2.282205  0  -1.198987  0  -0.363333  -0.645972  0  2.298441  0
O  O130  1  0.19067899  0.48800652  0.66675484  1  0  -0.722302  0  2.061371  0  0  -0.665807  0  2.291996  0  0  -0.693715  0  2.282201  0  -1.198991  0  -0.36333  -0.645971  0  2.298437  0
O  O131  1  0.30932117  0.51199337  0.16675559  1  0  -0.722335  0  2.061368  0  0  -0.665822  0  2.291993  0  0  -0.693727  0  2.282196  0  -1.198994  0  -0.363333  -0.64599  0  2.298432  0
O  O132  1  0.83070832  0.46115837  0.65803609  1  0  -0.923542  0  1.844839  0  0  -0.881811  0  2.042333  0  0  -0.901411  0  2.008229  0  -1.306806  0  -0.65666  -0.867374  0  2.06658  0
O  O133  1  0.66929115  0.53884152  0.15803609  1  0  -0.923548  0  1.844863  0  0  -0.88181  0  2.042368  0  0  -0.901412  0  2.008265  0  -1.306811  0  -0.656686  -0.867373  0  2.066602  0
O  O134  1  0.16929210  0.53884152  0.34196391  1  0  -0.923551  0  1.844841  0  0  -0.881821  0  2.042345  0  0  -0.901422  0  2.008243  0  -1.306872  0  -0.656671  -0.867388  0  2.066594  0
O  O135  1  0.33070807  0.46115837  0.84196391  1  0  -0.923548  0  1.84483  0  0  -0.881816  0  2.042328  0  0  -0.901418  0  2.008224  0  -1.306873  0  -0.65667  -0.86738  0  2.066575  0
O  O136  1  0.03137498  0.27683584  0.76234039  1  0  -0.918023  0  1.845478  0  0  -0.875521  0  2.040032  0  0  -0.895804  0  2.005678  0  -1.286648  0  -0.658105  -0.860526  0  2.064461  0
O  O137  1  0.46862518  0.72316405  0.26234039  1  0  -0.918029  0  1.84547  0  0  -0.875523  0  2.040024  0  0  -0.895806  0  2.005669  0  -1.286645  0  -0.6581  -0.860533  0  2.06445  0
O  O138  1  0.96862543  0.72316405  0.23765961  1  0  -0.918034  0  1.845455  0  0  -0.875534  0  2.040011  0  0  -0.895817  0  2.005656  0  -1.28665  0  -0.658103  -0.860541  0  2.064438  0
O  O139  1  0.53137523  0.27683584  0.73765961  1  0  -0.918034  0  1.845481  0  0  -0.875532  0  2.040034  0  0  -0.895816  0  2.005679  0  -1.286649  0  -0.658107  -0.860538  0  2.064463  0
