# generated using pymatgen
data_PrH14C15O7
_symmetry_space_group_name_H-M   'P 1'
_cell_length_a   10.47585730
_cell_length_b   12.05242376
_cell_length_c   12.40550112
_cell_angle_alpha   105.96386602
_cell_angle_beta   97.62953941
_cell_angle_gamma   92.15064499
_symmetry_Int_Tables_number   1
_chemical_formula_structural   PrH14C15O7
_chemical_formula_sum   'Pr4 H56 C60 O28'
_cell_volume   1488.06387557
_cell_formula_units_Z   4
loop_
 _symmetry_equiv_pos_site_id
 _symmetry_equiv_pos_as_xyz
  1  'x, y, z'
loop_
 _atom_site_type_symbol
 _atom_site_label
 _atom_site_symmetry_multiplicity
 _atom_site_fract_x
 _atom_site_fract_y
 _atom_site_fract_z
 _atom_site_occupancy
 _atom_site_hle17_bader_spin_density
 _atom_site_hle17_ddec_charge
 _atom_site_hle17_ddec_spin_density
 _atom_site_hle17_ddec_sum_bond_order
 _atom_site_hle17_magmom
 _atom_site_hse06_10hf_bader_spin_density
 _atom_site_hse06_10hf_ddec_charge
 _atom_site_hse06_10hf_ddec_spin_density
 _atom_site_hse06_10hf_ddec_sum_bond_order
 _atom_site_hse06_10hf_magmom
 _atom_site_hse06_bader_spin_density
 _atom_site_hse06_ddec_charge
 _atom_site_hse06_ddec_spin_density
 _atom_site_hse06_ddec_sum_bond_order
 _atom_site_hse06_magmom
 _atom_site_pbe_bader_spin_density
 _atom_site_pbe_cm5_charge
 _atom_site_pbe_ddec_charge
 _atom_site_pbe_ddec_spin_density
 _atom_site_pbe_ddec_sum_bond_order
 _atom_site_pbe_magmom
Pr  Pr0  1  0.97172268  0.97314082  0.31872814  1  0  2.316019  0  1.621981  0  0  2.151581  0  2.078939  0  0  2.239591  0  1.948701  0  0  1.498789  2.119071  0  2.113675  0
Pr  Pr1  1  0.02827706  0.02685897  0.68127135  1  0  2.315998  0  1.62202  0  0  2.151549  0  2.078989  0  0  2.239563  0  1.948747  0  0  1.498775  2.119041  0  2.113725  0
Pr  Pr2  1  0.69263300  0.96105831  0.04572672  1  0  2.303629  0  1.640224  0  0  2.148212  0  2.094397  0  0  2.234356  0  1.966243  0  0  1.511176  2.116712  0  2.128743  0
Pr  Pr3  1  0.30736569  0.03894061  0.95427162  1  0  2.303605  0  1.640265  0  0  2.148194  0  2.094429  0  0  2.234327  0  1.966292  0  0  1.511186  2.11669  0  2.128782  0
H  H4  1  0.06812705  0.36522845  0.93993081  1  0  0.116491  0  0.925132  0  0  0.13457  0  0.981594  0  0  0.136678  0  0.980551  0  0  0.111208  0.132976  0  0.982423  0
H  H5  1  0.93187382  0.63477307  0.06007087  1  0  0.116481  0  0.925153  0  0  0.13456  0  0.981616  0  0  0.136664  0  0.980579  0  0  0.111206  0.132968  0  0.982443  0
H  H6  1  0.11459492  0.34422267  0.80628478  1  0  0.133591  0  0.951717  0  0  0.144915  0  1.014418  0  0  0.148095  0  1.012606  0  0  0.109736  0.142659  0  1.015752  0
H  H7  1  0.88540595  0.65577885  0.19371691  1  0  0.133623  0  0.951632  0  0  0.144917  0  1.014373  0  0  0.148097  0  1.012563  0  0  0.109748  0.142662  0  1.015705  0
H  H8  1  0.37992226  0.42288242  0.83164742  1  0  0.081239  0  0.960273  0  0  0.095013  0  1.019439  0  0  0.097395  0  1.01901  0  0  0.094138  0.093271  0  1.019853  0
H  H9  1  0.62008046  0.57711823  0.16835504  1  0  0.081253  0  0.96025  0  0  0.095034  0  1.019411  0  0  0.0974  0  1.018998  0  0  0.09413  0.093292  0  1.019825  0
H  H10  1  0.51259093  0.61105302  0.90873839  1  0  0.094757  0  0.963241  0  0  0.105792  0  1.022576  0  0  0.109176  0  1.020281  0  0  0.100033  0.103412  0  1.024197  0
H  H11  1  0.48740986  0.38894763  0.09126305  1  0  0.094775  0  0.963235  0  0  0.105808  0  1.022574  0  0  0.109191  0  1.02028  0  0  0.100034  0.103429  0  1.024191  0
H  H12  1  0.44149274  0.76886591  0.05569844  1  0  0.093175  0  0.972345  0  0  0.098732  0  1.046634  0  0  0.102437  0  1.04421  0  0  0.106185  0.095653  0  1.049385  0
H  H13  1  0.55850731  0.23113734  0.94430119  1  0  0.093154  0  0.972367  0  0  0.098735  0  1.046607  0  0  0.102448  0  1.044175  0  0  0.106192  0.095647  0  1.049387  0
H  H14  1  0.10799676  0.55099132  0.05851880  1  0  0.085205  0  0.984344  0  0  0.095744  0  1.051402  0  0  0.097949  0  1.051503  0  0  0.094331  0.094092  0  1.051496  0
H  H15  1  0.89200506  0.44901019  0.94148217  1  0  0.085192  0  0.984328  0  0  0.095737  0  1.051393  0  0  0.097942  0  1.051496  0  0  0.094316  0.094086  0  1.051484  0
H  H16  1  0.29449008  0.80713462  0.22530243  1  0  0.118343  0  0.940498  0  0  0.134322  0  1.001704  0  0  0.136331  0  1.000482  0  0  0.110634  0.132934  0  1.002502  0
H  H17  1  0.70550989  0.19286776  0.77469697  1  0  0.118359  0  0.940515  0  0  0.134317  0  1.001703  0  0  0.136316  0  1.000493  0  0  0.110651  0.13293  0  1.002498  0
H  H18  1  0.13926837  0.73675528  0.18774746  1  0  0.126563  0  0.96558  0  0  0.13719  0  1.031695  0  0  0.140003  0  1.030867  0  0  0.109061  0.134981  0  1.0329  0
H  H19  1  0.86073144  0.26324537  0.81225146  1  0  0.12666  0  0.96547  0  0  0.137222  0  1.031624  0  0  0.140054  0  1.030773  0  0  0.109067  0.134999  0  1.032853  0
H  H20  1  0.86483739  0.27650794  0.12690134  1  0  0.135336  0  0.935973  0  0  0.149102  0  0.99418  0  0  0.151264  0  0.994558  0  0  0.11318  0.14763  0  0.993858  0
H  H21  1  0.13516332  0.72349185  0.87309987  1  0  0.135316  0  0.935972  0  0  0.149088  0  0.994179  0  0  0.15125  0  0.994558  0  0  0.113172  0.147617  0  0.993857  0
H  H22  1  0.81184288  0.32158021  0.25792953  1  0  0.112515  0  0.923323  0  0  0.128156  0  0.982507  0  0  0.130263  0  0.981612  0  0  0.108525  0.126601  0  0.983197  0
H  H23  1  0.18815686  0.67841957  0.74206996  1  0  0.112524  0  0.923312  0  0  0.128156  0  0.982508  0  0  0.130262  0  0.981613  0  0  0.108527  0.126602  0  0.983198  0
H  H24  1  0.12851536  0.30559176  0.14018378  1  0  0.110256  0  0.961685  0  0  0.121092  0  1.022445  0  0  0.124401  0  1.020901  0  0  0.103398  0.118787  0  1.023473  0
H  H25  1  0.87148535  0.69440802  0.85981662  1  0  0.110253  0  0.961711  0  0  0.121085  0  1.022466  0  0  0.124397  0  1.020919  0  0  0.103401  0.118781  0  1.023493  0
H  H26  1  0.30235586  0.46423030  0.20352498  1  0  0.08806  0  0.947055  0  0  0.101209  0  1.001497  0  0  0.103972  0  1.000074  0  0  0.103489  0.099173  0  1.002646  0
H  H27  1  0.69764396  0.53577035  0.79647475  1  0  0.088057  0  0.947062  0  0  0.101207  0  1.001504  0  0  0.10397  0  1.000079  0  0  0.103483  0.099171  0  1.002652  0
H  H28  1  0.28489960  0.63649903  0.36525713  1  0  0.089549  0  0.951459  0  0  0.102807  0  1.009326  0  0  0.105068  0  1.009706  0  0  0.097028  0.101274  0  1.00895  0
H  H29  1  0.71510022  0.36350162  0.63474260  1  0  0.08955  0  0.951438  0  0  0.102791  0  1.009318  0  0  0.105052  0  1.009698  0  0  0.097016  0.101259  0  1.008941  0
H  H30  1  0.90655330  0.49914494  0.38634214  1  0  0.088066  0  0.962495  0  0  0.101062  0  1.024164  0  0  0.103589  0  1.023678  0  0  0.095432  0.09917  0  1.024728  0
H  H31  1  0.09344645  0.50085485  0.61365816  1  0  0.088112  0  0.962484  0  0  0.101107  0  1.024155  0  0  0.103632  0  1.02367  0  0  0.095451  0.099216  0  1.02472  0
H  H32  1  0.00450989  0.67586058  0.52817470  1  0  0.127825  0  0.936279  0  0  0.140547  0  0.999533  0  0  0.142809  0  0.999217  0  0  0.112333  0.139215  0  0.999219  0
H  H33  1  0.99549089  0.32414007  0.47182513  1  0  0.127815  0  0.936272  0  0  0.140533  0  0.999543  0  0  0.142795  0  0.999228  0  0  0.112326  0.1392  0  0.999229  0
H  H34  1  0.16939378  0.71721336  0.53719220  1  0  0.117347  0  0.913136  0  0  0.135885  0  0.966729  0  0  0.13785  0  0.965898  0  0  0.111493  0.134666  0  0.966951  0
H  H35  1  0.83060604  0.28278729  0.46280833  1  0  0.117353  0  0.913116  0  0  0.135893  0  0.966712  0  0  0.137858  0  0.965881  0  0  0.111496  0.134672  0  0.966935  0
H  H36  1  0.36152424  0.83651004  0.69991400  1  0  0.122086  0  0.940482  0  0  0.132166  0  1.007887  0  0  0.13519  0  1.006171  0  0  0.111991  0.129918  0  1.009318  0
H  H37  1  0.63847447  0.16348888  0.30008676  1  0  0.12208  0  0.94047  0  0  0.132166  0  1.007866  0  0  0.13519  0  1.006151  0  0  0.111991  0.129918  0  1.009298  0
H  H38  1  0.41378258  0.71030571  0.73220591  1  0  0.117997  0  0.913049  0  0  0.136992  0  0.966201  0  0  0.13892  0  0.965261  0  0  0.112241  0.135619  0  0.966806  0
H  H39  1  0.58621509  0.28969236  0.26779532  1  0  0.117962  0  0.913023  0  0  0.136952  0  0.96618  0  0  0.138882  0  0.965239  0  0  0.112221  0.135578  0  0.966786  0
H  H40  1  0.63420679  0.64150235  0.67378257  1  0  0.090101  0  0.98539  0  0  0.102315  0  1.045711  0  0  0.104542  0  1.045458  0  0  0.099094  0.100667  0  1.046038  0
H  H41  1  0.36579369  0.35849484  0.32621712  1  0  0.090136  0  0.985452  0  0  0.102346  0  1.045761  0  0  0.104574  0  1.045507  0  0  0.099112  0.100699  0  1.046088  0
H  H42  1  0.75632815  0.59479537  0.51277935  1  0  0.080673  0  0.966133  0  0  0.091094  0  1.029502  0  0  0.093163  0  1.029342  0  0  0.096025  0.089614  0  1.029558  0
H  H43  1  0.24367255  0.40520441  0.48722025  1  0  0.080685  0  0.966147  0  0  0.091106  0  1.029512  0  0  0.093175  0  1.029352  0  0  0.096026  0.089626  0  1.02957  0
H  H44  1  0.71171150  0.68934121  0.35718244  1  0  0.092557  0  0.951484  0  0  0.106526  0  1.009063  0  0  0.109215  0  1.008081  0  0  0.100781  0.104596  0  1.00979  0
H  H45  1  0.28828928  0.31065944  0.64281820  1  0  0.092546  0  0.951479  0  0  0.106515  0  1.00906  0  0  0.109203  0  1.008078  0  0  0.100782  0.104584  0  1.009789  0
H  H46  1  0.41864653  0.87523541  0.52811303  1  0  0.098528  0  0.956413  0  0  0.111195  0  1.015752  0  0  0.114036  0  1.015035  0  0  0.097749  0.109232  0  1.0161  0
H  H47  1  0.58135106  0.12476179  0.47188715  1  0  0.098502  0  0.956433  0  0  0.11116  0  1.015779  0  0  0.114005  0  1.015061  0  0  0.09773  0.109196  0  1.016127  0
H  H48  1  0.45212003  0.90084028  0.35455541  1  0  0.119969  0  0.923037  0  0  0.135422  0  0.982149  0  0  0.138289  0  0.979898  0  0  0.107602  0.133276  0  0.983806  0
H  H49  1  0.54788076  0.09916037  0.64544523  1  0  0.11997  0  0.923003  0  0  0.135435  0  0.982112  0  0  0.138301  0  0.979864  0  0  0.107604  0.13329  0  0.98377  0
H  H50  1  0.49408152  0.77590821  0.25819540  1  0  0.118334  0  0.932009  0  0  0.135765  0  0.989069  0  0  0.137351  0  0.988818  0  0  0.110598  0.134703  0  0.989103  0
H  H51  1  0.50591734  0.22409245  0.74180503  1  0  0.118319  0  0.932004  0  0  0.135757  0  0.989076  0  0  0.137351  0  0.988815  0  0  0.110591  0.134695  0  0.989108  0
H  H52  1  0.24975421  0.08051498  0.36915971  1  0  0.448174  0  0.807334  0  0  0.425667  0  0.87072  0  0  0.433463  0  0.859959  0  0  0.326647  0.420119  0  0.876844  0
H  H53  1  0.75024553  0.91948481  0.63083978  1  0  0.448171  0  0.807283  0  0  0.425665  0  0.87067  0  0  0.433459  0  0.859949  0  0  0.326637  0.420116  0  0.876796  0
H  H54  1  0.23445975  0.04450308  0.48075452  1  0  0.434501  0  0.866448  0  0  0.401156  0  0.934967  0  0  0.411924  0  0.91957  0  0  0.298382  0.393414  0  0.946204  0
H  H55  1  0.76554088  0.95549583  0.51924483  1  0  0.434518  0  0.86642  0  0  0.401178  0  0.934931  0  0  0.411946  0  0.919534  0  0  0.298399  0.393437  0  0.946167  0
H  H56  1  0.97221832  0.91031576  0.01997954  1  0  0.415589  0  0.887452  0  0  0.385902  0  0.955819  0  0  0.395572  0  0.941773  0  0  0.308207  0.378957  0  0.966105  0
H  H57  1  0.02778053  0.08968490  0.98002009  1  0  0.415584  0  0.887444  0  0  0.385891  0  0.955828  0  0  0.395562  0  0.941781  0  0  0.308204  0.378946  0  0.966114  0
H  H58  1  0.90678027  0.93915081  0.90720691  1  0  0.424942  0  0.870567  0  0  0.395211  0  0.939955  0  0  0.405914  0  0.924313  0  0  0.309897  0.387505  0  0.951394  0
H  H59  1  0.09321850  0.06084898  0.09279167  1  0  0.424969  0  0.870547  0  0  0.395252  0  0.939895  0  0  0.405955  0  0.924255  0  0  0.309921  0.387544  0  0.951335  0
C  C60  1  0.21636099  0.25471009  0.91196310  1  0  0.752942  0  3.7851  0  0  0.709884  0  4.078372  0  0  0.743235  0  4.073269  0  0  0.220244  0.687034  0  4.083948  0
C  C61  1  0.78363883  0.74529056  0.08803663  1  0  0.752874  0  3.785174  0  0  0.709801  0  4.07848  0  0  0.743154  0  4.073376  0  0  0.220223  0.68695  0  4.084055  0
C  C62  1  0.15374717  0.36146136  0.89644512  1  0  -0.315735  0  3.682831  0  0  -0.357687  0  3.917717  0  0  -0.363102  0  3.923108  0  0  -0.155217  -0.353569  0  3.913348  0
C  C63  1  0.84625361  0.63853929  0.10355552  1  0  -0.315756  0  3.682761  0  0  -0.35768  0  3.917677  0  0  -0.363094  0  3.923073  0  0  -0.155253  -0.353564  0  3.913308  0
C  C64  1  0.23453985  0.47442174  0.94031067  1  0  0.126421  0  3.780285  0  0  0.147791  0  4.015315  0  0  0.148694  0  4.040391  0  0  -0.014653  0.147155  0  3.998058  0
C  C65  1  0.76546013  0.52558064  0.05968953  1  0  0.126412  0  3.780242  0  0  0.147762  0  4.015293  0  0  0.148666  0  4.040364  0  0  -0.014667  0.147125  0  3.998037  0
C  C66  1  0.34762334  0.49258406  0.89670000  1  0  -0.129212  0  3.755977  0  0  -0.151794  0  4.00372  0  0  -0.155333  0  4.02619  0  0  -0.097838  -0.149267  0  3.988439  0
C  C67  1  0.65237842  0.50741659  0.10330155  1  0  -0.12922  0  3.756025  0  0  -0.151797  0  4.003759  0  0  -0.15532  0  4.026233  0  0  -0.09782  -0.149271  0  3.988478  0
C  C68  1  0.42173604  0.59796545  0.93880339  1  0  -0.061863  0  3.794067  0  0  -0.075157  0  4.049803  0  0  -0.076434  0  4.070658  0  0  -0.093474  -0.074036  0  4.035283  0
C  C69  1  0.57826402  0.40203779  0.06119705  1  0  -0.061884  0  3.794035  0  0  -0.075177  0  4.049769  0  0  -0.076456  0  4.070622  0  0  -0.093447  -0.074055  0  4.035246  0
C  C70  1  0.38292544  0.68690474  0.02358147  1  0  -0.11336  0  3.721958  0  0  -0.141082  0  3.979842  0  0  -0.142747  0  3.998704  0  0  -0.091319  -0.139911  0  3.967007  0
C  C71  1  0.61707533  0.31309591  0.97641756  1  0  -0.113292  0  3.721947  0  0  -0.141031  0  3.979837  0  0  -0.142698  0  3.998697  0  0  -0.09132  -0.139864  0  3.966996  0
C  C72  1  0.26811242  0.67188829  0.06601620  1  0  0.116114  0  3.774376  0  0  0.139316  0  4.007701  0  0  0.139882  0  4.032146  0  0  -0.016755  0.138961  0  3.990771  0
C  C73  1  0.73188947  0.32811408  0.93398259  1  0  0.116079  0  3.774626  0  0  0.139265  0  4.00791  0  0  0.139828  0  4.032359  0  0  -0.016761  0.138913  0  3.990974  0
C  C74  1  0.19574624  0.56500624  0.02393025  1  0  -0.192178  0  3.733251  0  0  -0.218472  0  3.976149  0  0  -0.223333  0  3.999415  0  0  -0.099064  -0.214983  0  3.960319  0
C  C75  1  0.80425358  0.43499441  0.97607028  1  0  -0.192164  0  3.733221  0  0  -0.218463  0  3.976114  0  0  -0.223326  0  3.999382  0  0  -0.099067  -0.214973  0  3.960282  0
C  C76  1  0.21895009  0.76832301  0.15230673  1  0  -0.33186  0  3.687234  0  0  -0.377033  0  3.925336  0  0  -0.383218  0  3.932653  0  0  -0.156867  -0.372665  0  3.920351  0
C  C77  1  0.78104980  0.23167850  0.84769243  1  0  -0.331937  0  3.687265  0  0  -0.376978  0  3.925248  0  0  -0.383169  0  3.932561  0  0  -0.15685  -0.372606  0  3.920272  0
C  C78  1  0.17818883  0.86886688  0.10738481  1  0  0.780245  0  3.747867  0  0  0.736493  0  4.038476  0  0  0.770774  0  4.029786  0  0  0.248446  0.713256  0  4.045304  0
C  C79  1  0.82181002  0.13113377  0.89261320  1  0  0.780203  0  3.747862  0  0  0.736425  0  4.03846  0  0  0.770705  0  4.029772  0  0  0.248391  0.713191  0  4.045283  0
C  C80  1  0.93163660  0.18198261  0.24119033  1  0  0.733809  0  3.8094  0  0  0.690909  0  4.108511  0  0  0.723608  0  4.104058  0  0  0.215669  0.668238  0  4.114504  0
C  C81  1  0.06836411  0.81801718  0.75880926  1  0  0.733757  0  3.809575  0  0  0.690856  0  4.10869  0  0  0.723555  0  4.104238  0  0  0.215645  0.668187  0  4.11468  0
C  C82  1  0.89836372  0.29573663  0.21852196  1  0  -0.308416  0  3.671657  0  0  -0.348188  0  3.903837  0  0  -0.354193  0  3.911338  0  0  -0.150493  -0.343753  0  3.898126  0
C  C83  1  0.10163699  0.70426315  0.78147845  1  0  -0.308368  0  3.671623  0  0  -0.348133  0  3.903819  0  0  -0.354135  0  3.91132  0  0  -0.150469  -0.343702  0  3.898111  0
C  C84  1  0.00513447  0.39146683  0.25857818  1  0  0.127396  0  3.759517  0  0  0.148298  0  3.996683  0  0  0.149756  0  4.020911  0  0  -0.011131  0.147315  0  3.980128  0
C  C85  1  0.99486809  0.60853208  0.74142219  1  0  0.127419  0  3.759497  0  0  0.148289  0  3.996719  0  0  0.149747  0  4.020947  0  0  -0.011132  0.147307  0  3.980164  0
C  C86  1  0.11735762  0.38295824  0.20765884  1  0  -0.11247  0  3.684086  0  0  -0.138875  0  3.935418  0  0  -0.141446  0  3.954581  0  0  -0.090323  -0.136993  0  3.922139  0
C  C87  1  0.88264213  0.61704155  0.79234226  1  0  -0.112461  0  3.684056  0  0  -0.138853  0  3.935394  0  0  -0.141422  0  3.954554  0  0  -0.090322  -0.13697  0  3.922115  0
C  C88  1  0.21657390  0.47126145  0.24533627  1  0  -0.056813  0  3.804805  0  0  -0.066248  0  4.057139  0  0  -0.066735  0  4.076892  0  0  -0.087414  -0.065744  0  4.043658  0
C  C89  1  0.78342585  0.52873834  0.75466403  1  0  -0.056857  0  3.804777  0  0  -0.066291  0  4.057108  0  0  -0.066778  0  4.076861  0  0  -0.087438  -0.065787  0  4.043627  0
C  C90  1  0.20621992  0.56822419  0.33512339  1  0  -0.12534  0  3.733373  0  0  -0.147986  0  3.982148  0  0  -0.151138  0  4.003085  0  0  -0.094469  -0.145771  0  3.9678  0
C  C91  1  0.79378087  0.43177646  0.66487725  1  0  -0.125286  0  3.733322  0  0  -0.147922  0  3.982082  0  0  -0.151074  0  4.00302  0  0  -0.094416  -0.145707  0  3.967734  0
C  C92  1  0.09419844  0.57916973  0.38630411  1  0  0.116731  0  3.792107  0  0  0.135389  0  4.03432  0  0  0.136538  0  4.058481  0  0  -0.018018  0.134609  0  4.017825  0
C  C93  1  0.90580227  0.42083006  0.61369629  1  0  0.116717  0  3.792154  0  0  0.135404  0  4.034327  0  0  0.136553  0  4.058487  0  0  -0.018022  0.134624  0  4.017832  0
C  C94  1  0.99446370  0.49058467  0.34703657  1  0  -0.18968  0  3.713481  0  0  -0.216232  0  3.958494  0  0  -0.220805  0  3.980574  0  0  -0.097598  -0.213083  0  3.943652  0
C  C95  1  0.00553701  0.50941512  0.65296383  1  0  -0.189768  0  3.713585  0  0  -0.216325  0  3.958613  0  0  -0.220895  0  3.980686  0  0  -0.097632  -0.213179  0  3.943774  0
C  C96  1  0.07929613  0.68800035  0.47706056  1  0  -0.317942  0  3.693038  0  0  -0.359912  0  3.930128  0  0  -0.36543  0  3.936897  0  0  -0.151508  -0.355839  0  3.924388  0
C  C97  1  0.92070458  0.31199943  0.52293984  1  0  -0.317943  0  3.693045  0  0  -0.359923  0  3.930122  0  0  -0.365442  0  3.93689  0  0  -0.151507  -0.355849  0  3.924383  0
C  C98  1  0.04337304  0.78780809  0.42984468  1  0  0.759376  0  3.797491  0  0  0.716891  0  4.089107  0  0  0.750175  0  4.083935  0  0  0.229492  0.694102  0  4.094954  0
C  C99  1  0.95662669  0.21219169  0.57015320  1  0  0.759326  0  3.797444  0  0  0.716861  0  4.089037  0  0  0.750144  0  4.083866  0  0  0.22946  0.694072  0  4.094883  0
C  C100  1  0.53018307  0.86124928  0.82239093  1  0  0.742605  0  3.819216  0  0  0.699215  0  4.117423  0  0  0.73163  0  4.114376  0  0  0.219386  0.676615  0  4.12292  0
C  C101  1  0.46981651  0.13874878  0.17760809  1  0  0.742637  0  3.819208  0  0  0.699237  0  4.117426  0  0  0.731654  0  4.114378  0  0  0.219376  0.676638  0  4.122926  0
C  C102  1  0.44759612  0.78979487  0.71330777  1  0  -0.310524  0  3.683347  0  0  -0.353556  0  3.923699  0  0  -0.35895  0  3.930143  0  0  -0.151086  -0.349409  0  3.918708  0
C  C103  1  0.55240250  0.21020319  0.28669195  1  0  -0.310467  0  3.683239  0  0  -0.353508  0  3.923606  0  0  -0.358901  0  3.930041  0  0  -0.15105  -0.349355  0  3.918599  0
C  C104  1  0.51774053  0.76102785  0.61219159  1  0  0.121423  0  3.788287  0  0  0.140878  0  4.026943  0  0  0.142216  0  4.050568  0  0  -0.01518  0.139851  0  4.010649  0
C  C105  1  0.48225697  0.23896848  0.38780674  1  0  0.12143  0  3.788339  0  0  0.140903  0  4.026966  0  0  0.142243  0  4.050592  0  0  -0.015167  0.139874  0  4.010677  0
C  C106  1  0.61282357  0.68202103  0.60589572  1  0  -0.111431  0  3.733156  0  0  -0.135009  0  3.977239  0  0  -0.136979  0  3.996993  0  0  -0.091362  -0.133653  0  3.963982  0
C  C107  1  0.38717489  0.31797530  0.39410192  1  0  -0.111493  0  3.733246  0  0  -0.135071  0  3.977314  0  0  -0.137043  0  3.997069  0  0  -0.091391  -0.133717  0  3.96406  0
C  C108  1  0.68217226  0.65619685  0.51487255  1  0  -0.054529  0  3.799016  0  0  -0.065421  0  4.049261  0  0  -0.065787  0  4.069518  0  0  -0.090665  -0.065176  0  4.035382  0
C  C109  1  0.31782739  0.34380207  0.48512590  1  0  -0.05456  0  3.798981  0  0  -0.065447  0  4.049223  0  0  -0.065815  0  4.069481  0  0  -0.09066  -0.065203  0  4.035344  0
C  C110  1  0.65713091  0.70930396  0.42837102  1  0  -0.141761  0  3.753668  0  0  -0.164777  0  4.000642  0  0  -0.167552  0  4.020665  0  0  -0.099937  -0.162774  0  3.986835  0
C  C111  1  0.34286875  0.29069497  0.57162904  1  0  -0.141751  0  3.753605  0  0  -0.16475  0  4.000591  0  0  -0.167525  0  4.020616  0  0  -0.09994  -0.162748  0  3.986784  0
C  C112  1  0.56207883  0.78878033  0.43254614  1  0  0.114115  0  3.799389  0  0  0.136088  0  4.034098  0  0  0.137146  0  4.058515  0  0  -0.019569  0.135348  0  4.01735  0
C  C113  1  0.43791883  0.21121773  0.56745348  1  0  0.11416  0  3.799285  0  0  0.136091  0  4.034073  0  0  0.137148  0  4.058495  0  0  -0.01957  0.135354  0  4.017319  0
C  C114  1  0.49318240  0.81374869  0.52483800  1  0  -0.200715  0  3.720211  0  0  -0.225125  0  3.963245  0  0  -0.229693  0  3.984625  0  0  -0.102172  -0.221827  0  3.948326  0
C  C115  1  0.50681519  0.18624850  0.47516138  1  0  -0.200675  0  3.720284  0  0  -0.225059  0  3.963315  0  0  -0.229635  0  3.984703  0  0  -0.102137  -0.221764  0  3.948398  0
C  C116  1  0.53078557  0.84313724  0.33782708  1  0  -0.323838  0  3.685458  0  0  -0.366992  0  3.923965  0  0  -0.372157  0  3.929969  0  0  -0.158235  -0.362998  0  3.919089  0
C  C117  1  0.46921418  0.15686254  0.66217322  1  0  -0.323831  0  3.6853  0  0  -0.367008  0  3.923884  0  0  -0.37218  0  3.929885  0  0  -0.158239  -0.363017  0  3.919007  0
C  C118  1  0.63811317  0.91319031  0.30735871  1  0  0.767968  0  3.783831  0  0  0.722323  0  4.085526  0  0  0.756078  0  4.077966  0  0  0.237701  0.6995  0  4.091406  0
C  C119  1  0.36188657  0.08680948  0.69264158  1  0  0.767912  0  3.783884  0  0  0.722249  0  4.085628  0  0  0.756006  0  4.078068  0  0  0.237647  0.699427  0  4.091507  0
O  O120  1  0.16425925  0.15544127  0.84714959  1  0  -0.857864  0  2.165238  0  0  -0.795081  0  2.429932  0  0  -0.8311  0  2.41999  0  0  -0.470155  -0.776342  0  2.435561  0
O  O121  1  0.83574065  0.84456026  0.15285199  1  0  -0.857831  0  2.165277  0  0  -0.795048  0  2.429992  0  0  -0.831058  0  2.420032  0  0  -0.470131  -0.776302  0  2.435607  0
O  O122  1  0.31140468  0.25863889  0.98713957  1  0  -0.660101  0  1.933458  0  0  -0.610534  0  2.167058  0  0  -0.638699  0  2.159404  0  0  -0.347682  -0.593898  0  2.171227  0
O  O123  1  0.68859499  0.74136003  0.01286049  1  0  -0.660055  0  1.933458  0  0  -0.610495  0  2.167089  0  0  -0.638659  0  2.159432  0  0  -0.347674  -0.593862  0  2.171257  0
O  O124  1  0.09217884  0.93275403  0.15253412  1  0  -0.764889  0  2.039825  0  0  -0.696338  0  2.279133  0  0  -0.727054  0  2.265395  0  0  -0.378591  -0.678453  0  2.287499  0
O  O125  1  0.90782009  0.06724749  0.84746493  1  0  -0.764854  0  2.039846  0  0  -0.696313  0  2.2792  0  0  -0.727027  0  2.265465  0  0  -0.378572  -0.678428  0  2.287567  0
O  O126  1  0.22902427  0.88653358  0.02652147  1  0  -0.721131  0  2.066945  0  0  -0.666764  0  2.322745  0  0  -0.69693  0  2.310377  0  0  -0.392164  -0.649671  0  2.32941  0
O  O127  1  0.77097474  0.11346880  0.97347782  1  0  -0.72116  0  2.066954  0  0  -0.666777  0  2.322752  0  0  -0.696945  0  2.310386  0  0  -0.392157  -0.649683  0  2.329415  0
O  O128  1  0.84432360  0.09493254  0.20588411  1  0  -0.850098  0  2.052113  0  0  -0.7966  0  2.327416  0  0  -0.829717  0  2.310908  0  0  -0.452296  -0.780601  0  2.337814  0
O  O129  1  0.15567518  0.90506725  0.79411528  1  0  -0.850067  0  2.052209  0  0  -0.796562  0  2.327506  0  0  -0.829679  0  2.311003  0  0  -0.452283  -0.780565  0  2.337905  0
O  O130  1  0.03845600  0.17073203  0.29574711  1  0  -0.662058  0  1.951752  0  0  -0.612759  0  2.185393  0  0  -0.63979  0  2.177585  0  0  -0.35346  -0.596859  0  2.189962  0
O  O131  1  0.96154374  0.82926775  0.70425318  1  0  -0.662061  0  1.951806  0  0  -0.612753  0  2.18544  0  0  -0.639781  0  2.177633  0  0  -0.353455  -0.596851  0  2.190008  0
O  O132  1  0.03684819  0.88874343  0.49801239  1  0  -0.832541  0  2.090381  0  0  -0.772157  0  2.352185  0  0  -0.80669  0  2.338953  0  0  -0.443275  -0.754733  0  2.359892  0
O  O133  1  0.96314875  0.11125723  0.50198864  1  0  -0.832529  0  2.090483  0  0  -0.772153  0  2.352278  0  0  -0.806687  0  2.339049  0  0  -0.443277  -0.754727  0  2.359983  0
O  O134  1  0.01968748  0.77266477  0.32395298  1  0  -0.68412  0  2.02482  0  0  -0.629871  0  2.264555  0  0  -0.658365  0  2.256149  0  0  -0.363132  -0.613319  0  2.269666  0
O  O135  1  0.98031428  0.22733588  0.67604857  1  0  -0.684102  0  2.02464  0  0  -0.629861  0  2.264365  0  0  -0.658359  0  2.255964  0  0  -0.363113  -0.613308  0  2.269476  0
O  O136  1  0.47351512  0.89634989  0.91148352  1  0  -0.840515  0  2.040101  0  0  -0.784427  0  2.307909  0  0  -0.818604  0  2.29434  0  0  -0.447808  -0.767518  0  2.317053  0
O  O137  1  0.52648373  0.10365077  0.08851610  1  0  -0.840507  0  2.040144  0  0  -0.784418  0  2.307964  0  0  -0.818595  0  2.294396  0  0  -0.447788  -0.767508  0  2.317107  0
O  O138  1  0.64979541  0.88228659  0.82823744  1  0  -0.644479  0  1.923882  0  0  -0.592633  0  2.148039  0  0  -0.619423  0  2.140433  0  0  -0.346321  -0.576658  0  2.152557  0
O  O139  1  0.35020601  0.11771059  0.17175993  1  0  -0.644511  0  1.923894  0  0  -0.592662  0  2.148055  0  0  -0.619455  0  2.140448  0  0  -0.346339  -0.576687  0  2.152572  0
O  O140  1  0.60893184  0.94133076  0.21664146  1  0  -0.736013  0  2.025622  0  0  -0.686534  0  2.285902  0  0  -0.716804  0  2.274353  0  0  -0.386837  -0.66918  0  2.292483  0
O  O141  1  0.39106791  0.05866903  0.78335884  1  0  -0.735983  0  2.025638  0  0  -0.686496  0  2.285928  0  0  -0.716765  0  2.27438  0  0  -0.386815  -0.669136  0  2.292498  0
O  O142  1  0.74762345  0.94030845  0.37181334  1  0  -0.744058  0  1.993406  0  0  -0.683657  0  2.239594  0  0  -0.713889  0  2.227233  0  0  -0.360866  -0.666051  0  2.246814  0
O  O143  1  0.25237702  0.05968875  0.62818716  1  0  -0.744048  0  1.993444  0  0  -0.683634  0  2.239651  0  0  -0.713862  0  2.227275  0  0  -0.360849  -0.666025  0  2.246863  0
O  O144  1  0.21139541  0.02014372  0.39644923  1  0  -0.894132  0  1.818151  0  0  -0.849162  0  2.010272  0  0  -0.871785  0  1.978369  0  0  -0.622472  -0.83694  0  2.028762  0
O  O145  1  0.78860625  0.97985606  0.60355047  1  0  -0.894149  0  1.818102  0  0  -0.849173  0  2.010211  0  0  -0.871803  0  1.978365  0  0  -0.622475  -0.83695  0  2.028701  0
O  O146  1  0.89508450  0.89470770  0.96180381  1  0  -0.870886  0  1.918959  0  0  -0.822735  0  2.115433  0  0  -0.84465  0  2.082387  0  0  -0.620918  -0.810189  0  2.136624  0
O  O147  1  0.10491428  0.10529209  0.03819557  1  0  -0.87089  0  1.918923  0  0  -0.82276  0  2.11544  0  0  -0.844649  0  2.082347  0  0  -0.620929  -0.81021  0  2.136631  0
