# generated using pymatgen
data_Al2H25C35NO10
_symmetry_space_group_name_H-M   'P 1'
_cell_length_a   6.69508485
_cell_length_b   23.60347238
_cell_length_c   25.98423707
_cell_angle_alpha   101.80451055
_cell_angle_beta   90.00026522
_cell_angle_gamma   90.00007934
_symmetry_Int_Tables_number   1
_chemical_formula_structural   Al2H25C35NO10
_chemical_formula_sum   'Al4 H50 C70 N2 O20'
_cell_volume   4019.37631716
_cell_formula_units_Z   2
loop_
 _symmetry_equiv_pos_site_id
 _symmetry_equiv_pos_as_xyz
  1  'x, y, z'
loop_
 _atom_site_type_symbol
 _atom_site_label
 _atom_site_symmetry_multiplicity
 _atom_site_fract_x
 _atom_site_fract_y
 _atom_site_fract_z
 _atom_site_occupancy
 _atom_site_pbe_bader_charge
 _atom_site_pbe_bader_spin_density
 _atom_site_pbe_cm5_charge
 _atom_site_pbe_ddec_charge
 _atom_site_pbe_ddec_spin_density
 _atom_site_pbe_ddec_sum_bond_order
 _atom_site_pbe_magmom
Al  Al0  1  0.10707228  0.49950511  0.50037578  1  2.502372  0  0.401853  1.647244  0  2.577  0
Al  Al1  1  0.60707191  0.50049445  0.49962416  1  2.502504  0  0.401916  1.647257  0  2.576957  0
Al  Al2  1  0.70343378  0.00057753  0.99970023  1  2.500519  0  0.403071  1.647658  0  2.575893  0
Al  Al3  1  0.20343388  0.99942056  0.00029866  1  2.5005  0  0.403126  1.647759  0  2.57573  0
H  H4  1  0.62488102  0.89727295  0.10339630  1  0.118638  0  0.109098  0.11342  0  1.005286  0
H  H5  1  0.12487736  0.10272899  0.89660288  1  0.118509  0  0.109054  0.113356  0  1.005392  0
H  H6  1  0.60746266  0.83165721  0.16713257  1  0.030185  0  0.096836  0.09222  0  1.030957  0
H  H7  1  0.10745971  0.16834601  0.83286856  1  0.030025  0  0.096807  0.092195  0  1.030976  0
H  H8  1  0.25056358  0.82955072  0.17412108  1  0.038756  0  0.096591  0.091969  0  1.029728  0
H  H9  1  0.75055830  0.17044510  0.82587512  1  0.039296  0  0.096584  0.09202  0  1.029695  0
H  H10  1  0.26474671  0.89383846  0.10910711  1  0.092589  0  0.108272  0.111868  0  1.005698  0
H  H11  1  0.76474225  0.10615780  0.89088911  1  0.092651  0  0.108271  0.111848  0  1.005758  0
H  H12  1  0.18054939  0.73777093  0.18490593  1  0.065693  0  0.101217  0.100172  0  1.004867  0
H  H13  1  0.68056082  0.26222432  0.81508978  1  0.065777  0  0.101251  0.100202  0  1.004889  0
H  H14  1  0.15935513  0.67342384  0.24805708  1  0.065836  0  0.10093  0.099751  0  1.007028  0
H  H15  1  0.65937175  0.32657234  0.75193900  1  0.06571  0  0.100917  0.099736  0  1.007089  0
H  H16  1  0.62917972  0.76266181  0.31534418  1  0.062289  0  0.102709  0.102542  0  1.000762  0
H  H17  1  0.12917302  0.23734269  0.68465698  1  0.062231  0  0.102674  0.102497  0  1.000823  0
H  H18  1  0.65063835  0.82704372  0.25225049  1  0.063744  0  0.103918  0.104596  0  1.000235  0
H  H19  1  0.15062348  0.17296079  0.74775070  1  0.063745  0  0.103869  0.10452  0  1.000223  0
H  H20  1  0.55924918  0.67093342  0.32643213  1  0.030411  0  0.096427  0.092216  0  1.03026  0
H  H21  1  0.05925620  0.32907199  0.67357130  1  0.030357  0  0.096413  0.092245  0  1.030296  0
H  H22  1  0.54586663  0.60663833  0.39146062  1  0.092776  0  0.10712  0.110245  0  1.007676  0
H  H23  1  0.04586537  0.39336672  0.60854122  1  0.092809  0  0.107176  0.110299  0  1.007518  0
H  H24  1  0.18577564  0.60322667  0.39678126  1  0.118919  0  0.10828  0.112373  0  1.007093  0
H  H25  1  0.68577656  0.39676628  0.60321171  1  0.118453  0  0.108272  0.112317  0  1.007134  0
H  H26  1  0.20235607  0.66880586  0.33300639  1  0.028625  0  0.097035  0.093534  0  1.029613  0
H  H27  1  0.70236076  0.33118906  0.66698777  1  0.028644  0  0.097056  0.093516  0  1.029538  0
H  H28  1  0.81071898  0.77428135  0.66448152  1  0.051812  0  0.100232  0.103075  0  0.966111  0
H  H29  1  0.31063290  0.22571909  0.33551438  1  0.052378  0  0.100201  0.102935  0  0.966118  0
H  H30  1  0.86299995  0.84941610  0.73685963  1  0.049018  0  0.102566  0.112045  0  0.965594  0
H  H31  1  0.36290026  0.15058428  0.26313594  1  0.049609  0  0.102678  0.112259  0  0.965564  0
H  H32  1  0.22352215  0.75842187  0.79568034  1  0.099498  0  0.117139  0.09896  0  0.941182  0
H  H33  1  0.72355411  0.24155679  0.20433779  1  0.099609  0  0.117078  0.098966  0  0.941173  0
H  H34  1  0.15910668  0.74107908  0.68076899  1  0.075785  0  0.10532  0.113197  0  0.971901  0
H  H35  1  0.65905262  0.25890282  0.31924474  1  0.075989  0  0.105322  0.113289  0  0.971695  0
H  H36  1  0.19887038  0.68798452  0.71883770  1  0.049667  0  0.100045  0.103396  0  0.979111  0
H  H37  1  0.69889956  0.31199640  0.28117922  1  0.049999  0  0.099959  0.103231  0  0.979197  0
H  H38  1  0.68670099  0.75138851  0.82497790  1  0.024732  0  0.09867  0.1013  0  0.972813  0
H  H39  1  0.18676754  0.24862604  0.17501118  1  0.02511  0  0.098601  0.10133  0  0.972875  0
H  H40  1  0.92628425  0.72603199  0.83717335  1  0.052276  0  0.096209  0.093578  0  0.977005  0
H  H41  1  0.42638358  0.27396798  0.16282977  1  0.052137  0  0.09626  0.09366  0  0.976937  0
H  H42  1  0.65512923  0.67450853  0.75235943  1  0.054213  0  0.095287  0.09456  0  0.979064  0
H  H43  1  0.15520044  0.32550702  0.24763040  1  0.054481  0  0.09536  0.094611  0  0.979217  0
H  H44  1  0.64928367  0.82746484  0.76660996  1  0.05286  0  0.096239  0.107052  0  1.011601  0
H  H45  1  0.14922540  0.17254915  0.23337671  1  0.052378  0  0.096346  0.107198  0  1.011432  0
H  H46  1  0.60485922  0.74938416  0.69594155  1  0.024453  0  0.093414  0.093133  0  0.987954  0
H  H47  1  0.10481602  0.25063042  0.30404782  1  0.024762  0  0.093499  0.093132  0  0.988077  0
H  H48  1  0.89813889  0.65066012  0.76356867  1  0.030084  0  0.096526  0.096722  0  0.973319  0
H  H49  1  0.39824587  0.34933847  0.23643403  1  0.029818  0  0.096526  0.096769  0  0.97321  0
H  H50  1  0.35528905  0.57572681  0.51860094  1  0.635504  0  0.358042  0.436909  0  0.841893  0
H  H51  1  0.85529097  0.42427282  0.48139698  1  0.635481  0  0.358081  0.437147  0  0.841636  0
H  H52  1  0.45569154  0.92446574  0.98078088  1  0.634185  0  0.357328  0.435289  0  0.84493  0
H  H53  1  0.95568952  0.07553284  0.01921403  1  0.634266  0  0.3574  0.435387  0  0.844791  0
C  C54  1  0.45288984  0.07678765  0.07778574  1  1.684572  0  0.278415  0.726342  0  4.147908  0
C  C55  1  0.95288711  0.92320994  0.92221427  1  1.684351  0  0.278463  0.726483  0  4.147711  0
C  C56  1  0.35705777  0.42335486  0.42213566  1  1.686059  0  0.27628  0.727631  0  4.15104  0
C  C57  1  0.85704722  0.57664496  0.57786501  1  1.685945  0  0.276244  0.727516  0  4.15102  0
C  C58  1  0.35877821  0.43690411  0.56278348  1  1.566284  0  0.265037  0.64032  0  4.105312  0
C  C59  1  0.85877408  0.56309561  0.43721484  1  1.566467  0  0.265056  0.640407  0  4.105309  0
C  C60  1  0.76062398  0.88196354  0.11923834  1  -0.042645  0  -0.078396  -0.077189  0  3.975629  0
C  C61  1  0.26062162  0.11803774  0.88076142  1  -0.042582  0  -0.07834  -0.077077  0  3.975705  0
C  C62  1  0.75219414  0.84578744  0.15514636  1  -0.024422  0  -0.092276  -0.137865  0  3.99028  0
C  C63  1  0.25218984  0.15421468  0.84485339  1  -0.024314  0  -0.092238  -0.137856  0  3.990302  0
C  C64  1  0.92780519  0.82581438  0.17535715  1  -0.042431  0  -0.002138  0.078191  0  3.996543  0
C  C65  1  0.42780362  0.17418581  0.82464126  1  -0.042473  0  -0.002117  0.078254  0  3.996487  0
C  C66  1  0.11265036  0.84352780  0.15811777  1  -0.038321  0  -0.09231  -0.138553  0  3.986541  0
C  C67  1  0.61264679  0.15646988  0.84187943  1  -0.039626  0  -0.092341  -0.13867  0  3.986511  0
C  C68  1  0.12172993  0.87971716  0.12210761  1  -0.060931  0  -0.079796  -0.079494  0  3.975692  0
C  C69  1  0.62172681  0.12028010  0.87788960  1  -0.060166  0  -0.079711  -0.079376  0  3.975782  0
C  C70  1  0.94553714  0.89917528  0.10224139  1  0.049064  0  -0.017092  -0.051399  0  3.975032  0
C  C71  1  0.44553499  0.10082501  0.89775743  1  0.049102  0  -0.017139  -0.05146  0  3.975002  0
C  C72  1  0.06071548  0.74405062  0.21396486  1  -0.038318  0  -0.092383  -0.126988  0  4.001086  0
C  C73  1  0.56072338  0.25594712  0.78603266  1  -0.038003  0  -0.092341  -0.126923  0  4.001225  0
C  C74  1  0.04872930  0.70767204  0.24972272  1  -0.034613  0  -0.093455  -0.130761  0  4.005193  0
C  C75  1  0.54873974  0.29232578  0.75027518  1  -0.034603  0  -0.093506  -0.130839  0  4.00539  0
C  C76  1  0.89264277  0.71292605  0.28666347  1  -0.064332  0  -0.010418  0.061003  0  4.006755  0
C  C77  1  0.39264579  0.28707420  0.71333529  1  -0.06469  0  -0.010408  0.061036  0  4.006922  0
C  C78  1  0.74877166  0.75625204  0.28620716  1  -0.03156  0  -0.090991  -0.125282  0  3.994927  0
C  C79  1  0.24876849  0.24375092  0.71379259  1  -0.03192  0  -0.091001  -0.125302  0  3.995005  0
C  C80  1  0.76080713  0.79266375  0.25047060  1  -0.038944  0  -0.090499  -0.127262  0  3.992554  0
C  C81  1  0.26079993  0.20733888  0.74952956  1  -0.038882  0  -0.090421  -0.127129  0  3.992423  0
C  C82  1  0.91684066  0.78736980  0.21349427  1  -0.059785  0  -0.009004  0.064089  0  4.002911  0
C  C83  1  0.41684011  0.21262962  0.78650451  1  -0.059685  0  -0.008991  0.064058  0  4.002859  0
C  C84  1  0.69735955  0.65676725  0.34218942  1  -0.026169  0  -0.093416  -0.14091  0  3.988277  0
C  C85  1  0.19736338  0.34323527  0.65781223  1  -0.026069  0  -0.093375  -0.140966  0  3.988413  0
C  C86  1  0.68869670  0.62058961  0.37821414  1  -0.064456  0  -0.080122  -0.078651  0  3.980528  0
C  C87  1  0.18870457  0.37941248  0.62178749  1  -0.064399  0  -0.080133  -0.07862  0  3.980532  0
C  C88  1  0.86504859  0.60106611  0.39794571  1  0.0347  0  -0.019646  -0.056217  0  3.983318  0
C  C89  1  0.36505322  0.39893319  0.60205262  1  0.034507  0  -0.019655  -0.056226  0  3.983414  0
C  C90  1  0.04980564  0.61834543  0.38087829  1  -0.104647  0  -0.07999  -0.078869  0  3.981658  0
C  C91  1  0.54980826  0.38165110  0.61911764  1  -0.104537  0  -0.079984  -0.078833  0  3.981619  0
C  C92  1  0.05781278  0.65450926  0.34494941  1  0.046607  0  -0.093231  -0.139703  0  3.990672  0
C  C93  1  0.55781884  0.34548737  0.65504692  1  0.047473  0  -0.093239  -0.139668  0  3.99061  0
C  C94  1  0.88199191  0.67448242  0.32480295  1  -0.042995  0  -0.001993  0.080579  0  3.995232  0
C  C95  1  0.38199744  0.32551749  0.67519618  1  -0.043095  0  -0.002049  0.080545  0  3.995444  0
C  C96  1  0.79265432  0.81208723  0.74875884  1  0.000309  0  -0.155142  -0.198035  0  3.825279  0
C  C97  1  0.29259495  0.18791793  0.25123547  1  0.00017  0  -0.155413  -0.198362  0  3.825491  0
C  C98  1  0.13458804  0.77447061  0.76596647  1  0.07009  0  -0.047648  -0.046372  0  3.858921  0
C  C99  1  0.63457562  0.22551389  0.23404566  1  0.057962  0  -0.047602  -0.046351  0  3.858871  0
C  C100  1  0.10821290  0.72589799  0.71576070  1  -0.053266  0  -0.14351  -0.223838  0  3.813015  0
C  C101  1  0.60820012  0.27408852  0.28425101  1  -0.040945  0  -0.143391  -0.223758  0  3.813013  0
C  C102  1  0.85908058  0.62224652  0.62427565  1  0.118651  0  -0.051633  -0.222991  0  3.980603  0
C  C103  1  0.35908112  0.37775212  0.37572542  1  0.118653  0  -0.051634  -0.223029  0  3.980657  0
C  C104  1  0.92516379  0.79278476  0.79078650  1  0.127172  0  0.010408  0.151314  0  3.886325  0
C  C105  1  0.42515755  0.20721316  0.20921504  1  0.126785  0  0.010549  0.151338  0  3.886382  0
C  C106  1  0.76309478  0.76165903  0.70099449  1  -0.0301  0  -0.150711  -0.182709  0  3.834434  0
C  C107  1  0.26304546  0.23834721  0.29899900  1  -0.030453  0  -0.150752  -0.18257  0  3.834592  0
C  C108  1  0.88572048  0.70821243  0.70834192  1  0.13607  0  0.001779  0.172448  0  3.908304  0
C  C109  1  0.38572359  0.29178588  0.29165958  1  0.13547  0  0.001732  0.172296  0  3.908612  0
C  C110  1  0.81132152  0.68858412  0.75835667  1  -0.035422  0  -0.152237  -0.186698  0  3.850606  0
C  C111  1  0.31138209  0.31141979  0.24163963  1  -0.034936  0  -0.15226  -0.186727  0  3.850671  0
C  C112  1  0.83228820  0.73873480  0.80673737  1  -0.032826  0  -0.150599  -0.185844  0  3.851106  0
C  C113  1  0.33234617  0.26127024  0.19326013  1  -0.033696  0  -0.150642  -0.186016  0  3.851251  0
C  C114  1  0.86706001  0.66139812  0.66271417  1  -0.413194  0  -0.019328  -0.031096  0  4.02781  0
C  C115  1  0.36705818  0.33860197  0.33728769  1  -0.413105  0  -0.019333  -0.031021  0  4.027806  0
C  C116  1  0.94308044  0.83904878  0.83687675  1  4.8e-05  0  -0.022159  -0.042497  0  4.038247  0
C  C117  1  0.44308211  0.16094838  0.16312324  1  0.000376  0  -0.022137  -0.042484  0  4.038386  0
C  C118  1  0.95050723  0.87758455  0.87576703  1  -0.268551  0  -0.042345  -0.201773  0  3.961673  0
C  C119  1  0.45050802  0.12241424  0.12423455  1  -0.269115  0  -0.042423  -0.201797  0  3.96186  0
C  C120  1  0.45195935  0.06287815  0.93706042  1  1.563644  0  0.266988  0.642879  0  4.101563  0
C  C121  1  0.95195802  0.93712181  0.06293881  1  1.563656  0  0.266974  0.642852  0  4.10188  0
C  C122  1  0.23976670  0.82395990  0.75345597  1  0.833286  0  0.178421  0.244926  0  3.982246  0
C  C123  1  0.73970198  0.17601835  0.24656218  1  0.831572  0  0.178768  0.245464  0  3.981069  0
N  N124  1  0.32270067  0.86279629  0.74156673  1  -1.145198  0  -0.315083  -0.369686  0  2.722249  0
N  N125  1  0.82260758  0.13717907  0.25845349  1  -1.143749  0  -0.315455  -0.370192  0  2.721385  0
O  O126  1  0.52671176  0.45182176  0.54662210  1  -1.262454  0  -0.237976  -0.598625  0  2.360925  0
O  O127  1  0.02671602  0.54817442  0.45337420  1  -1.262334  0  -0.237968  -0.598678  0  2.360831  0
O  O128  1  0.18688687  0.44046923  0.44100914  1  -1.242803  0  -0.229252  -0.585131  0  2.277432  0
O  O129  1  0.68688487  0.55952812  0.55899405  1  -1.242691  0  -0.229175  -0.584983  0  2.27753  0
O  O130  1  0.18749575  0.45081630  0.54774829  1  -1.2614  0  -0.238682  -0.59776  0  2.338718  0
O  O131  1  0.68750376  0.54918588  0.45225373  1  -1.261555  0  -0.23869  -0.597838  0  2.338789  0
O  O132  1  0.02716657  0.55825575  0.55984084  1  -1.234854  0  -0.228136  -0.583374  0  2.279475  0
O  O133  1  0.52716934  0.44174586  0.44015704  1  -1.234889  0  -0.228092  -0.583341  0  2.279644  0
O  O134  1  0.78404070  0.95203943  0.04676620  1  -1.258602  0  -0.237745  -0.599778  0  2.360867  0
O  O135  1  0.28404075  0.04796383  0.95323675  1  -1.25857  0  -0.237799  -0.599827  0  2.360746  0
O  O136  1  0.35643443  0.53464603  0.50359388  1  -1.43708  0  -0.447849  -0.995782  0  2.201633  0
O  O137  1  0.85643533  0.46535311  0.49640561  1  -1.437078  0  -0.447873  -0.996053  0  2.201492  0
O  O138  1  0.62321458  0.05980024  0.05897817  1  -1.242057  0  -0.227585  -0.582947  0  2.274479  0
O  O139  1  0.12321598  0.94020084  0.94101905  1  -1.242031  0  -0.227635  -0.58307  0  2.274487  0
O  O140  1  0.45415633  0.96536784  0.99648861  1  -1.435442  0  -0.44769  -0.995059  0  2.201848  0
O  O141  1  0.95415532  0.03463083  0.00350866  1  -1.435453  0  -0.447727  -0.995135  0  2.201731  0
O  O142  1  0.28294108  0.05837623  0.05972974  1  -1.234018  0  -0.226541  -0.580847  0  2.2779  0
O  O143  1  0.78294025  0.94161922  0.94027240  1  -1.234009  0  -0.226557  -0.580871  0  2.277842  0
O  O144  1  0.62326273  0.04914423  0.95221310  1  -1.260053  0  -0.238829  -0.598851  0  2.33837  0
O  O145  1  0.12326342  0.95085235  0.04778293  1  -1.260172  0  -0.238799  -0.598798  0  2.338427  0
