# generated using pymatgen
data_MnH16C20(NO)4
_symmetry_space_group_name_H-M   'P 1'
_cell_length_a   11.82460892
_cell_length_b   11.82463567
_cell_length_c   16.19400424
_cell_angle_alpha   72.09024122
_cell_angle_beta   72.09001895
_cell_angle_gamma   79.09984479
_symmetry_Int_Tables_number   1
_chemical_formula_structural   MnH16C20(NO)4
_chemical_formula_sum   'Mn4 H64 C80 N16 O16'
_cell_volume   2038.93954791
_cell_formula_units_Z   4
loop_
 _symmetry_equiv_pos_site_id
 _symmetry_equiv_pos_as_xyz
  1  'x, y, z'
loop_
 _atom_site_type_symbol
 _atom_site_label
 _atom_site_symmetry_multiplicity
 _atom_site_fract_x
 _atom_site_fract_y
 _atom_site_fract_z
 _atom_site_occupancy
 _atom_site_pbe_bader_charge
 _atom_site_pbe_bader_spin_density
 _atom_site_pbe_cm5_charge
 _atom_site_pbe_ddec_charge
 _atom_site_pbe_ddec_spin_density
 _atom_site_pbe_ddec_sum_bond_order
 _atom_site_pbe_magmom
Mn  Mn0  1  0.11275429  0.33187188  0.54943846  1  1.51177  4.504336  0.61822  0.936652  4.642935  2.428643  4.43
Mn  Mn1  1  0.66813140  0.88724948  0.95055750  1  1.511772  4.504263  0.618201  0.936563  4.64286  2.428828  4.43
Mn  Mn2  1  0.88724581  0.66812792  0.45056257  1  1.511803  4.504301  0.618228  0.936677  4.64291  2.428647  4.43
Mn  Mn3  1  0.33187045  0.11275189  0.04944030  1  1.511885  4.504273  0.618217  0.936558  4.642898  2.428782  4.43
H  H4  1  0.66671020  0.92707803  0.53376904  1  0.484275  0.000427  0.298589  0.262241  -3.8e-05  1.006273  0.0
H  H5  1  0.07292143  0.33328640  0.96623320  1  0.484264  0.000427  0.298588  0.262221  -3.8e-05  1.006289  0.0
H  H6  1  0.33328632  0.07292390  0.46623295  1  0.484255  0.000427  0.298615  0.26228  -3.8e-05  1.006203  0.0
H  H7  1  0.92707958  0.66671064  0.03376826  1  0.484284  0.000427  0.298629  0.262289  -3.8e-05  1.006199  0.0
H  H8  1  0.30078282  0.15835921  0.78407862  1  0.082859  0.000563  0.099524  0.098721  -4e-05  1.083153  0.0
H  H9  1  0.84163993  0.69921651  0.71592201  1  0.082969  0.000563  0.099507  0.09866  -4e-05  1.08315  0.0
H  H10  1  0.69921731  0.84163525  0.21592302  1  0.082927  0.000563  0.099527  0.098723  -4e-05  1.083235  0.0
H  H11  1  0.15836105  0.30078497  0.28407782  1  0.082857  0.000563  0.0995  0.098667  -4e-05  1.08317  0.0
H  H12  1  0.48365802  0.06970565  0.53434826  1  0.0486  0.000524  0.103031  0.11094  0.000212  1.028969  0.0
H  H13  1  0.93029498  0.51634141  0.96565294  1  0.048517  0.000524  0.103029  0.110927  0.000212  1.028946  0.0
H  H14  1  0.51634115  0.93029778  0.46565092  1  0.048578  0.000523  0.103047  0.110956  0.000212  1.028978  0.0
H  H15  1  0.06970692  0.48365644  0.03434813  1  0.048616  0.000524  0.103056  0.110998  0.000212  1.028908  0.0
H  H16  1  0.65645907  0.97969769  0.74953394  1  0.116532  0.000127  0.108672  0.123228  2e-05  1.04416  0.0
H  H17  1  0.02030713  0.34354162  0.75046619  1  0.116526  0.000127  0.10865  0.123203  2e-05  1.044198  0.0
H  H18  1  0.34354013  0.02030308  0.25046707  1  0.11651  0.000127  0.108661  0.123183  2e-05  1.044244  0.0
H  H19  1  0.97969474  0.65646067  0.24953386  1  0.116507  0.000127  0.108636  0.123207  2e-05  1.044176  0.0
H  H20  1  0.83596158  0.84683355  0.57212010  1  0.117912  0.000639  0.119519  0.108164  0.000246  1.003941  0.0
H  H21  1  0.15316418  0.16403590  0.92788083  1  0.118121  0.000639  0.119538  0.108166  0.000246  1.003939  0.0
H  H22  1  0.16403405  0.15316668  0.42788125  1  0.118076  0.000639  0.119535  0.108175  0.000246  1.003896  0.0
H  H23  1  0.84683054  0.83596262  0.07211865  1  0.117874  0.000639  0.119516  0.108191  0.000246  1.003913  0.0
H  H24  1  0.76761844  0.85939665  0.68270369  1  0.075157  0.000462  0.106477  0.090514  -2.1e-05  1.034868  0.0
H  H25  1  0.14060163  0.23237697  0.81729829  1  0.075378  0.000462  0.106472  0.0905  -2.1e-05  1.034841  0.0
H  H26  1  0.23237811  0.14059995  0.31729890  1  0.075121  0.000462  0.106466  0.090463  -2.1e-05  1.034796  0.0
H  H27  1  0.85939757  0.76762201  0.18270190  1  0.075366  0.000462  0.106481  0.090502  -2.1e-05  1.03476  0.0
H  H28  1  0.77822702  0.14399747  0.50358589  1  0.097478  0.000492  0.104352  0.116144  0.000245  1.037354  0.0
H  H29  1  0.85599645  0.22177392  0.99641504  1  0.097432  0.000492  0.104316  0.116068  0.000245  1.037371  0.0
H  H30  1  0.22177128  0.85600159  0.49641388  1  0.097483  0.000492  0.104356  0.11614  0.000245  1.037334  0.0
H  H31  1  0.14399828  0.77822730  0.00358690  1  0.097462  0.000492  0.104341  0.116122  0.000245  1.037334  0.0
H  H32  1  0.97061052  0.89507236  0.68401244  1  0.096361  0.000738  0.11128  0.124761  0.000313  0.991978  0.0
H  H33  1  0.10492503  0.02938878  0.81598929  1  0.096411  0.000738  0.11131  0.124818  0.000312  0.991969  0.0
H  H34  1  0.02938511  0.10492609  0.31598870  1  0.096304  0.000738  0.111298  0.124806  0.000312  0.991996  0.0
H  H35  1  0.89507147  0.97061492  0.18401106  1  0.096353  0.000738  0.11128  0.124769  0.000312  0.991962  0.0
H  H36  1  0.09411001  0.05848237  0.65889913  1  0.093792  0.001209  0.116935  0.082426  0.000473  1.010153  0.001
H  H37  1  0.94151707  0.90589010  0.84110260  1  0.093836  0.001209  0.116947  0.082453  0.000474  1.010162  0.001
H  H38  1  0.90588563  0.94151609  0.34110324  1  0.093922  0.001209  0.116909  0.082369  0.000474  1.010182  0.001
H  H39  1  0.05848123  0.09411255  0.15889881  1  0.093775  0.001209  0.116956  0.082439  0.000473  1.010107  0.001
H  H40  1  0.90918424  0.29614235  0.48570825  1  0.100871  0.001631  0.116744  0.083833  0.000854  1.011371  0.001
H  H41  1  0.70385031  0.09081596  0.01429184  1  0.101067  0.001631  0.116784  0.083905  0.000854  1.011252  0.001
H  H42  1  0.09081408  0.70385406  0.51429273  1  0.101143  0.00163  0.116808  0.083971  0.000854  1.011203  0.001
H  H43  1  0.29614443  0.90918347  0.98570989  1  0.101168  0.001631  0.116771  0.083833  0.000854  1.01139  0.001
H  H44  1  0.43119463  0.64551993  0.48773402  1  0.147186  0.000893  0.123933  0.139795  0.00045  0.976298  0.001
H  H45  1  0.35451051  0.56880763  0.01225349  1  0.146209  0.000895  0.123942  0.139856  0.000451  0.976193  0.001
H  H46  1  0.56881438  0.35447986  0.51226373  1  0.146639  0.000894  0.123919  0.13978  0.000451  0.976333  0.001
H  H47  1  0.64550116  0.43118828  0.98773899  1  0.146546  0.000894  0.123916  0.13978  0.000451  0.976286  0.001
H  H48  1  0.38403974  0.62726828  0.31450079  1  0.084158  0.000147  0.108656  0.137262  -7.2e-05  1.004748  0.0
H  H49  1  0.37273384  0.61596092  0.18549240  1  0.084429  0.000147  0.108645  0.137266  -7.3e-05  1.004878  0.0
H  H50  1  0.61595945  0.37273338  0.68549941  1  0.084108  0.000147  0.108673  0.137273  -7.3e-05  1.004803  0.0
H  H51  1  0.62726357  0.38402840  0.81450487  1  0.084181  0.000147  0.108632  0.137148  -7.2e-05  1.004772  0.0
H  H52  1  0.49147117  0.71955628  0.32097154  1  0.150113  0.000393  0.103771  0.138404  0.000203  1.055991  0.0
H  H53  1  0.28046068  0.50853465  0.17900839  1  0.146358  0.000397  0.103798  0.138403  0.000203  1.05612  0.0
H  H54  1  0.50853155  0.28044946  0.67902567  1  0.150224  0.000393  0.103795  0.138452  0.000203  1.05591  0.0
H  H55  1  0.71954200  0.49146210  0.82098102  1  0.150378  0.000393  0.103753  0.138349  0.000203  1.055965  0.0
H  H56  1  0.68315477  0.50540129  0.15256797  1  0.076846  4.9e-05  0.102641  0.136291  -3e-06  1.010766  0.0
H  H57  1  0.49460215  0.31684389  0.34742986  1  0.07646  4.9e-05  0.102644  0.136289  -3e-06  1.010805  0.0
H  H58  1  0.31684621  0.49459662  0.84743083  1  0.076874  4.9e-05  0.102627  0.136228  -3e-06  1.010766  0.0
H  H59  1  0.50540507  0.68315696  0.65256745  1  0.076873  4.9e-05  0.102654  0.136284  -3e-06  1.010692  0.0
H  H60  1  0.68077307  0.66569874  0.14799382  1  0.141106  0.000122  0.109183  0.154542  -0.000327  1.021376  0.0
H  H61  1  0.33430022  0.31922833  0.35201014  1  0.141083  0.000122  0.10918  0.154552  -0.000327  1.021348  0.0
H  H62  1  0.31923156  0.33429621  0.85201161  1  0.141048  0.000122  0.109167  0.154515  -0.000327  1.021406  0.0
H  H63  1  0.66570619  0.68076645  0.64799430  1  0.141483  0.000122  0.109169  0.154498  -0.000327  1.021424  0.0
H  H64  1  0.73424704  0.60338749  0.29345829  1  0.140787  0.000137  0.116793  0.131547  -0.00029  1.00852  0.0
H  H65  1  0.39660888  0.26574878  0.20654557  1  0.140708  0.000137  0.116783  0.131495  -0.00029  1.008497  0.0
H  H66  1  0.26574866  0.39660388  0.70654755  1  0.140649  0.000137  0.116751  0.131478  -0.00029  1.008477  0.0
H  H67  1  0.60339833  0.73425475  0.79345235  1  0.140599  0.000137  0.116737  0.131501  -0.00029  1.008464  0.0
C  C68  1  0.47834248  0.06809185  0.77540066  1  -0.021035  0.001352  -0.026667  -0.037853  0.000156  4.041047  0.0
C  C69  1  0.93190582  0.52165539  0.72460159  1  -0.020997  0.001352  -0.026647  -0.037862  0.000156  4.041039  0.0
C  C70  1  0.52165581  0.93190721  0.22459849  1  -0.021105  0.001352  -0.026685  -0.037781  0.000156  4.040936  0.0
C  C71  1  0.06809340  0.47834540  0.27540127  1  -0.021259  0.001351  -0.026634  -0.037691  0.000155  4.041027  0.0
C  C72  1  0.58080285  0.00949252  0.63656057  1  0.449143  -0.000543  0.099869  0.237843  -0.000709  4.101357  -0.001
C  C73  1  0.99050852  0.41919660  0.86344098  1  0.448631  -0.000542  0.099803  0.237693  -0.000709  4.101364  -0.001
C  C74  1  0.41919721  0.99051172  0.36343822  1  0.449223  -0.000542  0.099924  0.237947  -0.000709  4.101272  -0.001
C  C75  1  0.00949426  0.58080473  0.13656032  1  0.448166  -0.000542  0.099894  0.237817  -0.000709  4.101202  -0.001
C  C76  1  0.37829212  0.11746666  0.74286554  1  -0.042232  0.008856  -0.105456  -0.163217  0.006492  3.996157  0.005
C  C77  1  0.88253366  0.62170717  0.75713470  1  -0.042344  0.008854  -0.105436  -0.16313  0.00649  3.996135  0.005
C  C78  1  0.62170886  0.88253214  0.25713367  1  -0.042392  0.008854  -0.105393  -0.163227  0.00649  3.996086  0.005
C  C79  1  0.11746555  0.37829361  0.24286693  1  -0.042209  0.008856  -0.105419  -0.163227  0.006492  3.996043  0.005
C  C80  1  0.38136376  0.11818879  0.65551418  1  -0.070609  -0.001347  -0.028402  -0.028462  -0.002331  4.049729  -0.002
C  C81  1  0.88181383  0.61863596  0.84448543  1  -0.070504  -0.001347  -0.028433  -0.028483  -0.002331  4.049664  -0.002
C  C82  1  0.61863363  0.88181214  0.34448536  1  -0.070604  -0.001347  -0.028546  -0.028519  -0.002331  4.049598  -0.002
C  C83  1  0.11818894  0.38136446  0.15551424  1  -0.070718  -0.001347  -0.028374  -0.028347  -0.002331  4.049585  -0.002
C  C84  1  0.48111400  0.06468086  0.60320368  1  -0.017852  0.008094  -0.094854  -0.198965  0.006273  3.919325  0.005
C  C85  1  0.93531841  0.51888275  0.89679722  1  -0.017038  0.008093  -0.094773  -0.198806  0.006272  3.91916  0.005
C  C86  1  0.51888250  0.93532105  0.39679584  1  -0.017753  0.008092  -0.094847  -0.198994  0.006272  3.919346  0.005
C  C87  1  0.06468438  0.48111590  0.10320408  1  -0.016961  0.008094  -0.094932  -0.199081  0.006273  3.919345  0.005
C  C88  1  0.57947937  0.01582725  0.72264180  1  -0.040133  0.00733  -0.09591  -0.211372  0.00568  3.907917  0.004
C  C89  1  0.98417462  0.42051778  0.77736071  1  -0.040154  0.00733  -0.095918  -0.211344  0.00568  3.907847  0.004
C  C90  1  0.42051979  0.98417618  0.27735676  1  -0.040062  0.00733  -0.095947  -0.211414  0.00568  3.907883  0.004
C  C91  1  0.01582817  0.57948177  0.22264099  1  -0.039474  0.00733  -0.095928  -0.21141  0.00568  3.907883  0.004
C  C92  1  0.28137717  0.18476833  0.61605743  1  1.541397  0.007942  0.201889  0.55236  0.009326  4.215612  0.006
C  C93  1  0.81523591  0.71862377  0.88394109  1  1.540518  0.007945  0.201891  0.55236  0.009326  4.21573  0.006
C  C94  1  0.71862203  0.81523155  0.38394379  1  1.54121  0.007941  0.201974  0.552407  0.009325  4.215623  0.006
C  C95  1  0.18476687  0.28137577  0.11606001  1  1.540882  0.007943  0.201841  0.552287  0.009326  4.215704  0.006
C  C96  1  0.78553452  0.91008164  0.61118874  1  0.320596  0.000515  -0.055242  -0.080044  0.000329  3.938934  0.0
C  C97  1  0.08991523  0.21446343  0.88881178  1  0.32048  0.000515  -0.055207  -0.079958  0.000329  3.938802  0.0
C  C98  1  0.21446381  0.08991656  0.38881369  1  0.320542  0.000515  -0.055266  -0.080009  0.000329  3.938719  0.0
C  C99  1  0.91008216  0.78553749  0.11118714  1  0.32068  0.000515  -0.055269  -0.08005  0.000329  3.938723  0.0
C  C100  1  0.86258422  0.00666611  0.59668258  1  -0.0238  0.005776  0.015317  0.150875  0.004335  3.914347  0.004
C  C101  1  0.99332907  0.13741599  0.90331860  1  -0.023745  0.005778  0.015306  0.150926  0.004337  3.914299  0.004
C  C102  1  0.13741409  0.99333297  0.40331841  1  -0.023762  0.005777  0.015309  0.150941  0.004336  3.914119  0.004
C  C103  1  0.00666654  0.86258601  0.09668173  1  -0.023785  0.005777  0.015337  0.150932  0.004336  3.91424  0.004
C  C104  1  0.47836884  0.07628092  0.86602470  1  1.554272  0.031338  0.225883  0.597462  0.030662  4.15646  0.027
C  C105  1  0.92371722  0.52162531  0.63397831  1  1.554456  0.031333  0.225849  0.597414  0.030655  4.156869  0.027
C  C106  1  0.52162591  0.92371495  0.13397723  1  1.554715  0.031325  0.225787  0.597222  0.030656  4.156869  0.027
C  C107  1  0.07628467  0.47837432  0.36602297  1  1.554712  0.031329  0.225783  0.597155  0.030661  4.156857  0.027
C  C108  1  0.84639587  0.12107269  0.54011218  1  0.022003  -3.8e-05  -0.087989  -0.185441  -0.00052  3.958413  0.0
C  C109  1  0.87892039  0.15360578  0.95988744  1  0.02204  -3.8e-05  -0.088036  -0.185477  -0.000521  3.958405  0.0
C  C110  1  0.15360153  0.87892557  0.45988735  1  0.022066  -3.8e-05  -0.088092  -0.18561  -0.00052  3.958481  0.0
C  C111  1  0.12107433  0.84639543  0.04011389  1  0.021963  -3.8e-05  -0.088031  -0.185491  -0.00052  3.958383  0.0
C  C112  1  0.95385544  0.98321524  0.63972796  1  -0.01709  0.000149  -0.082718  -0.180761  -0.000396  3.94167  0.0
C  C113  1  0.01678259  0.04614536  0.86027220  1  -0.017065  0.000148  -0.082768  -0.180928  -0.000396  3.941655  0.0
C  C114  1  0.04613929  0.01678508  0.36027418  1  -0.016978  0.000148  -0.082708  -0.180846  -0.000396  3.941476  0.0
C  C115  1  0.98321570  0.95385728  0.13972798  1  -0.017029  0.000149  -0.082729  -0.18087  -0.000396  3.941551  0.0
C  C116  1  0.02289915  0.07358414  0.62591604  1  0.462975  0.006904  0.050145  0.098673  0.005443  3.962589  0.005
C  C117  1  0.92641249  0.97709846  0.87408700  1  0.463145  0.006906  0.050192  0.098757  0.005444  3.962524  0.005
C  C118  1  0.97709561  0.92641353  0.37408794  1  0.462973  0.006905  0.050223  0.098839  0.005443  3.962384  0.005
C  C119  1  0.07358494  0.02290161  0.12591582  1  0.462981  0.006905  0.050132  0.098761  0.005443  3.962436  0.005
C  C120  1  0.91935559  0.20641807  0.52981829  1  0.444622  0.007539  0.049311  0.099604  0.00609  3.947695  0.005
C  C121  1  0.79357358  0.08064640  0.97018345  1  0.444381  0.00754  0.049316  0.099643  0.006091  3.947598  0.005
C  C122  1  0.08064274  0.79357834  0.47018393  1  0.443852  0.007542  0.049333  0.099632  0.00609  3.94761  0.005
C  C123  1  0.20642117  0.91935483  0.02981972  1  0.444463  0.007539  0.049328  0.099713  0.00609  3.947843  0.005
C  C124  1  0.30472836  0.53585309  0.49045248  1  0.841193  0.035714  0.222644  0.332997  0.028324  3.977901  0.027
C  C125  1  0.46416186  0.69528350  0.00954134  1  0.840669  0.035746  0.222506  0.332668  0.028351  3.978364  0.027
C  C126  1  0.69527703  0.46415506  0.50954418  1  0.841245  0.035728  0.222585  0.332889  0.028337  3.97842  0.027
C  C127  1  0.53584180  0.30471682  0.99045752  1  0.840957  0.035744  0.222511  0.332668  0.028349  3.97848  0.027
C  C128  1  0.39321674  0.61599166  0.44536274  1  0.004249  -0.003481  -0.072311  -0.113445  -0.003596  4.085213  -0.003
C  C129  1  0.38404043  0.60678524  0.05462138  1  0.005721  -0.00349  -0.072146  -0.113184  -0.003605  4.085206  -0.003
C  C130  1  0.60678773  0.38402101  0.55463248  1  0.004832  -0.003485  -0.072257  -0.113369  -0.003601  4.085268  -0.003
C  C131  1  0.61596944  0.39320817  0.94537023  1  0.005308  -0.003488  -0.072181  -0.113238  -0.003603  4.085305  -0.003
C  C132  1  0.42506533  0.65621719  0.35521652  1  -0.023918  0.015118  -0.120263  -0.191742  0.01216  3.749364  0.009
C  C133  1  0.34379704  0.57493808  0.14477324  1  -0.019977  0.015144  -0.120316  -0.191847  0.012185  3.749705  0.009
C  C134  1  0.57493651  0.34379042  0.64478170  1  -0.023836  0.015133  -0.120274  -0.191778  0.012173  3.74926  0.009
C  C135  1  0.65620301  0.42505719  0.85522082  1  -0.024025  0.015144  -0.120254  -0.191619  0.012181  3.749345  0.009
C  C136  1  0.69296904  0.57153891  0.18361104  1  -0.155282  0.000334  -0.134921  -0.213681  0.000177  3.744124  0.0
C  C137  1  0.42846061  0.30703289  0.31638946  1  -0.154897  0.000334  -0.134921  -0.213736  0.000178  3.744048  0.0
C  C138  1  0.30703467  0.42845520  0.81639047  1  -0.155366  0.000334  -0.134928  -0.213616  0.000177  3.744114  0.0
C  C139  1  0.57154485  0.69296637  0.68361046  1  -0.155787  0.000334  -0.134943  -0.21359  0.000177  3.743949  0.0
C  C140  1  0.72105146  0.53809558  0.26268502  1  0.10639  0.000315  -0.078207  -0.103697  0.00025  4.08295  0.0
C  C141  1  0.46190413  0.27895023  0.23731482  1  0.106495  0.000315  -0.078203  -0.10354  0.00025  4.082737  0.0
C  C142  1  0.27894779  0.46189899  0.73731865  1  0.106497  0.000315  -0.078073  -0.103516  0.00025  4.082693  0.0
C  C143  1  0.53810128  0.72105436  0.76268204  1  0.106531  0.000315  -0.078048  -0.103607  0.00025  4.082672  0.0
C  C144  1  0.73601936  0.41639071  0.31197279  1  0.854843  0.000115  0.180543  0.286534  6.2e-05  4.050573  0.0
C  C145  1  0.58360957  0.26398081  0.18802649  1  0.854847  0.000115  0.18043  0.286363  6.2e-05  4.050498  0.0
C  C146  1  0.26397451  0.58360258  0.68802993  1  0.854953  0.000115  0.180492  0.286428  6.2e-05  4.050491  0.0
C  C147  1  0.41639758  0.73603250  0.81196858  1  0.854809  0.000115  0.180504  0.286451  6.2e-05  4.050557  0.0
N  N148  1  0.67644648  0.95478508  0.58482183  1  -1.250044  0.000193  -0.443174  -0.331784  -8.5e-05  3.612515  0.0
N  N149  1  0.04521309  0.32355035  0.91518005  1  -1.250316  0.000193  -0.44317  -0.331796  -8.5e-05  3.612483  0.0
N  N150  1  0.32355273  0.04521392  0.41517959  1  -1.249959  0.000193  -0.44317  -0.331826  -8.5e-05  3.61237  0.0
N  N151  1  0.95478790  0.67644847  0.08482039  1  -1.250283  0.000193  -0.443169  -0.331788  -8.5e-05  3.612301  0.0
N  N152  1  0.00612165  0.18420390  0.57226786  1  -1.285397  0.053597  -0.326676  -0.259685  0.036255  3.524557  0.019
N  N153  1  0.81579369  0.99387968  0.92773240  1  -1.285591  0.0536  -0.326691  -0.259754  0.036254  3.524719  0.019
N  N154  1  0.99387578  0.81579350  0.42773434  1  -1.285065  0.053593  -0.326723  -0.259805  0.036255  3.524553  0.019
N  N155  1  0.18420550  0.00612019  0.07226759  1  -1.285576  0.053598  -0.326665  -0.25975  0.036254  3.524777  0.019
N  N156  1  0.23053971  0.47114210  0.52730097  1  -1.215643  0.039982  -0.288742  -0.371577  0.024075  3.066122  0.002
N  N157  1  0.52886578  0.76947991  0.97268661  1  -1.215876  0.03997  -0.288705  -0.371391  0.02406  3.066403  0.002
N  N158  1  0.76947018  0.52886027  0.47269537  1  -1.215887  0.039983  -0.288746  -0.371529  0.02407  3.066456  0.002
N  N159  1  0.47114055  0.23051924  0.02731067  1  -1.215816  0.039975  -0.288668  -0.371319  0.024062  3.066432  0.002
N  N160  1  0.74506611  0.31765280  0.35592412  1  -1.181394  0.000472  -0.315751  -0.397509  0.000265  2.744762  0.0
N  N161  1  0.68235025  0.25492554  0.14407266  1  -1.181289  0.000472  -0.315622  -0.397386  0.000265  2.744612  0.0
N  N162  1  0.25492328  0.68234360  0.64407953  1  -1.181344  0.000472  -0.315758  -0.39748  0.000264  2.744704  0.0
N  N163  1  0.31765505  0.74508967  0.85591684  1  -1.181103  0.000472  -0.315803  -0.397512  0.000265  2.744726  0.0
O  O164  1  0.28697744  0.19297748  0.53440208  1  -1.197748  0.046943  -0.311267  -0.56538  0.034507  2.220751  0.026
O  O165  1  0.80701975  0.71302353  0.96559928  1  -1.197724  0.046949  -0.311296  -0.565443  0.034508  2.220753  0.026
O  O166  1  0.71301909  0.80702268  0.46560031  1  -1.197805  0.046943  -0.311312  -0.565435  0.034507  2.220761  0.026
O  O167  1  0.19297945  0.28697725  0.03440235  1  -1.197713  0.04695  -0.311255  -0.565405  0.034507  2.220818  0.026
O  O168  1  0.19226628  0.23685626  0.66444036  1  -1.202664  0.05361  -0.31453  -0.565042  0.038485  2.25395  0.028
O  O169  1  0.76315302  0.80773379  0.83555674  1  -1.202217  0.053601  -0.31452  -0.565013  0.038482  2.254063  0.028
O  O170  1  0.80773201  0.76314549  0.33556002  1  -1.202594  0.053609  -0.31453  -0.565034  0.038483  2.253993  0.028
O  O171  1  0.23685156  0.19226378  0.16444316  1  -1.202432  0.05361  -0.314513  -0.564948  0.03848  2.25392  0.028
O  O172  1  0.57301677  0.03988500  0.89235017  1  -1.2178  0.080937  -0.319159  -0.570843  0.057263  2.378779  0.038
O  O173  1  0.96011632  0.42698406  0.60765165  1  -1.217575  0.080921  -0.319141  -0.570779  0.057257  2.37897  0.038
O  O174  1  0.42697980  0.96010715  0.10765343  1  -1.21787  0.080931  -0.319119  -0.570726  0.057256  2.378884  0.038
O  O175  1  0.03988733  0.57301984  0.39234762  1  -1.217879  0.080935  -0.319132  -0.570729  0.057259  2.378895  0.038
O  O176  1  0.38214869  0.12289080  0.91171248  1  -1.205104  0.079423  -0.311704  -0.561329  0.055894  2.350229  0.038
O  O177  1  0.87710239  0.61784444  0.58829205  1  -1.205425  0.079422  -0.31166  -0.561351  0.055894  2.350304  0.038
O  O178  1  0.61784695  0.87710408  0.08828886  1  -1.205491  0.079421  -0.311635  -0.561249  0.055892  2.350246  0.038
O  O179  1  0.12289772  0.38215448  0.41171042  1  -1.205447  0.079419  -0.311622  -0.561213  0.055891  2.350261  0.038
