# generated using pymatgen
data_CdH12C6(BrN)3
_symmetry_space_group_name_H-M   'P 1'
_cell_length_a   8.06531431
_cell_length_b   8.66515587
_cell_length_c   16.88262961
_cell_angle_alpha   89.99982185
_cell_angle_beta   95.51960469
_cell_angle_gamma   90.00006037
_symmetry_Int_Tables_number   1
_chemical_formula_structural   CdH12C6(BrN)3
_chemical_formula_sum   'Cd4 H48 C24 Br12 N12'
_cell_volume   1174.40911246
_cell_formula_units_Z   4
loop_
 _symmetry_equiv_pos_site_id
 _symmetry_equiv_pos_as_xyz
  1  'x, y, z'
loop_
 _atom_site_type_symbol
 _atom_site_label
 _atom_site_symmetry_multiplicity
 _atom_site_fract_x
 _atom_site_fract_y
 _atom_site_fract_z
 _atom_site_occupancy
 _atom_site_hle17_bader_spin_density
 _atom_site_hle17_ddec_charge
 _atom_site_hle17_ddec_spin_density
 _atom_site_hle17_ddec_sum_bond_order
 _atom_site_hle17_magmom
 _atom_site_hse06_10hf_bader_spin_density
 _atom_site_hse06_10hf_ddec_charge
 _atom_site_hse06_10hf_ddec_spin_density
 _atom_site_hse06_10hf_ddec_sum_bond_order
 _atom_site_hse06_10hf_magmom
 _atom_site_hse06_bader_spin_density
 _atom_site_hse06_ddec_charge
 _atom_site_hse06_ddec_spin_density
 _atom_site_hse06_ddec_sum_bond_order
 _atom_site_hse06_magmom
 _atom_site_pbe_bader_spin_density
 _atom_site_pbe_cm5_charge
 _atom_site_pbe_ddec_charge
 _atom_site_pbe_ddec_spin_density
 _atom_site_pbe_ddec_sum_bond_order
 _atom_site_pbe_magmom
Cd  Cd0  1  0.78713315  0.03288322  0.19414068  1  0  0.861806  0  2.003403  0  0  0.71249  0  2.444842  0  0  0.761133  0  2.406085  0  0  0.49383  0.678597  0  2.470668  0
Cd  Cd1  1  0.21286622  0.03288722  0.30585884  1  0  0.861811  0  2.003411  0  0  0.712492  0  2.444833  0  0  0.761137  0  2.40608  0  0  0.493849  0.678599  0  2.470662  0
Cd  Cd2  1  0.21286754  0.96711589  0.80585884  1  0  0.861806  0  2.003399  0  0  0.712483  0  2.444827  0  0  0.761128  0  2.406072  0  0  0.493832  0.678592  0  2.470649  0
Cd  Cd3  1  0.78713322  0.96711766  0.69414061  1  0  0.86182  0  2.003363  0  0  0.712503  0  2.444797  0  0  0.761146  0  2.406044  0  0  0.493832  0.678609  0  2.470621  0
H  H4  1  0.41251998  0.22224621  0.14304124  1  0  0.097571  0  0.979161  0  0  0.101895  0  1.054304  0  0  0.104932  0  1.050331  0  0  0.112006  0.099564  0  1.057315  0
H  H5  1  0.58748584  0.22224449  0.35695236  1  0  0.097661  0  0.979123  0  0  0.101983  0  1.054265  0  0  0.105021  0  1.05029  0  0  0.112036  0.099653  0  1.057279  0
H  H6  1  0.58748701  0.77775406  0.85695265  1  0  0.097603  0  0.979088  0  0  0.101926  0  1.054238  0  0  0.104964  0  1.050264  0  0  0.112018  0.099595  0  1.057251  0
H  H7  1  0.41251491  0.77775577  0.64304183  1  0  0.097617  0  0.979022  0  0  0.101933  0  1.054189  0  0  0.104971  0  1.050212  0  0  0.112027  0.0996  0  1.057204  0
H  H8  1  0.66174928  0.65322641  0.15978565  1  0  0.112127  0  0.998858  0  0  0.116317  0  1.071954  0  0  0.11933  0  1.069835  0  0  0.099422  0.114095  0  1.073597  0
H  H9  1  0.33825801  0.65323032  0.34021918  1  0  0.11217  0  0.998745  0  0  0.116357  0  1.071839  0  0  0.119371  0  1.06972  0  0  0.099418  0.114135  0  1.073481  0
H  H10  1  0.33825010  0.34677270  0.84021914  1  0  0.112144  0  0.998775  0  0  0.116299  0  1.071904  0  0  0.11931  0  1.069789  0  0  0.099406  0.114078  0  1.073545  0
H  H11  1  0.66174888  0.34677110  0.65978301  1  0  0.112132  0  0.998708  0  0  0.116302  0  1.071834  0  0  0.119314  0  1.069719  0  0  0.099398  0.114081  0  1.073477  0
H  H12  1  0.89377830  0.41501145  0.18557085  1  0  0.096618  0  0.981635  0  0  0.102326  0  1.052158  0  0  0.105518  0  1.049596  0  0  0.098862  0.099965  0  1.054184  0
H  H13  1  0.10622631  0.41501530  0.31443364  1  0  0.096631  0  0.981624  0  0  0.102349  0  1.052144  0  0  0.105537  0  1.049576  0  0  0.098901  0.099992  0  1.054162  0
H  H14  1  0.10622360  0.58499112  0.81443228  1  0  0.096631  0  0.981567  0  0  0.102326  0  1.052106  0  0  0.105516  0  1.04954  0  0  0.098886  0.099967  0  1.054127  0
H  H15  1  0.89377183  0.58499304  0.68557049  1  0  0.096655  0  0.981532  0  0  0.102324  0  1.052094  0  0  0.105513  0  1.049529  0  0  0.098885  0.099967  0  1.054113  0
H  H16  1  0.33292720  0.63550350  0.17452039  1  0  0.070944  0  0.961063  0  0  0.081481  0  1.034523  0  0  0.082633  0  1.033855  0  0  0.093981  0.080475  0  1.035266  0
H  H17  1  0.66708138  0.63550321  0.32547920  1  0  0.071008  0  0.961116  0  0  0.081584  0  1.034518  0  0  0.08273  0  1.033878  0  0  0.094023  0.08057  0  1.035252  0
H  H18  1  0.66707724  0.36449677  0.82547812  1  0  0.070974  0  0.96109  0  0  0.081527  0  1.034538  0  0  0.082681  0  1.033875  0  0  0.094015  0.080532  0  1.035253  0
H  H19  1  0.33292306  0.36449937  0.67451991  1  0  0.070953  0  0.961043  0  0  0.081519  0  1.034491  0  0  0.082674  0  1.033823  0  0  0.093995  0.080495  0  1.03525  0
H  H20  1  0.23558007  0.45768792  0.14528741  1  0  0.07675  0  0.946285  0  0  0.089694  0  1.01472  0  0  0.09089  0  1.014093  0  0  0.099739  0.08871  0  1.015322  0
H  H21  1  0.76442960  0.45768640  0.35471370  1  0  0.076873  0  0.946133  0  0  0.089812  0  1.014591  0  0  0.091012  0  1.013967  0  0  0.099802  0.088828  0  1.015193  0
H  H22  1  0.76442435  0.54231234  0.85471347  1  0  0.076832  0  0.946212  0  0  0.089795  0  1.014644  0  0  0.090994  0  1.01402  0  0  0.099786  0.088798  0  1.01526  0
H  H23  1  0.23557483  0.54231617  0.64528540  1  0  0.076825  0  0.946171  0  0  0.089771  0  1.014634  0  0  0.090969  0  1.01401  0  0  0.099789  0.088786  0  1.015235  0
H  H24  1  0.39984399  0.67863878  0.03239470  1  0  0.094571  0  0.925181  0  0  0.108965  0  0.987965  0  0  0.110407  0  0.98795  0  0  0.09322  0.107835  0  0.988098  0
H  H25  1  0.60015716  0.67863642  0.46760386  1  0  0.094552  0  0.925159  0  0  0.108999  0  0.987904  0  0  0.110441  0  0.987888  0  0  0.093214  0.107867  0  0.988043  0
H  H26  1  0.60015671  0.32135917  0.96760363  1  0  0.094588  0  0.925256  0  0  0.108995  0  0.988003  0  0  0.110435  0  0.98799  0  0  0.093205  0.107863  0  0.988141  0
H  H27  1  0.39983732  0.32136154  0.53239417  1  0  0.094589  0  0.925172  0  0  0.109031  0  0.98791  0  0  0.110472  0  0.987896  0  0  0.093221  0.107899  0  0.98805  0
H  H28  1  0.31125560  0.49680828  0.00558374  1  0  0.087766  0  0.938134  0  0  0.101489  0  1.004286  0  0  0.102536  0  1.005084  0  0  0.095874  0.10065  0  1.003832  0
H  H29  1  0.68874414  0.49680584  0.49441623  1  0  0.087746  0  0.938098  0  0  0.101492  0  1.004261  0  0  0.102538  0  1.00506  0  0  0.09587  0.100647  0  1.003813  0
H  H30  1  0.68874259  0.50318968  0.99441624  1  0  0.087795  0  0.938125  0  0  0.101518  0  1.00426  0  0  0.102564  0  1.005059  0  0  0.09588  0.100677  0  1.003808  0
H  H31  1  0.31125033  0.50319212  0.50558180  1  0  0.087785  0  0.938101  0  0  0.101526  0  1.004237  0  0  0.102574  0  1.005034  0  0  0.095888  0.100686  0  1.003783  0
H  H32  1  0.09773713  0.67758335  0.96372005  1  0  0.073677  0  0.952311  0  0  0.085549  0  1.02218  0  0  0.086685  0  1.02192  0  0  0.099863  0.084621  0  1.022466  0
H  H33  1  0.90226214  0.67758156  0.53628098  1  0  0.073664  0  0.952302  0  0  0.085562  0  1.022146  0  0  0.086698  0  1.02189  0  0  0.099851  0.084634  0  1.022431  0
H  H34  1  0.90226231  0.32241576  0.03627999  1  0  0.073619  0  0.952304  0  0  0.085482  0  1.022184  0  0  0.086619  0  1.021925  0  0  0.099832  0.084554  0  1.02247  0
H  H35  1  0.09773107  0.32241640  0.46371877  1  0  0.073683  0  0.952249  0  0  0.085525  0  1.022174  0  0  0.086664  0  1.021916  0  0  0.099862  0.084598  0  1.022459  0
H  H36  1  0.03496489  0.59766597  0.05335578  1  0  0.068607  0  0.912177  0  0  0.087906  0  0.970835  0  0  0.088325  0  0.971316  0  0  0.110234  0.087483  0  0.970642  0
H  H37  1  0.96503614  0.59766754  0.44664706  1  0  0.068615  0  0.912251  0  0  0.087956  0  0.970851  0  0  0.088378  0  0.971333  0  0  0.110252  0.087534  0  0.970656  0
H  H38  1  0.96503453  0.40233084  0.94664546  1  0  0.068586  0  0.912241  0  0  0.087918  0  0.970838  0  0  0.08834  0  0.97132  0  0  0.110244  0.087495  0  0.970646  0
H  H39  1  0.03495830  0.40233272  0.55335393  1  0  0.068571  0  0.912191  0  0  0.08791  0  0.970803  0  0  0.088329  0  0.971287  0  0  0.110234  0.087487  0  0.970612  0
H  H40  1  0.15143718  0.83092994  0.12186498  1  0  0.314857  0  0.869898  0  0  0.295897  0  0.934582  0  0  0.302901  0  0.929217  0  0  0.2928  0.290843  0  0.938571  0
H  H41  1  0.84856033  0.83093066  0.37813613  1  0  0.314869  0  0.869886  0  0  0.295947  0  0.934535  0  0  0.302953  0  0.929164  0  0  0.292812  0.290893  0  0.938526  0
H  H42  1  0.84855975  0.16906801  0.87813613  1  0  0.314836  0  0.869927  0  0  0.295915  0  0.934576  0  0  0.302919  0  0.929209  0  0  0.292798  0.29086  0  0.938567  0
H  H43  1  0.15143412  0.16907075  0.62186486  1  0  0.314861  0  0.869893  0  0  0.2959  0  0.934578  0  0  0.302903  0  0.929215  0  0  0.292817  0.290846  0  0.938567  0
H  H44  1  0.99378181  0.86192827  0.05360045  1  0  0.298112  0  0.921628  0  0  0.275706  0  0.997154  0  0  0.283947  0  0.990804  0  0  0.265318  0.269818  0  1.001756  0
H  H45  1  0.00621697  0.86193007  0.44639948  1  0  0.298113  0  0.921648  0  0  0.275702  0  0.997186  0  0  0.283944  0  0.990834  0  0  0.265296  0.269814  0  1.001788  0
H  H46  1  0.00621762  0.13806853  0.94639960  1  0  0.298132  0  0.921594  0  0  0.275725  0  0.997121  0  0  0.283965  0  0.990773  0  0  0.265319  0.269837  0  1.001723  0
H  H47  1  0.99377873  0.13807020  0.55360038  1  0  0.298078  0  0.92164  0  0  0.275673  0  0.99716  0  0  0.283913  0  0.990815  0  0  0.265306  0.269786  0  1.001761  0
H  H48  1  0.18965675  0.90589253  0.03281871  1  0  0.314655  0  0.887241  0  0  0.294148  0  0.955387  0  0  0.302489  0  0.948566  0  0  0.276789  0.288204  0  0.960302  0
H  H49  1  0.81034206  0.90589152  0.46718234  1  0  0.314633  0  0.887281  0  0  0.294123  0  0.955433  0  0  0.302466  0  0.948606  0  0  0.276769  0.288181  0  0.960348  0
H  H50  1  0.81034267  0.09410543  0.96718253  1  0  0.314673  0  0.887319  0  0  0.294173  0  0.955436  0  0  0.302515  0  0.948614  0  0  0.276806  0.28823  0  0.960352  0
H  H51  1  0.18965362  0.09410874  0.53281930  1  0  0.31462  0  0.887361  0  0  0.294123  0  0.955472  0  0  0.302463  0  0.948651  0  0  0.276762  0.288181  0  0.960386  0
C  C52  1  0.51434636  0.30452404  0.15052035  1  0  0.168737  0  3.644667  0  0  0.106896  0  3.910753  0  0  0.121311  0  3.923789  0  0  0.134411  0.097592  0  3.901717  0
C  C53  1  0.48566071  0.30452227  0.34947910  1  0  0.16863  0  3.644617  0  0  0.106803  0  3.910714  0  0  0.121213  0  3.923741  0  0  0.134396  0.097496  0  3.901678  0
C  C54  1  0.48565809  0.69547738  0.84947757  1  0  0.168742  0  3.644624  0  0  0.106891  0  3.910734  0  0  0.121303  0  3.923765  0  0  0.134436  0.097587  0  3.901697  0
C  C55  1  0.51433998  0.69547684  0.65052041  1  0  0.16877  0  3.644479  0  0  0.106952  0  3.910584  0  0  0.121364  0  3.923614  0  0  0.134485  0.097649  0  3.901547  0
C  C56  1  0.64695268  0.52893781  0.16022830  1  0  -0.065805  0  3.674629  0  0  -0.104331  0  3.933258  0  0  -0.102163  0  3.950915  0  0  -0.008452  -0.10574  0  3.921505  0
C  C57  1  0.35305703  0.52894290  0.33977388  1  0  -0.06599  0  3.674443  0  0  -0.104502  0  3.933091  0  0  -0.102334  0  3.950745  0  0  -0.008514  -0.105908  0  3.921336  0
C  C58  1  0.35305296  0.47106130  0.83977383  1  0  -0.066021  0  3.674522  0  0  -0.104516  0  3.933201  0  0  -0.102348  0  3.950855  0  0  -0.008511  -0.105923  0  3.921445  0
C  C59  1  0.64694614  0.47106660  0.66022694  1  0  -0.066032  0  3.674684  0  0  -0.104513  0  3.933299  0  0  -0.102348  0  3.950959  0  0  -0.008492  -0.10592  0  3.921547  0
C  C60  1  0.75979608  0.41060643  0.17218565  1  0  -0.013568  0  3.778112  0  0  -0.046404  0  4.045524  0  0  -0.044622  0  4.065634  0  0  -0.018315  -0.047615  0  4.032065  0
C  C61  1  0.24021104  0.41061033  0.32781719  1  0  -0.013645  0  3.778155  0  0  -0.046499  0  4.045602  0  0  -0.044709  0  4.065694  0  0  -0.018381  -0.04771  0  4.032136  0
C  C62  1  0.24020832  0.58939383  0.82781701  1  0  -0.013486  0  3.778058  0  0  -0.046311  0  4.045475  0  0  -0.04453  0  4.065589  0  0  -0.018311  -0.047521  0  4.032013  0
C  C63  1  0.75978836  0.58939455  0.67218641  1  0  -0.013591  0  3.778369  0  0  -0.046395  0  4.045806  0  0  -0.044609  0  4.065911  0  0  -0.018353  -0.047608  0  4.032344  0
C  C64  1  0.33306754  0.53960460  0.13191302  1  0  -0.003807  0  3.634566  0  0  -0.064866  0  3.887802  0  0  -0.061083  0  3.89956  0  0  -0.061442  -0.067194  0  3.879703  0
C  C65  1  0.66693847  0.53960405  0.36808719  1  0  -0.004165  0  3.634602  0  0  -0.06524  0  3.887938  0  0  -0.061482  0  3.899727  0  0  -0.061524  -0.067544  0  3.879835  0
C  C66  1  0.66693565  0.46039451  0.86808661  1  0  -0.003982  0  3.634613  0  0  -0.065133  0  3.887946  0  0  -0.061365  0  3.899726  0  0  -0.061515  -0.067449  0  3.879852  0
C  C67  1  0.33306224  0.46039737  0.63191115  1  0  -0.003918  0  3.634426  0  0  -0.065051  0  3.887803  0  0  -0.061279  0  3.899575  0  0  -0.061486  -0.067367  0  3.879717  0
C  C68  1  0.30285989  0.59569039  0.04589067  1  0  -0.159113  0  3.651045  0  0  -0.197222  0  3.908404  0  0  -0.199839  0  3.92156  0  0  -0.164151  -0.195216  0  3.899291  0
C  C69  1  0.69714117  0.59568820  0.45411039  1  0  -0.159018  0  3.650896  0  0  -0.197226  0  3.908374  0  0  -0.199837  0  3.921537  0  0  -0.164172  -0.195216  0  3.899256  0
C  C70  1  0.69713954  0.40430641  0.95410997  1  0  -0.159223  0  3.65108  0  0  -0.197311  0  3.908399  0  0  -0.199925  0  3.921563  0  0  -0.164164  -0.195305  0  3.899284  0
C  C71  1  0.30285578  0.40430976  0.54588954  1  0  -0.159201  0  3.651036  0  0  -0.197349  0  3.90842  0  0  -0.199965  0  3.921586  0  0  -0.16417  -0.195341  0  3.899298  0
C  C72  1  0.13117284  0.66693201  0.02803410  1  0  0.084396  0  3.541694  0  0  0.024517  0  3.803335  0  0  0.028687  0  3.813816  0  0  -0.063381  0.02186  0  3.796114  0
C  C73  1  0.86882950  0.66693219  0.47196810  1  0  0.084382  0  3.541708  0  0  0.024456  0  3.803419  0  0  0.028633  0  3.813873  0  0  -0.063384  0.021801  0  3.796198  0
C  C74  1  0.86882783  0.33306479  0.97196660  1  0  0.084603  0  3.541633  0  0  0.024726  0  3.803212  0  0  0.028898  0  3.813677  0  0  -0.06331  0.022067  0  3.795993  0
C  C75  1  0.13116868  0.33306808  0.52803248  1  0  0.084545  0  3.541659  0  0  0.024655  0  3.803323  0  0  0.028828  0  3.813792  0  0  -0.06333  0.021999  0  3.796099  0
Br  Br76  1  0.50000128  0.90291343  0.25000002  1  0  -0.54905  0  1.018232  0  0  -0.486848  0  1.323319  0  0  -0.506104  0  1.300209  0  0  -0.283587  -0.473103  0  1.33896  0
Br  Br77  1  0.50000066  0.09708914  0.74999955  1  0  -0.549027  0  1.018212  0  0  -0.486815  0  1.323286  0  0  -0.506063  0  1.300157  0  0  -0.283578  -0.473069  0  1.338926  0
Br  Br78  1  0.71474950  0.90062336  0.04776235  1  0  -0.554236  0  0.964981  0  0  -0.504228  0  1.238615  0  0  -0.522481  0  1.218537  0  0  -0.279668  -0.491161  0  1.25226  0
Br  Br79  1  0.28524811  0.90062193  0.45223450  1  0  -0.554213  0  0.964981  0  0  -0.504189  0  1.238599  0  0  -0.522442  0  1.21852  0  0  -0.279661  -0.49113  0  1.252261  0
Br  Br80  1  0.28524748  0.09937922  0.95223462  1  0  -0.554208  0  0.964978  0  0  -0.504188  0  1.238602  0  0  -0.52244  0  1.218522  0  0  -0.279658  -0.491129  0  1.252259  0
Br  Br81  1  0.71474888  0.09937602  0.54776187  1  0  -0.554226  0  0.964972  0  0  -0.504211  0  1.238618  0  0  -0.522466  0  1.21854  0  0  -0.27967  -0.491144  0  1.252267  0
Br  Br82  1  0.09674238  0.15357674  0.15254528  1  0  -0.551605  0  1.092044  0  0  -0.490692  0  1.396187  0  0  -0.510552  0  1.37525  0  0  -0.267069  -0.476363  0  1.410273  0
Br  Br83  1  0.90324460  0.15356847  0.34745641  1  0  -0.551609  0  1.092006  0  0  -0.490716  0  1.396195  0  0  -0.510574  0  1.375255  0  0  -0.26707  -0.476398  0  1.4103  0
Br  Br84  1  0.90325955  0.84642237  0.84745489  1  0  -0.551602  0  1.092034  0  0  -0.490687  0  1.396175  0  0  -0.510544  0  1.375238  0  0  -0.267067  -0.476364  0  1.410265  0
Br  Br85  1  0.09674112  0.84642371  0.65254475  1  0  -0.551633  0  1.092056  0  0  -0.490726  0  1.39621  0  0  -0.510583  0  1.375271  0  0  -0.267074  -0.476399  0  1.410296  0
Br  Br86  1  0.00000079  0.77664771  0.24999976  1  0  -0.558894  0  0.984707  0  0  -0.487133  0  1.261823  0  0  -0.508924  0  1.243753  0  0  -0.264837  -0.471446  0  1.27389  0
Br  Br87  1  0.00000026  0.22335207  0.74999968  1  0  -0.558893  0  0.984719  0  0  -0.487126  0  1.261829  0  0  -0.508917  0  1.24376  0  0  -0.26483  -0.471437  0  1.273893  0
N  N88  1  0.67545159  0.27158294  0.16571294  1  0  -0.383986  0  3.316497  0  0  -0.306292  0  3.593085  0  0  -0.329447  0  3.615123  0  0  -0.372616  -0.290477  0  3.577483  0
N  N89  1  0.32455298  0.27158804  0.33428467  1  0  -0.383966  0  3.316667  0  0  -0.30624  0  3.59319  0  0  -0.329414  0  3.615286  0  0  -0.372594  -0.290436  0  3.577619  0
N  N90  1  0.32455287  0.72841501  0.83428439  1  0  -0.384064  0  3.316744  0  0  -0.306338  0  3.593278  0  0  -0.329507  0  3.615353  0  0  -0.372641  -0.290527  0  3.577685  0
N  N91  1  0.67544772  0.72841454  0.66571367  1  0  -0.384042  0  3.316767  0  0  -0.306352  0  3.593334  0  0  -0.329519  0  3.615404  0  0  -0.372648  -0.290541  0  3.577742  0
N  N92  1  0.49214561  0.45980572  0.14715768  1  0  -0.055978  0  3.553139  0  0  0.041661  0  3.76498  0  0  0.026892  0  3.791127  0  0  -0.242531  0.051428  0  3.747142  0
N  N93  1  0.50786032  0.45980626  0.35284265  1  0  -0.055672  0  3.553049  0  0  0.041948  0  3.764882  0  0  0.027191  0  3.791033  0  0  -0.242493  0.051714  0  3.747036  0
N  N94  1  0.50785881  0.54019339  0.85284202  1  0  -0.055799  0  3.553044  0  0  0.041859  0  3.764865  0  0  0.027099  0  3.791015  0  0  -0.242522  0.051624  0  3.747021  0
N  N95  1  0.49213913  0.54019515  0.64715562  1  0  -0.055805  0  3.553034  0  0  0.04182  0  3.764873  0  0  0.027059  0  3.791021  0  0  -0.242563  0.051585  0  3.747025  0
N  N96  1  0.11874866  0.82543800  0.06122811  1  0  -0.479133  0  3.259717  0  0  -0.425937  0  3.450919  0  0  -0.440935  0  3.449466  0  0  -0.614516  -0.415718  0  3.452352  0
N  N97  1  0.88125009  0.82543723  0.43877306  1  0  -0.479124  0  3.259768  0  0  -0.42595  0  3.450909  0  0  -0.440948  0  3.44946  0  0  -0.614485  -0.415735  0  3.452351  0
N  N98  1  0.88125078  0.17455996  0.93877194  1  0  -0.479197  0  3.259807  0  0  -0.426064  0  3.450998  0  0  -0.441063  0  3.449545  0  0  -0.614553  -0.415845  0  3.452437  0
N  N99  1  0.11874559  0.17456072  0.56122858  1  0  -0.479096  0  3.259737  0  0  -0.425927  0  3.450996  0  0  -0.440924  0  3.44955  0  0  -0.614512  -0.415707  0  3.452427  0
