# generated using pymatgen
data_Cu3H10C14N4Cl3
_symmetry_space_group_name_H-M   'P 1'
_cell_length_a   5.04561857
_cell_length_b   16.50026814
_cell_length_c   18.67780000
_cell_angle_alpha   90.00000000
_cell_angle_beta   90.00000000
_cell_angle_gamma   90.00000000
_symmetry_Int_Tables_number   1
_chemical_formula_structural   Cu3H10C14N4Cl3
_chemical_formula_sum   'Cu12 H40 C56 N16 Cl12'
_cell_volume   1555.00267119
_cell_formula_units_Z   4
loop_
 _symmetry_equiv_pos_site_id
 _symmetry_equiv_pos_as_xyz
  1  'x, y, z'
loop_
 _atom_site_type_symbol
 _atom_site_label
 _atom_site_symmetry_multiplicity
 _atom_site_fract_x
 _atom_site_fract_y
 _atom_site_fract_z
 _atom_site_occupancy
 _atom_site_hle17_bader_spin_density
 _atom_site_hle17_ddec_charge
 _atom_site_hle17_ddec_spin_density
 _atom_site_hle17_ddec_sum_bond_order
 _atom_site_hle17_magmom
 _atom_site_hse06_10hf_bader_spin_density
 _atom_site_hse06_10hf_ddec_charge
 _atom_site_hse06_10hf_ddec_spin_density
 _atom_site_hse06_10hf_ddec_sum_bond_order
 _atom_site_hse06_10hf_magmom
 _atom_site_hse06_bader_spin_density
 _atom_site_hse06_ddec_charge
 _atom_site_hse06_ddec_spin_density
 _atom_site_hse06_ddec_sum_bond_order
 _atom_site_hse06_magmom
 _atom_site_pbe_bader_charge
 _atom_site_pbe_bader_spin_density
 _atom_site_pbe_cm5_charge
 _atom_site_pbe_ddec_charge
 _atom_site_pbe_ddec_spin_density
 _atom_site_pbe_ddec_sum_bond_order
 _atom_site_pbe_magmom
Cu  Cu0  1  0.70552697  0.06220323  0.78839157  1  0  0.4452  0  1.943337  0  0  0.339498  0  2.438069  0  0  0.332705  0  2.395273  0  0.675251  0  0.427099  0.347045  0  2.464311  0
Cu  Cu1  1  0.29446935  0.56220359  0.21160897  1  0  0.445186  0  1.943388  0  0  0.339467  0  2.438122  0  0  0.332672  0  2.395344  0  0.675222  0  0.427093  0.347009  0  2.464366  0
Cu  Cu2  1  0.79446751  0.06220444  0.28839103  1  0  0.445215  0  1.943371  0  0  0.339489  0  2.438106  0  0  0.332696  0  2.395334  0  0.675282  0  0.427113  0.347041  0  2.464356  0
Cu  Cu3  1  0.20552881  0.56220359  0.71160843  1  0  0.445207  0  1.943364  0  0  0.339501  0  2.438097  0  0  0.332707  0  2.395318  0  0.67524  0  0.427108  0.347045  0  2.464362  0
Cu  Cu4  1  0.64691573  0.02301538  0.56699933  1  0  0.44449  0  1.970885  0  0  0.343899  0  2.448632  0  0  0.331885  0  2.413338  0  0.686173  0  0.464522  0.355662  0  2.469462  0
Cu  Cu5  1  0.35308852  0.52301453  0.43299800  1  0  0.444508  0  1.970861  0  0  0.343918  0  2.448614  0  0  0.331899  0  2.413296  0  0.686132  0  0.464499  0.355666  0  2.469445  0
Cu  Cu6  1  0.85308668  0.02301417  0.06700200  1  0  0.444574  0  1.970799  0  0  0.34398  0  2.448557  0  0  0.331974  0  2.41322  0  0.68613  0  0.464517  0.355733  0  2.469388  0
Cu  Cu7  1  0.14691558  0.52301635  0.93299960  1  0  0.444518  0  1.970813  0  0  0.343962  0  2.448571  0  0  0.33193  0  2.413261  0  0.686164  0  0.464496  0.355701  0  2.469389  0
Cu  Cu8  1  0.08119916  0.10831642  0.66437643  1  0  0.445071  0  1.863885  0  0  0.340887  0  2.384345  0  0  0.361078  0  2.317586  0  0.561162  0  0.265  0.330764  0  2.427743  0
Cu  Cu9  1  0.91880112  0.60831496  0.33562143  1  0  0.445006  0  1.864005  0  0  0.340826  0  2.384462  0  0  0.361026  0  2.317673  0  0.561144  0  0.264958  0.330694  0  2.427862  0
Cu  Cu10  1  0.41880098  0.10831521  0.16437910  1  0  0.445022  0  1.864002  0  0  0.340847  0  2.384459  0  0  0.361045  0  2.317673  0  0.561145  0  0.264967  0.330715  0  2.427867  0
Cu  Cu11  1  0.58119930  0.60831557  0.83562304  1  0  0.445046  0  1.863935  0  0  0.340867  0  2.384394  0  0  0.361059  0  2.317619  0  0.561152  0  0.264983  0.330734  0  2.427797  0
H  H12  1  0.15204082  0.93589752  0.76945572  1  0  0.07808  0  0.97122  0  0  0.083595  0  1.043753  0  0  0.086719  0  1.041003  0  0.120197  0  0.099385  0.081143  0  1.045915  0
H  H13  1  0.84795351  0.43590019  0.23054321  1  0  0.078062  0  0.97118  0  0  0.083553  0  1.043764  0  0  0.086678  0  1.041011  0  0.120169  0  0.099363  0.081101  0  1.045928  0
H  H14  1  0.34795337  0.93590055  0.26945625  1  0  0.078048  0  0.97119  0  0  0.083544  0  1.043763  0  0  0.086667  0  1.041017  0  0.12015  0  0.099372  0.081092  0  1.045929  0
H  H15  1  0.65204295  0.43589776  0.73054482  1  0  0.078068  0  0.971219  0  0  0.083581  0  1.04376  0  0  0.086707  0  1.041007  0  0.120188  0  0.099377  0.08113  0  1.045924  0
H  H16  1  0.21112773  0.79203986  0.81173800  1  0  0.113223  0  0.983388  0  0  0.121454  0  1.044728  0  0  0.124875  0  1.044188  0  0.125486  0  0.093667  0.118756  0  1.045587  0
H  H17  1  0.78886859  0.29204253  0.18826147  1  0  0.113253  0  0.983535  0  0  0.1215  0  1.04484  0  0  0.12492  0  1.044303  0  0.125584  0  0.093692  0.118799  0  1.045703  0
H  H18  1  0.28886845  0.79204289  0.31173800  1  0  0.113252  0  0.983567  0  0  0.121489  0  1.044889  0  0  0.124909  0  1.044352  0  0.125577  0  0.093697  0.118788  0  1.045752  0
H  H19  1  0.71112787  0.29204010  0.68826200  1  0  0.113254  0  0.98341  0  0  0.121486  0  1.044747  0  0  0.124907  0  1.044208  0  0.125488  0  0.093687  0.11879  0  1.045604  0
H  H20  1  0.88899308  0.73662621  0.90121535  1  0  0.102675  0  0.955163  0  0  0.10689  0  1.027255  0  0  0.111977  0  1.021222  0  0.098006  0  0.096116  0.102862  0  1.031966  0
H  H21  1  0.11100522  0.23662767  0.09878519  1  0  0.102674  0  0.955182  0  0  0.106892  0  1.027258  0  0  0.111979  0  1.021227  0  0.098051  0  0.096108  0.102865  0  1.031969  0
H  H22  1  0.61100338  0.73662803  0.40121428  1  0  0.102679  0  0.955155  0  0  0.106912  0  1.027217  0  0  0.111999  0  1.021183  0  0.09805  0  0.096119  0.102884  0  1.031929  0
H  H23  1  0.38899294  0.23662646  0.59878465  1  0  0.102692  0  0.955113  0  0  0.106903  0  1.027204  0  0  0.111992  0  1.021168  0  0.098021  0  0.09611  0.102875  0  1.031916  0
H  H24  1  0.54479148  0.82772958  0.95133635  1  0  0.106292  0  0.981659  0  0  0.117667  0  1.039285  0  0  0.119434  0  1.041477  0  0.10929  0  0.100503  0.116395  0  1.037911  0
H  H25  1  0.45520682  0.32773043  0.04866365  1  0  0.106286  0  0.981684  0  0  0.117669  0  1.039297  0  0  0.119438  0  1.041488  0  0.1094  0  0.100501  0.116397  0  1.037923  0
H  H26  1  0.95520696  0.82773018  0.45133635  1  0  0.106297  0  0.981668  0  0  0.117681  0  1.039282  0  0  0.119449  0  1.041474  0  0.109405  0  0.100508  0.116409  0  1.037908  0
H  H27  1  0.04479332  0.32772983  0.54866365  1  0  0.106284  0  0.981689  0  0  0.117663  0  1.039309  0  0  0.119431  0  1.0415  0  0.10928  0  0.100498  0.116391  0  1.037935  0
H  H28  1  0.92974527  0.14026924  0.95880457  1  0  0.090873  0  0.969781  0  0  0.098535  0  1.035108  0  0  0.101876  0  1.032202  0  0.143238  0  0.106525  0.095962  0  1.037584  0
H  H29  1  0.07025303  0.64027384  0.04119811  1  0  0.090857  0  0.969797  0  0  0.098495  0  1.035124  0  0  0.101838  0  1.032215  0  0.143184  0  0.106517  0.095951  0  1.037569  0
H  H30  1  0.57025912  0.14027166  0.45880136  1  0  0.09088  0  0.969813  0  0  0.098536  0  1.035111  0  0  0.101879  0  1.032201  0  0.143338  0  0.106534  0.095977  0  1.037571  0
H  H31  1  0.42974315  0.64026899  0.54119597  1  0  0.090886  0  0.969757  0  0  0.098545  0  1.035097  0  0  0.101886  0  1.03219  0  0.14324  0  0.106521  0.095973  0  1.037573  0
H  H32  1  0.25836872  0.16710092  0.85890415  1  0  0.08506  0  0.9793  0  0  0.090718  0  1.048631  0  0  0.094168  0  1.04535  0  0.134546  0  0.106963  0.088049  0  1.051458  0
H  H33  1  0.74162958  0.66710189  0.14109906  1  0  0.084961  0  0.979363  0  0  0.090633  0  1.048707  0  0  0.094084  0  1.045424  0  0.134787  0  0.106936  0.087964  0  1.051537  0
H  H34  1  0.24162944  0.16710153  0.35890148  1  0  0.085017  0  0.979346  0  0  0.090683  0  1.048682  0  0  0.094132  0  1.0454  0  0.134789  0  0.106948  0.088014  0  1.05151  0
H  H35  1  0.75837084  0.66710067  0.64109585  1  0  0.08507  0  0.97931  0  0  0.090726  0  1.04864  0  0  0.094176  0  1.045359  0  0.134608  0  0.10697  0.088058  0  1.05147  0
H  H36  1  0.03367080  0.85447036  0.01280397  1  0  0.105448  0  0.978031  0  0  0.114957  0  1.041132  0  0  0.117021  0  1.041699  0  0.094262  0  0.10228  0.113501  0  1.040874  0
H  H37  1  0.96632552  0.35447182  0.98719871  1  0  0.105419  0  0.978057  0  0  0.114915  0  1.041159  0  0  0.116979  0  1.041733  0  0.094246  0  0.10228  0.113462  0  1.040901  0
H  H38  1  0.46632736  0.85447096  0.51280129  1  0  0.105412  0  0.978037  0  0  0.114899  0  1.041163  0  0  0.116964  0  1.041735  0  0.094238  0  0.10227  0.113446  0  1.040906  0
H  H39  1  0.53367094  0.35447060  0.48719710  1  0  0.10544  0  0.978009  0  0  0.114943  0  1.041126  0  0  0.117008  0  1.041692  0  0.094258  0  0.102277  0.113488  0  1.040867  0
H  H40  1  0.11908946  0.75331382  0.11162342  1  0  0.094319  0  0.964323  0  0  0.107008  0  1.023207  0  0  0.109127  0  1.021763  0  0.089801  0  0.10003  0.105336  0  1.024365  0
H  H41  1  0.88091082  0.25331588  0.88838032  1  0  0.094281  0  0.964422  0  0  0.107011  0  1.023265  0  0  0.109133  0  1.021813  0  0.089836  0  0.100015  0.105336  0  1.024421  0
H  H42  1  0.38091068  0.75331442  0.61161968  1  0  0.094295  0  0.964417  0  0  0.107045  0  1.023235  0  0  0.10917  0  1.021785  0  0.089822  0  0.100023  0.105373  0  1.02438  0
H  H43  1  0.61908762  0.25331467  0.38837711  1  0  0.094294  0  0.964421  0  0  0.10699  0  1.023287  0  0  0.10911  0  1.021844  0  0.089791  0  0.100035  0.105322  0  1.024445  0
H  H44  1  0.51510830  0.77353107  0.18984463  1  0  0.109951  0  0.962267  0  0  0.117982  0  1.025129  0  0  0.121411  0  1.024159  0  0.112471  0  0.10301  0.11535  0  1.026182  0
H  H45  1  0.48489397  0.27353313  0.81015751  1  0  0.109934  0  0.962343  0  0  0.117966  0  1.025201  0  0  0.121392  0  1.024232  0  0.11254  0  0.103  0.115334  0  1.026247  0
H  H46  1  0.98489609  0.77353349  0.68984356  1  0  0.109943  0  0.962299  0  0  0.117962  0  1.025169  0  0  0.121388  0  1.0242  0  0.112527  0  0.103012  0.115328  0  1.026216  0
H  H47  1  0.01510816  0.27353131  0.31015537  1  0  0.109944  0  0.962263  0  0  0.117968  0  1.025124  0  0  0.121397  0  1.024153  0  0.112474  0  0.103009  0.115338  0  1.026173  0
H  H48  1  0.81304600  0.89173763  0.16627547  1  0  0.082607  0  0.957057  0  0  0.092112  0  1.018216  0  0  0.0947  0  1.016539  0  0.11577  0  0.106428  0.090118  0  1.019638  0
H  H49  1  0.18695825  0.39173969  0.83372613  1  0  0.082626  0  0.957079  0  0  0.092149  0  1.018217  0  0  0.094727  0  1.016553  0  0.11582  0  0.106432  0.090159  0  1.019634  0
H  H50  1  0.68696037  0.89174066  0.66627387  1  0  0.08261  0  0.957097  0  0  0.092133  0  1.018237  0  0  0.09471  0  1.016573  0  0.115833  0  0.106422  0.090144  0  1.019653  0
H  H51  1  0.31304586  0.39173727  0.33372453  1  0  0.082596  0  0.957092  0  0  0.092101  0  1.018253  0  0  0.09469  0  1.016575  0  0.11577  0  0.106424  0.090109  0  1.01967  0
C  C52  1  0.02425669  0.90997673  0.81068702  1  0  0.12119  0  3.691882  0  0  0.093787  0  3.943288  0  0  0.099475  0  3.959152  0  0.420447  0  0.036377  0.090204  0  3.933164  0
C  C53  1  0.97573765  0.40997879  0.18931191  1  0  0.121237  0  3.691852  0  0  0.093831  0  3.943209  0  0  0.09952  0  3.959069  0  0.420407  0  0.036372  0.090246  0  3.933088  0
C  C54  1  0.47573751  0.90997915  0.31068702  1  0  0.121244  0  3.691807  0  0  0.093823  0  3.943169  0  0  0.099511  0  3.959031  0  0.4204  0  0.036368  0.090238  0  3.933051  0
C  C55  1  0.52425683  0.40997697  0.68931298  1  0  0.121208  0  3.691842  0  0  0.093795  0  3.943238  0  0  0.099483  0  3.959099  0  0.420455  0  0.036373  0.09021  0  3.93312  0
C  C56  1  0.05551747  0.83036469  0.83389371  1  0  -0.106506  0  3.704107  0  0  -0.11854  0  3.949018  0  0  -0.124277  0  3.968682  0  0.022308  0  -0.084862  -0.115462  0  3.936877  0
C  C57  1  0.94447686  0.33036675  0.16610575  1  0  -0.106558  0  3.704208  0  0  -0.118613  0  3.949117  0  0  -0.124351  0  3.968783  0  0.022215  0  -0.084879  -0.115531  0  3.936981  0
C  C58  1  0.44447474  0.83036711  0.33389371  1  0  -0.106538  0  3.704198  0  0  -0.118581  0  3.949097  0  0  -0.124319  0  3.968762  0  0.022223  0  -0.084874  -0.1155  0  3.936961  0
C  C59  1  0.55551762  0.33036493  0.66610629  1  0  -0.106493  0  3.704131  0  0  -0.118528  0  3.949035  0  0  -0.124266  0  3.968701  0  0.022278  0  -0.084856  -0.115451  0  3.936898  0
C  C60  1  0.87801722  0.79978882  0.88429580  1  0  -0.001496  0  3.705813  0  0  -0.019686  0  3.956947  0  0  -0.013885  0  3.969132  0  -0.054091  0  -0.071926  -0.023783  0  3.949799  0
C  C61  1  0.12198108  0.29979089  0.11570420  1  0  -0.001472  0  3.705774  0  0  -0.019658  0  3.956899  0  0  -0.013856  0  3.969083  0  -0.054419  0  -0.071913  -0.023754  0  3.949749  0
C  C62  1  0.62198122  0.79979003  0.38429526  1  0  -0.00148  0  3.705717  0  0  -0.019687  0  3.956852  0  0  -0.013885  0  3.969035  0  -0.05404  0  -0.071924  -0.023784  0  3.949708  0
C  C63  1  0.37801708  0.29978967  0.61570474  1  0  -0.001543  0  3.705864  0  0  -0.019725  0  3.956989  0  0  -0.013925  0  3.969174  0  -0.054072  0  -0.071934  -0.023822  0  3.949847  0
C  C64  1  0.68729730  0.85139707  0.91305186  1  0  -0.140471  0  3.708548  0  0  -0.156367  0  3.94936  0  0  -0.162689  0  3.969863  0  -0.04865  0  -0.085169  -0.152492  0  3.936099  0
C  C65  1  0.31270497  0.35139793  0.08694868  1  0  -0.140505  0  3.708532  0  0  -0.156406  0  3.949369  0  0  -0.162728  0  3.969872  0  -0.048402  0  -0.085178  -0.15253  0  3.93611  0
C  C66  1  0.81270511  0.85139828  0.41305079  1  0  -0.140479  0  3.708467  0  0  -0.156419  0  3.949265  0  0  -0.162741  0  3.969768  0  -0.048732  0  -0.085184  -0.152544  0  3.936005  0
C  C67  1  0.18729715  0.35139732  0.58694868  1  0  -0.140463  0  3.708623  0  0  -0.156366  0  3.949425  0  0  -0.162688  0  3.969929  0  -0.048636  0  -0.085161  -0.152491  0  3.936169  0
C  C68  1  0.67687637  0.93228606  0.89056527  1  0  0.167223  0  3.744737  0  0  0.162707  0  3.989973  0  0  0.167833  0  4.009373  0  0.440801  0  0.104772  0.159284  0  3.977255  0
C  C69  1  0.32312391  0.43228691  0.10943473  1  0  0.167308  0  3.744602  0  0  0.162736  0  3.989882  0  0  0.167865  0  4.009274  0  0.440741  0  0.104773  0.159311  0  3.977167  0
C  C70  1  0.82312603  0.93228667  0.39056473  1  0  0.167181  0  3.74466  0  0  0.16275  0  3.989744  0  0  0.167879  0  4.009139  0  0.44071  0  0.104774  0.159329  0  3.977029  0
C  C71  1  0.17687623  0.43228570  0.60943527  1  0  0.167201  0  3.744712  0  0  0.162678  0  3.989932  0  0  0.167806  0  4.009328  0  0.440793  0  0.104754  0.159255  0  3.977221  0
C  C72  1  0.48628329  0.99282508  0.91805405  1  0  0.10343  0  3.699675  0  0  0.093326  0  3.949777  0  0  0.098698  0  3.962369  0  0.463376  0  0.117523  0.089013  0  3.942406  0
C  C73  1  0.51371501  0.49282835  0.08194595  1  0  0.10335  0  3.699775  0  0  0.093259  0  3.949852  0  0  0.098634  0  3.962442  0  0.463418  0  0.117498  0.088945  0  3.942482  0
C  C74  1  0.01371487  0.99282690  0.41805298  1  0  0.10345  0  3.699637  0  0  0.093294  0  3.949741  0  0  0.098666  0  3.96233  0  0.463398  0  0.117527  0.08898  0  3.942373  0
C  C75  1  0.98628541  0.49282654  0.58194648  1  0  0.103436  0  3.699753  0  0  0.093351  0  3.949845  0  0  0.098725  0  3.962434  0  0.463412  0  0.11753  0.089035  0  3.942482  0
C  C76  1  0.33238145  0.98558823  0.98089175  1  0  0.112412  0  3.671069  0  0  0.106036  0  3.917406  0  0  0.111625  0  3.928872  0  0.54202  0  0.121943  0.101461  0  3.911035  0
C  C77  1  0.66762082  0.48558908  0.01910878  1  0  0.112353  0  3.671121  0  0  0.106064  0  3.917409  0  0  0.111657  0  3.928866  0  0.541599  0  0.121941  0.101483  0  3.911034  0
C  C78  1  0.16762464  0.98558883  0.48088961  1  0  0.112244  0  3.671075  0  0  0.105918  0  3.917419  0  0  0.111509  0  3.928876  0  0.54206  0  0.121859  0.101336  0  3.911051  0
C  C79  1  0.83238357  0.48558787  0.51910825  1  0  0.112418  0  3.671044  0  0  0.106001  0  3.917372  0  0  0.111599  0  3.928839  0  0.542031  0  0.12195  0.101426  0  3.911006  0
C  C80  1  0.09657686  0.10014928  0.94807686  1  0  0.083431  0  3.665626  0  0  0.046207  0  3.933073  0  0  0.054426  0  3.936932  0  0.491177  0  0.035982  0.039745  0  3.932278  0
C  C81  1  0.90342144  0.60015085  0.05192635  1  0  0.083408  0  3.665588  0  0  0.046322  0  3.932991  0  0  0.054542  0  3.936851  0  0.491231  0  0.036057  0.039833  0  3.932184  0
C  C82  1  0.40342526  0.10015049  0.44807311  1  0  0.083407  0  3.665606  0  0  0.046278  0  3.93305  0  0  0.054497  0  3.936911  0  0.490972  0  0.036043  0.039798  0  3.932254  0
C  C83  1  0.59657700  0.60014903  0.55192421  1  0  0.083427  0  3.665579  0  0  0.046194  0  3.933022  0  0  0.054414  0  3.93688  0  0.491194  0  0.03599  0.039732  0  3.932234  0
C  C84  1  0.27323706  0.11370118  0.89268490  1  0  0.095476  0  3.691527  0  0  0.062412  0  3.956395  0  0  0.068758  0  3.963251  0  0.467453  0  0.045057  0.05723  0  3.953315  0
C  C85  1  0.72675926  0.61370336  0.10731724  1  0  0.095596  0  3.69143  0  0  0.062456  0  3.956359  0  0  0.068808  0  3.963211  0  0.467165  0  0.045065  0.057271  0  3.95329  0
C  C86  1  0.22676110  0.11370361  0.39268276  1  0  0.095443  0  3.691519  0  0  0.062336  0  3.956409  0  0  0.068684  0  3.963263  0  0.467205  0  0.045025  0.057153  0  3.953334  0
C  C87  1  0.77323919  0.61370154  0.60731564  1  0  0.095421  0  3.691513  0  0  0.062375  0  3.956378  0  0  0.068724  0  3.963233  0  0.46736  0  0.045031  0.057188  0  3.953307  0
C  C88  1  0.38025268  0.92419589  0.03790596  1  0  0.176586  0  3.760868  0  0  0.173876  0  4.0015  0  0  0.181069  0  4.01599  0  0.426076  0  0.111923  0.168904  0  3.992766  0
C  C89  1  0.61974562  0.42419917  0.96209404  1  0  0.176604  0  3.760833  0  0  0.173849  0  4.001454  0  0  0.181046  0  4.015932  0  0.426471  0  0.111923  0.168877  0  3.992717  0
C  C90  1  0.11974746  0.92419831  0.53790596  1  0  0.176659  0  3.76082  0  0  0.173952  0  4.00138  0  0  0.181161  0  4.015845  0  0.426719  0  0.111976  0.16898  0  3.992647  0
C  C91  1  0.88025481  0.42419614  0.46209404  1  0  0.176462  0  3.760869  0  0  0.173866  0  4.001362  0  0  0.181036  0  4.015879  0  0.426066  0  0.111895  0.168899  0  3.992623  0
C  C92  1  0.20344185  0.86024541  0.04823373  1  0  -0.144764  0  3.721341  0  0  -0.165189  0  3.975399  0  0  -0.169874  0  3.991377  0  0.007378  0  -0.086648  -0.162619  0  3.965268  0
C  C93  1  0.79655843  0.36024687  0.95176948  1  0  -0.144709  0  3.721259  0  0  -0.165113  0  3.97532  0  0  -0.169801  0  3.991298  0  0.007308  0  -0.086637  -0.162546  0  3.965186  0
C  C94  1  0.29655829  0.86024541  0.54823052  1  0  -0.14478  0  3.72137  0  0  -0.165205  0  3.97543  0  0  -0.169897  0  3.991409  0  0.00731  0  -0.086666  -0.162638  0  3.965297  0
C  C95  1  0.70344398  0.36024566  0.45176680  1  0  -0.144682  0  3.72126  0  0  -0.165151  0  3.975303  0  0  -0.169828  0  3.991285  0  0.007386  0  -0.086643  -0.162579  0  3.965169  0
C  C96  1  0.25206622  0.80408511  0.10219780  1  0  0.006131  0  3.704322  0  0  -0.016244  0  3.954714  0  0  -0.010097  0  3.969976  0  -0.004488  0  -0.073491  -0.020493  0  3.944952  0
C  C97  1  0.74793604  0.30408718  0.89780488  1  0  0.006166  0  3.704361  0  0  -0.016245  0  3.95472  0  0  -0.010097  0  3.969981  0  -0.004448  0  -0.07347  -0.020491  0  3.944954  0
C  C98  1  0.24793392  0.80408633  0.60219458  1  0  0.006185  0  3.704457  0  0  -0.016233  0  3.954792  0  0  -0.010091  0  3.970061  0  -0.004562  0  -0.073469  -0.020475  0  3.945023  0
C  C99  1  0.75206438  0.30408536  0.39780274  1  0  0.006091  0  3.704467  0  0  -0.01629  0  3.954857  0  0  -0.010143  0  3.970117  0  -0.004252  0  -0.073507  -0.020545  0  3.945099  0
C  C100  1  0.47377144  0.81480736  0.14574736  1  0  -0.11176  0  3.72576  0  0  -0.12325  0  3.974252  0  0  -0.129992  0  3.994605  0  -0.053684  0  -0.084302  -0.119304  0  3.961524  0
C  C101  1  0.52622884  0.31480882  0.85425264  1  0  -0.111723  0  3.725798  0  0  -0.123221  0  3.974288  0  0  -0.129959  0  3.994637  0  -0.053622  0  -0.084268  -0.119265  0  3.961553  0
C  C102  1  0.02622870  0.81480858  0.64574736  1  0  -0.111704  0  3.725775  0  0  -0.123195  0  3.974269  0  0  -0.129933  0  3.994618  0  -0.053528  0  -0.084267  -0.119234  0  3.961534  0
C  C103  1  0.97376762  0.31480701  0.35425264  1  0  -0.111738  0  3.725783  0  0  -0.1232  0  3.974242  0  0  -0.129941  0  3.994593  0  -0.053901  0  -0.084305  -0.119253  0  3.961508  0
C  C104  1  0.63963812  0.88020327  0.13302852  1  0  0.12221  0  3.688556  0  0  0.093714  0  3.938054  0  0  0.100608  0  3.952463  0  0.441665  0  0.034867  0.088544  0  3.929947  0
C  C105  1  0.36036414  0.38020594  0.86697309  1  0  0.122061  0  3.688719  0  0  0.093527  0  3.938234  0  0  0.100428  0  3.952639  0  0.441629  0  0.034735  0.08833  0  3.93017  0
C  C106  1  0.86036626  0.88020570  0.63302691  1  0  0.122022  0  3.688728  0  0  0.093478  0  3.93823  0  0  0.100383  0  3.952639  0  0.44163  0  0.034727  0.088272  0  3.930185  0
C  C107  1  0.13963798  0.38020352  0.36697202  1  0  0.122178  0  3.688635  0  0  0.093668  0  3.93815  0  0  0.100562  0  3.952554  0  0.441697  0  0.034845  0.088482  0  3.930074  0
N  N108  1  0.83727891  0.95994440  0.83708360  1  0  -0.324105  0  3.317001  0  0  -0.258516  0  3.60608  0  0  -0.2678  0  3.615325  0  -1.195112  0  -0.356583  -0.253097  0  3.599852  0
N  N109  1  0.16271939  0.45994586  0.16291533  1  0  -0.324174  0  3.317014  0  0  -0.258513  0  3.606021  0  0  -0.267794  0  3.615259  0  -1.195091  0  -0.356545  -0.253094  0  3.599797  0
N  N110  1  0.66272152  0.95994622  0.33708413  1  0  -0.324164  0  3.316982  0  0  -0.258531  0  3.605938  0  0  -0.267815  0  3.615182  0  -1.195091  0  -0.356591  -0.253118  0  3.599722  0
N  N111  1  0.33727876  0.45994465  0.66291640  1  0  -0.324148  0  3.317034  0  0  -0.258535  0  3.606085  0  0  -0.267817  0  3.615326  0  -1.195126  0  -0.356591  -0.253116  0  3.599869  0
N  N112  1  0.45867716  0.05912752  0.87558974  1  0  -0.263444  0  3.2999  0  0  -0.20812  0  3.596865  0  0  -0.20921  0  3.597766  0  -1.182169  0  -0.338529  -0.207994  0  3.596914  0
N  N113  1  0.54132114  0.55912970  0.12441026  1  0  -0.26346  0  3.299924  0  0  -0.208135  0  3.596944  0  0  -0.209237  0  3.597865  0  -1.182255  0  -0.338544  -0.207987  0  3.596956  0
N  N114  1  0.04132100  0.05912934  0.37558920  1  0  -0.26343  0  3.299886  0  0  -0.208082  0  3.596873  0  0  -0.209177  0  3.597785  0  -1.182223  0  -0.338523  -0.207951  0  3.596915  0
N  N115  1  0.95867928  0.55912849  0.62441026  1  0  -0.26342  0  3.30001  0  0  -0.208118  0  3.596975  0  0  -0.209216  0  3.597887  0  -1.18222  0  -0.338523  -0.207988  0  3.597038  0
N  N116  1  0.12553664  0.03662850  0.99273897  1  0  -0.27045  0  3.359848  0  0  -0.212316  0  3.664147  0  0  -0.21248  0  3.663259  0  -1.161411  0  -0.350729  -0.213288  0  3.665535  0
N  N117  1  0.87446563  0.53663249  0.00726156  1  0  -0.270307  0  3.359806  0  0  -0.212339  0  3.664232  0  0  -0.212498  0  3.663336  0  -1.160929  0  -0.350777  -0.2133  0  3.665612  0
N  N118  1  0.37446945  0.03663031  0.49273737  1  0  -0.270201  0  3.359843  0  0  -0.212205  0  3.664237  0  0  -0.212371  0  3.66335  0  -1.161417  0  -0.350753  -0.213168  0  3.665625  0
N  N119  1  0.62553480  0.53662825  0.50726103  1  0  -0.270397  0  3.359766  0  0  -0.212251  0  3.664053  0  0  -0.212412  0  3.663161  0  -1.161381  0  -0.350723  -0.213222  0  3.665444  0
N  N120  1  0.59791678  0.93416724  0.07962608  1  0  -0.330241  0  3.382117  0  0  -0.263681  0  3.678394  0  0  -0.270742  0  3.681738  0  -1.208188  0  -0.36411  -0.260154  0  3.676604  0
N  N121  1  0.40208350  0.43417052  0.92037499  1  0  -0.33013  0  3.382194  0  0  -0.263524  0  3.678435  0  0  -0.270579  0  3.681767  0  -1.208668  0  -0.363985  -0.259983  0  3.676621  0
N  N122  1  0.90208563  0.93416967  0.57962447  1  0  -0.330104  0  3.382235  0  0  -0.263474  0  3.678402  0  0  -0.270543  0  3.681745  0  -1.208822  0  -0.363989  -0.259938  0  3.676604  0
N  N123  1  0.09791862  0.43416749  0.42037392  1  0  -0.330089  0  3.382054  0  0  -0.263572  0  3.678312  0  0  -0.27062  0  3.681657  0  -1.208227  0  -0.364051  -0.260043  0  3.676517  0
Cl  Cl124  1  0.43071230  0.02920377  0.68567497  1  0  -0.513604  0  1.576115  0  0  -0.441119  0  2.034075  0  0  -0.452416  0  1.982392  0  -0.614986  0  -0.274972  -0.433494  0  2.068331  0
Cl  Cl125  1  0.56928996  0.52920170  0.31432396  1  0  -0.513562  0  1.576122  0  0  -0.441084  0  2.034108  0  0  -0.45239  0  1.98244  0  -0.614934  0  -0.274957  -0.433453  0  2.068363  0
Cl  Cl126  1  0.06928784  0.02920195  0.18567711  1  0  -0.513564  0  1.576092  0  0  -0.441089  0  2.034071  0  0  -0.452386  0  1.982376  0  -0.614993  0  -0.274953  -0.433464  0  2.068334  0
Cl  Cl127  1  0.93071245  0.52920231  0.81432449  1  0  -0.513608  0  1.57609  0  0  -0.44114  0  2.034068  0  0  -0.452441  0  1.982399  0  -0.615012  0  -0.274975  -0.43351  0  2.068326  0
Cl  Cl128  1  0.90937908  0.17864679  0.75901926  1  0  -0.536116  0  1.408026  0  0  -0.456386  0  1.789185  0  0  -0.476003  0  1.75369  0  -0.625967  0  -0.293584  -0.441799  0  1.811849  0
Cl  Cl129  1  0.09062318  0.67864715  0.24098020  1  0  -0.536067  0  1.408053  0  0  -0.456325  0  1.789207  0  0  -0.475943  0  1.753712  0  -0.625988  0  -0.293564  -0.441735  0  1.811873  0
Cl  Cl130  1  0.59062134  0.17864861  0.25901980  1  0  -0.536093  0  1.408034  0  0  -0.456367  0  1.789188  0  0  -0.475986  0  1.753697  0  -0.626014  0  -0.293583  -0.441779  0  1.811859  0
Cl  Cl131  1  0.40938093  0.67864655  0.74098020  1  0  -0.536083  0  1.408024  0  0  -0.456353  0  1.789193  0  0  -0.47597  0  1.753698  0  -0.625962  0  -0.293568  -0.441765  0  1.811862  0
Cl  Cl132  1  0.88023499  0.14958060  0.56409909  1  0  -0.54848  0  1.293232  0  0  -0.467911  0  1.652414  0  0  -0.49007  0  1.623104  0  -0.639589  0  -0.315044  -0.451397  0  1.670989  0
Cl  Cl133  1  0.11976133  0.64957853  0.43589877  1  0  -0.54846  0  1.293265  0  0  -0.467886  0  1.652453  0  0  -0.490043  0  1.623133  0  -0.639523  0  -0.315021  -0.451365  0  1.671026  0
Cl  Cl134  1  0.61976345  0.14957818  0.06410177  1  0  -0.548483  0  1.293278  0  0  -0.467904  0  1.652447  0  0  -0.490066  0  1.623128  0  -0.639507  0  -0.315045  -0.451384  0  1.671021  0
Cl  Cl135  1  0.38023683  0.64958035  0.93589984  1  0  -0.548486  0  1.293258  0  0  -0.467913  0  1.652438  0  0  -0.490068  0  1.623119  0  -0.639584  0  -0.315049  -0.451398  0  1.671013  0
