# generated using pymatgen
data_CdH26C22(N3O2)2
_symmetry_space_group_name_H-M   'P 1'
_cell_length_a   6.58648474
_cell_length_b   9.66423137
_cell_length_c   18.16700000
_cell_angle_alpha   90.00000000
_cell_angle_beta   90.00000000
_cell_angle_gamma   96.91354210
_symmetry_Int_Tables_number   1
_chemical_formula_structural   CdH26C22(N3O2)2
_chemical_formula_sum   'Cd2 H52 C44 N12 O8'
_cell_volume   1147.98152537
_cell_formula_units_Z   2
loop_
 _symmetry_equiv_pos_site_id
 _symmetry_equiv_pos_as_xyz
  1  'x, y, z'
loop_
 _atom_site_type_symbol
 _atom_site_label
 _atom_site_symmetry_multiplicity
 _atom_site_fract_x
 _atom_site_fract_y
 _atom_site_fract_z
 _atom_site_occupancy
 _atom_site_pbe_bader_charge
 _atom_site_pbe_bader_spin_density
 _atom_site_pbe_cm5_charge
 _atom_site_pbe_ddec_charge
 _atom_site_pbe_ddec_spin_density
 _atom_site_pbe_ddec_sum_bond_order
 _atom_site_pbe_magmom
Cd  Cd0  1  0.66224463  0.19461407  0.73964551  1  1.231335  0  0.759891  0.820217  0  2.15731  0
Cd  Cd1  1  0.33776225  0.80538781  0.23964551  1  1.23126  0  0.759904  0.820214  0  2.157262  0
H  H2  1  0.11804690  0.87554026  0.78705070  1  0.02361  0  0.094142  0.079681  0  0.994097  0
H  H3  1  0.88195735  0.12445536  0.28705070  1  0.023578  0  0.094134  0.079672  0  0.994153  0
H  H4  1  0.03931472  0.59108323  0.63358452  1  0.051633  0  0.078722  0.07166  0  1.071776  0
H  H5  1  0.96068442  0.40890927  0.13358342  1  0.051623  0  0.078719  0.071696  0  1.071681  0
H  H6  1  0.26904361  0.60657005  0.68331480  1  0.027588  0  0.085808  0.088339  0  1.020545  0
H  H7  1  0.73095402  0.39342245  0.18331535  1  0.02754  0  0.085767  0.088352  0  1.020608  0
H  H8  1  0.05592273  0.83279984  0.62307150  1  0.034659  0  0.080077  0.073176  0  1.042674  0
H  H9  1  0.94407926  0.16719162  0.12307095  1  0.034729  0  0.080039  0.073107  0  1.042689  0
H  H10  1  0.28901681  0.85437695  0.67165245  1  0.031903  0  0.083674  0.082187  0  1.008261  0
H  H11  1  0.71099010  0.14561659  0.17165245  1  0.032041  0  0.083681  0.082134  0  1.008306  0
H  H12  1  0.06784238  0.56870457  0.86919249  1  0.043886  0  0.079249  0.109061  0  1.07231  0
H  H13  1  0.93216679  0.43129314  0.36919359  1  0.043844  0  0.079292  0.109085  0  1.072255  0
H  H14  1  0.24000965  0.69925335  0.82531018  1  0.026886  0  0.088913  0.128949  0  1.002904  0
H  H15  1  0.75999667  0.30074541  0.32530963  1  0.026902  0  0.088925  0.128967  0  1.002917  0
H  H16  1  0.25329556  0.52170417  0.80550228  1  0.038915  0  0.087072  0.122709  0  1.014582  0
H  H17  1  0.74670887  0.47829249  0.30550339  1  0.038986  0  0.087049  0.12269  0  1.014634  0
H  H18  1  0.58004596  0.61151483  0.71685749  1  0.063779  0  0.084998  0.123668  0  1.043978  0
H  H19  1  0.41995847  0.38848184  0.21685914  1  0.063764  0  0.084975  0.123673  0  1.043959  0
H  H20  1  0.73935697  0.69811304  0.64782077  1  0.005021  0  0.082096  0.116483  0  1.033875  0
H  H21  1  0.26065124  0.30188779  0.14782243  1  0.005128  0  0.082069  0.116491  0  1.033681  0
H  H22  1  0.59506621  0.79572444  0.70590026  1  0.045858  0  0.086306  0.123053  0  1.01986  0
H  H23  1  0.40494315  0.20427431  0.20590246  1  0.045681  0  0.086264  0.123004  0  1.019885  0
H  H24  1  0.67635048  0.82663450  0.83888314  1  0.045874  0  0.080684  0.118243  0  1.040927  0
H  H25  1  0.32364328  0.17337050  0.33888644  1  0.045874  0  0.080704  0.118254  0  1.040964  0
H  H26  1  0.88679713  0.75663840  0.87913580  1  -0.026937  0  0.075784  0.098813  0  1.058019  0
H  H27  1  0.11319667  0.24335827  0.37913690  1  -0.026976  0  0.075816  0.098845  0  1.05801  0
H  H28  1  0.66759919  0.64196106  0.85149502  1  0.052736  0  0.08342  0.125484  0  1.029214  0
H  H29  1  0.33240653  0.35804290  0.35149777  1  0.052572  0  0.083446  0.125488  0  1.029278  0
H  H30  1  0.33413060  0.10414884  0.47099136  1  0.20013  0  0.142489  0.11613  0  1.020412  0
H  H31  1  0.66587526  0.89586451  0.97098916  1  0.200407  0  0.142467  0.116101  0  1.020342  0
H  H32  1  0.19045882  0.28631029  0.67328122  1  0.239449  0  0.145246  0.140244  0  1.041336  0
H  H33  1  0.80954768  0.71368951  0.17327682  1  0.266017  0  0.145237  0.140264  0  1.041402  0
H  H34  1  0.97271651  0.17650893  0.48417295  1  0.072866  0  0.117234  0.102226  0  0.975471  0
H  H35  1  0.02727936  0.82349086  0.98416580  1  0.072773  0  0.117218  0.102228  0  0.975488  0
H  H36  1  0.88564346  0.20311838  0.57435900  1  0.154768  0  0.119836  0.118239  0  1.021515  0
H  H37  1  0.11435600  0.79688454  0.07435460  1  0.154854  0  0.119799  0.118193  0  1.021501  0
H  H38  1  0.32479304  0.42334335  0.48218803  1  0.06359  0  0.102582  0.099336  0  1.018424  0
H  H39  1  0.67520320  0.57665853  0.98218858  1  0.063447  0  0.102548  0.099307  0  1.01851  0
H  H40  1  0.31660268  0.66861533  0.44533550  1  0.098222  0  0.101882  0.103538  0  1.021723  0
H  H41  1  0.68338634  0.33138864  0.94533660  1  0.098112  0  0.101846  0.103501  0  1.021835  0
H  H42  1  0.68520127  0.64204340  0.51165520  1  0.065481  0  0.10228  0.100206  0  1.011149  0
H  H43  1  0.31478877  0.35794909  0.01165630  1  0.065521  0  0.102289  0.100248  0  1.011072  0
H  H44  1  0.69299056  0.39577288  0.54753289  1  0.053925  0  0.101521  0.102137  0  1.020642  0
H  H45  1  0.30700136  0.60422170  0.04752794  1  0.054075  0  0.101524  0.102271  0  1.02055  0
H  H46  1  0.01696195  0.88967728  0.50628667  1  0.070999  0  0.118879  0.107029  0  0.976587  0
H  H47  1  0.98302918  0.11032147  0.00628392  1  0.071068  0  0.11887  0.10703  0  0.976633  0
H  H48  1  0.13206548  0.86060274  0.42015082  1  0.122172  0  0.117856  0.112289  0  1.018899  0
H  H49  1  0.86792413  0.13939601  0.92014477  1  0.122032  0  0.117874  0.112371  0  1.018866  0
H  H50  1  0.66132955  0.96068861  0.50484230  1  0.203945  0  0.140778  0.117145  0  1.026015  0
H  H51  1  0.33865667  0.03930806  0.00484450  1  0.203885  0  0.140745  0.117062  0  1.02597  0
H  H52  1  0.84268782  0.76231593  0.31187813  1  0.20191  0  0.146047  0.12539  0  0.99473  0
H  H53  1  0.15732605  0.23769117  0.81187703  1  0.201914  0  0.146023  0.125373  0  0.994673  0
C  C54  1  0.90800963  0.98159864  0.72828095  1  1.519989  0  0.187262  0.581576  0  4.171607  0
C  C55  1  0.09199269  0.01840324  0.22828205  1  1.520409  0  0.18724  0.58151  0  4.172056  0
C  C56  1  0.01468752  0.85293646  0.73986404  1  -0.00575  0  -0.090751  -0.161821  0  3.817984  0
C  C57  1  0.98531746  0.14706333  0.23986679  1  -0.005611  0  -0.090728  -0.161786  0  3.818281  0
C  C58  1  0.85763462  0.72429201  0.76094017  1  0.077086  0  -0.005833  0.205722  0  3.690402  0
C  C59  1  0.14236678  0.27570466  0.26094182  1  0.077548  0  -0.005842  0.205688  0  3.690564  0
C  C60  1  0.99599207  0.60372034  0.75272032  1  0.01804  0  -0.009537  0.02257  0  3.709208  0
C  C61  1  0.00401237  0.39627633  0.25272087  1  0.018057  0  -0.00952  0.022807  0  3.708972  0
C  C62  1  0.11796828  0.64302214  0.68092696  1  -0.069186  0  -0.171703  -0.194196  0  3.868198  0
C  C63  1  0.88203105  0.35697140  0.18092916  1  -0.069074  0  -0.171735  -0.194339  0  3.868248  0
C  C64  1  0.13095161  0.80319997  0.67366324  1  -0.030821  0  -0.172642  -0.157831  0  3.903316  0
C  C65  1  0.86905701  0.19679461  0.17366379  1  -0.030971  0  -0.172597  -0.157695  0  3.903373  0
C  C66  1  0.87737508  0.45757634  0.74834700  1  1.542522  0  0.202187  0.577457  0  4.102547  0
C  C67  1  0.12263488  0.54241720  0.24834865  1  1.542214  0  0.202158  0.577331  0  4.102621  0
C  C68  1  0.14703679  0.59814913  0.81744592  1  -0.084482  0  -0.245497  -0.399572  0  3.894241  0
C  C69  1  0.85296631  0.40184858  0.31744647  1  -0.084496  0  -0.245544  -0.399692  0  3.89419  0
C  C70  1  0.68298609  0.70620563  0.70432322  1  -0.121505  0  -0.25277  -0.4199  0  3.877076  0
C  C71  1  0.31701779  0.29378791  0.20432708  1  -0.121691  0  -0.25263  -0.419823  0  3.876777  0
C  C72  1  0.76612200  0.73796311  0.83739693  1  -0.071911  0  -0.255751  -0.426389  0  3.922062  0
C  C73  1  0.23387346  0.26204294  0.33740078  1  -0.071807  0  -0.255863  -0.426489  0  3.922254  0
C  C74  1  0.34526193  0.13954506  0.52786591  1  0.910884  0  0.15231  0.058702  0  3.927606  0
C  C75  1  0.65474963  0.86046620  0.02786371  1  0.909728  0  0.152325  0.058757  0  3.927408  0
C  C76  1  0.27292622  0.23233467  0.63219079  1  0.97471  0  0.165772  0.098102  0  3.848072  0
C  C77  1  0.72708387  0.76766825  0.13218913  1  0.948383  0  0.165654  0.097853  0  3.848172  0
C  C78  1  0.00490516  0.23923172  0.53435405  1  0.26862  0  -0.038989  -0.112808  0  3.872258  0
C  C79  1  0.99509771  0.76077329  0.03434964  1  0.268576  0  -0.038952  -0.112811  0  3.872246  0
C  C80  1  0.00854984  0.39221544  0.51693951  1  -0.097043  0  -0.0079  0.086099  0  3.973748  0
C  C81  1  0.99144471  0.60778540  0.01693565  1  -0.097003  0  -0.007898  0.086125  0  3.973803  0
C  C82  1  0.18430870  0.47099415  0.48948973  1  0.027929  0  -0.086837  -0.126067  0  3.985474  0
C  C83  1  0.81567572  0.52901815  0.98948533  1  0.028137  0  -0.086734  -0.125967  0  3.985194  0
C  C84  1  0.18057083  0.60958340  0.46891672  1  -0.098763  0  -0.082546  -0.109274  0  3.9567  0
C  C85  1  0.81941004  0.39041743  0.96891066  1  -0.098063  0  -0.082516  -0.10921  0  3.956259  0
C  C86  1  0.00147640  0.67270331  0.47635603  1  0.016503  0  -0.011248  0.08565  0  3.967984  0
C  C87  1  0.99851230  0.32729023  0.97635493  1  0.015761  0  -0.011188  0.08567  0  3.968026  0
C  C88  1  0.82592525  0.59433110  0.50460450  1  -0.072103  0  -0.088101  -0.131549  0  3.989483  0
C  C89  1  0.17406455  0.40566869  0.00460836  1  -0.071933  0  -0.08817  -0.131735  0  3.989773  0
C  C90  1  0.82949187  0.45551150  0.52474267  1  0.005451  0  -0.085869  -0.116563  0  3.970223  0
C  C91  1  0.17049683  0.54448204  0.02473826  1  0.005231  0  -0.085911  -0.116712  0  3.970564  0
C  C92  1  0.00280535  0.82461032  0.45634172  1  0.29014  0  -0.040949  -0.115184  0  3.872989  0
C  C93  1  0.99718597  0.17538948  0.95634007  1  0.290838  0  -0.040993  -0.11532  0  3.87346  0
C  C94  1  0.66019474  0.91873514  0.44907690  1  0.917818  0  0.148105  0.055455  0  3.935184  0
C  C95  1  0.33979847  0.08126674  0.94907910  1  0.9177  0  0.14821  0.055692  0  3.934879  0
C  C96  1  0.75286791  0.81582979  0.35032201  1  0.983949  0  0.167154  0.10956  0  3.876551  0
C  C97  1  0.24713270  0.18417104  0.85032311  1  0.983976  0  0.167227  0.109618  0  3.876351  0
N  N98  1  0.45300877  0.18543434  0.63851049  1  -0.782597  0  -0.247008  -0.205167  0  3.487585  0
N  N99  1  0.54699221  0.81456858  0.13850773  1  -0.782461  0  -0.246988  -0.205059  0  3.487457  0
N  N100  1  0.19979613  0.20473189  0.56314967  1  -1.232241  0  -0.230541  0.034487  0  3.751611  0
N  N101  1  0.80020766  0.79527832  0.06314747  1  -1.23231  0  -0.230422  0.034755  0  3.751597  0
N  N102  1  0.49999755  0.12605220  0.57235592  1  -0.7024  0  -0.225609  -0.201995  0  3.240423  0
N  N103  1  0.50000605  0.87395698  0.07235372  1  -0.701694  0  -0.225619  -0.202127  0  3.240373  0
N  N104  1  0.81398483  0.85256644  0.41993780  1  -1.237297  0  -0.232697  0.023824  0  3.759526  0
N  N105  1  0.18600285  0.14743857  0.91993890  1  -1.237877  0  -0.232728  0.023845  0  3.759331  0
N  N106  1  0.57248186  0.85832110  0.33764023  1  -0.774372  0  -0.239989  -0.20188  0  3.432776  0
N  N107  1  0.42751875  0.14167974  0.83764353  1  -0.774277  0  -0.23999  -0.201862  0  3.432812  0
N  N108  1  0.51258724  0.92414688  0.40032201  1  -0.715779  0  -0.229518  -0.211061  0  3.233151  0
N  N109  1  0.48740159  0.07585604  0.90032697  1  -0.715844  0  -0.229582  -0.211233  0  3.233475  0
O  O110  1  0.86082605  0.04408815  0.78784004  1  -1.16219  0  -0.348121  -0.574431  0  2.258139  0
O  O111  1  0.13918119  0.95591582  0.28784114  1  -1.162113  0  -0.348113  -0.574408  0  2.25817  0
O  O112  1  0.85898992  0.02016164  0.66495899  1  -1.174449  0  -0.33712  -0.570896  0  2.165301  0
O  O113  1  0.14100444  0.97983816  0.16496229  1  -1.175037  0  -0.337067  -0.570835  0  2.165609  0
O  O114  1  0.70380279  0.42909593  0.77966973  1  -1.166383  0  -0.334938  -0.553605  0  2.18612  0
O  O115  1  0.29619952  0.57090595  0.27966753  1  -1.166543  0  -0.334914  -0.553528  0  2.186213  0
O  O116  1  0.96102481  0.36319614  0.71429790  1  -1.198552  0  -0.337786  -0.574626  0  2.22686  0
O  O117  1  0.03895974  0.63679114  0.21429625  1  -1.198422  0  -0.337795  -0.574662  0  2.226801  0
