# generated using pymatgen
data_CuH7C7SBrN
_symmetry_space_group_name_H-M   'P 1'
_cell_length_a   5.55536439
_cell_length_b   13.83810960
_cell_length_c   15.25665792
_cell_angle_alpha   90.00390141
_cell_angle_beta   93.32166464
_cell_angle_gamma   89.99970464
_symmetry_Int_Tables_number   1
_chemical_formula_structural   CuH7C7SBrN
_chemical_formula_sum   'Cu4 H28 C28 S4 Br4 N4'
_cell_volume   1170.89644397
_cell_formula_units_Z   4
loop_
 _symmetry_equiv_pos_site_id
 _symmetry_equiv_pos_as_xyz
  1  'x, y, z'
loop_
 _atom_site_type_symbol
 _atom_site_label
 _atom_site_symmetry_multiplicity
 _atom_site_fract_x
 _atom_site_fract_y
 _atom_site_fract_z
 _atom_site_occupancy
 _atom_site_hle17_bader_spin_density
 _atom_site_hle17_ddec_charge
 _atom_site_hle17_ddec_spin_density
 _atom_site_hle17_ddec_sum_bond_order
 _atom_site_hle17_magmom
 _atom_site_hse06_10hf_bader_spin_density
 _atom_site_hse06_10hf_ddec_charge
 _atom_site_hse06_10hf_ddec_spin_density
 _atom_site_hse06_10hf_ddec_sum_bond_order
 _atom_site_hse06_10hf_magmom
 _atom_site_hse06_bader_spin_density
 _atom_site_hse06_ddec_charge
 _atom_site_hse06_ddec_spin_density
 _atom_site_hse06_ddec_sum_bond_order
 _atom_site_hse06_magmom
 _atom_site_pbe_bader_spin_density
 _atom_site_pbe_cm5_charge
 _atom_site_pbe_ddec_charge
 _atom_site_pbe_ddec_spin_density
 _atom_site_pbe_ddec_sum_bond_order
 _atom_site_pbe_magmom
Cu  Cu0  1  0.74034601  0.50822829  0.50782140  1  0  0.300897  0  2.201972  0  0  0.235615  0  2.693678  0  0  0.240503  0  2.64419  0  0  0.270073  0.234315  0  2.725518  0
Cu  Cu1  1  0.75965838  0.00820449  0.99216918  1  0  0.300897  0  2.202467  0  0  0.235673  0  2.69418  0  0  0.240478  0  2.644707  0  0  0.270097  0.23439  0  2.726042  0
Cu  Cu2  1  0.25965135  0.49178515  0.49216262  1  0  0.300955  0  2.202041  0  0  0.235711  0  2.693727  0  0  0.240537  0  2.644256  0  0  0.270117  0.234423  0  2.725575  0
Cu  Cu3  1  0.24030976  0.99176487  0.00783224  1  0  0.300951  0  2.201837  0  0  0.235659  0  2.69357  0  0  0.240544  0  2.644081  0  0  0.270103  0.234366  0  2.72544  0
H  H4  1  0.04215137  0.67783685  0.60737230  1  0  0.093192  0  0.976766  0  0  0.097986  0  1.049234  0  0  0.101991  0  1.046134  0  0  0.089798  0.095005  0  1.051573  0
H  H5  1  0.45783301  0.17783036  0.89263770  1  0  0.093306  0  0.976703  0  0  0.098076  0  1.049197  0  0  0.102069  0  1.046106  0  0  0.089831  0.095095  0  1.051535  0
H  H6  1  0.95784269  0.32218527  0.39261563  1  0  0.093291  0  0.976876  0  0  0.097898  0  1.049576  0  0  0.101927  0  1.046457  0  0  0.089763  0.094927  0  1.051896  0
H  H7  1  0.54214546  0.82216574  0.10738023  1  0  0.09319  0  0.976857  0  0  0.097925  0  1.049395  0  0  0.101947  0  1.046278  0  0  0.089765  0.094943  0  1.051735  0
H  H8  1  0.74794861  0.76752659  0.69387171  1  0  0.088913  0  0.947293  0  0  0.099831  0  1.004088  0  0  0.102796  0  1.003704  0  0  0.094519  0.097707  0  1.004472  0
H  H9  1  0.75203580  0.26752183  0.80614618  1  0  0.08904  0  0.947363  0  0  0.099981  0  1.004123  0  0  0.102948  0  1.003736  0  0  0.094541  0.097857  0  1.004509  0
H  H10  1  0.25208251  0.23248902  0.30612906  1  0  0.088868  0  0.947358  0  0  0.09977  0  1.004147  0  0  0.102732  0  1.003771  0  0  0.094527  0.097646  0  1.004531  0
H  H11  1  0.24795385  0.73247933  0.19387645  1  0  0.088974  0  0.947372  0  0  0.099926  0  1.00412  0  0  0.102891  0  1.003736  0  0  0.094591  0.097801  0  1.004506  0
H  H12  1  0.81508789  0.78189958  0.85633629  1  0  0.089616  0  0.988938  0  0  0.097546  0  1.056264  0  0  0.100894  0  1.054293  0  0  0.08379  0.095027  0  1.057846  0
H  H13  1  0.68491300  0.28189193  0.64368658  1  0  0.089687  0  0.98836  0  0  0.097601  0  1.055761  0  0  0.100949  0  1.053792  0  0  0.083741  0.095083  0  1.057342  0
H  H14  1  0.18493374  0.21810664  0.14365848  1  0  0.089638  0  0.988977  0  0  0.097637  0  1.056269  0  0  0.100983  0  1.054298  0  0  0.083833  0.095118  0  1.057849  0
H  H15  1  0.31508820  0.71811791  0.35634535  1  0  0.089679  0  0.988531  0  0  0.097624  0  1.055889  0  0  0.100973  0  1.053917  0  0  0.083856  0.095103  0  1.057468  0
H  H16  1  0.18037545  0.70879409  0.93162807  1  0  0.092577  0  0.943207  0  0  0.104542  0  0.998066  0  0  0.10766  0  0.996915  0  0  0.097102  0.102285  0  0.999031  0
H  H17  1  0.31962306  0.20877970  0.56838197  1  0  0.092667  0  0.943313  0  0  0.104686  0  0.998078  0  0  0.107804  0  0.996927  0  0  0.097158  0.102428  0  0.999047  0
H  H18  1  0.81962752  0.29119117  0.06835863  1  0  0.092581  0  0.943146  0  0  0.104533  0  0.998013  0  0  0.107647  0  0.99687  0  0  0.09707  0.102276  0  0.998977  0
H  H19  1  0.68040768  0.79123230  0.43163650  1  0  0.09256  0  0.943048  0  0  0.104574  0  0.997849  0  0  0.107695  0  0.996695  0  0  0.097087  0.102311  0  0.998825  0
H  H20  1  0.47615445  0.62124821  0.84555883  1  0  0.086597  0  0.95166  0  0  0.099027  0  1.009763  0  0  0.101829  0  1.008234  0  0  0.101038  0.096973  0  1.010968  0
H  H21  1  0.02385509  0.12123229  0.65444406  1  0  0.086809  0  0.951694  0  0  0.099147  0  1.009867  0  0  0.101936  0  1.008346  0  0  0.101101  0.097095  0  1.011071  0
H  H22  1  0.52383962  0.37873849  0.15442909  1  0  0.086579  0  0.951572  0  0  0.098999  0  1.009705  0  0  0.101799  0  1.008174  0  0  0.101011  0.096946  0  1.010909  0
H  H23  1  0.97615302  0.87876814  0.34556172  1  0  0.086771  0  0.951885  0  0  0.099184  0  1.00997  0  0  0.101981  0  1.008444  0  0  0.101092  0.097133  0  1.011175  0
H  H24  1  0.51831508  0.49024829  0.76863837  1  0  0.329163  0  0.859299  0  0  0.321604  0  0.903686  0  0  0.328806  0  0.898041  0  0  0.323573  0.316596  0  0.907742  0
H  H25  1  0.98166140  0.99022296  0.73135096  1  0  0.329034  0  0.859477  0  0  0.321566  0  0.903742  0  0  0.328769  0  0.898092  0  0  0.323494  0.316556  0  0.907804  0
H  H26  1  0.48164792  0.50975286  0.23134398  1  0  0.329027  0  0.859451  0  0  0.321561  0  0.903704  0  0  0.328762  0  0.898061  0  0  0.323503  0.316552  0  0.907761  0
H  H27  1  0.01833563  0.00976808  0.26865142  1  0  0.32912  0  0.859345  0  0  0.321628  0  0.903641  0  0  0.328834  0  0.897989  0  0  0.323503  0.316617  0  0.907705  0
H  H28  1  0.69843274  0.47917017  0.67794069  1  0  0.316936  0  0.937062  0  0  0.295433  0  1.012515  0  0  0.305356  0  1.002984  0  0  0.27316  0.288392  0  1.01928  0
H  H29  1  0.80155646  0.97914921  0.82204876  1  0  0.316927  0  0.937128  0  0  0.295453  0  1.012534  0  0  0.30538  0  1.002999  0  0  0.273149  0.288414  0  1.019292  0
H  H30  1  0.30158630  0.52082376  0.32204421  1  0  0.316994  0  0.937208  0  0  0.295599  0  1.012541  0  0  0.30552  0  1.003009  0  0  0.273207  0.288553  0  1.019321  0
H  H31  1  0.19844720  0.02084038  0.17794648  1  0  0.316862  0  0.937087  0  0  0.295371  0  1.012535  0  0  0.305296  0  1.003006  0  0  0.273091  0.288328  0  1.019301  0
C  C32  1  0.44733765  0.58775431  0.67027935  1  0  0.350348  0  3.747767  0  0  0.326068  0  4.026499  0  0  0.352769  0  4.03285  0  0  0.14424  0.308237  0  4.021582  0
C  C33  1  0.05267182  0.08773655  0.82971889  1  0  0.350454  0  3.747697  0  0  0.326122  0  4.026665  0  0  0.352806  0  4.033052  0  0  0.144192  0.308314  0  4.021714  0
C  C34  1  0.55265286  0.41225697  0.32970919  1  0  0.350503  0  3.748481  0  0  0.326046  0  4.027448  0  0  0.352728  0  4.033836  0  0  0.144204  0.308221  0  4.022517  0
C  C35  1  0.94731095  0.91225377  0.17028531  1  0  0.350293  0  3.74784  0  0  0.325882  0  4.026784  0  0  0.352572  0  4.033159  0  0  0.144161  0.308075  0  4.021829  0
C  C36  1  0.27565947  0.64224000  0.72072742  1  0  -0.020494  0  3.793843  0  0  0.004595  0  4.024095  0  0  -0.004091  0  4.048854  0  0  -0.018951  0.010006  0  4.007587  0
C  C37  1  0.22431749  0.14222529  0.77927574  1  0  -0.020224  0  3.794054  0  0  0.004624  0  4.024653  0  0  -0.004061  0  4.049404  0  0  -0.018902  0.010034  0  4.008141  0
C  C38  1  0.72432967  0.35776333  0.27926635  1  0  -0.020443  0  3.793964  0  0  0.004648  0  4.024279  0  0  -0.004036  0  4.04905  0  0  -0.018893  0.010059  0  4.007769  0
C  C39  1  0.77566936  0.85776720  0.22073440  1  0  -0.020344  0  3.794255  0  0  0.004742  0  4.024552  0  0  -0.003945  0  4.049314  0  0  -0.018897  0.010148  0  4.008045  0
C  C40  1  0.07243074  0.68608054  0.67823911  1  0  -0.077236  0  3.721649  0  0  -0.0998  0  3.964993  0  0  -0.098326  0  3.984887  0  0  -0.089116  -0.100779  0  3.951954  0
C  C41  1  0.42751989  0.18605568  0.82177758  1  0  -0.077409  0  3.721572  0  0  -0.099871  0  3.964988  0  0  -0.098383  0  3.984883  0  0  -0.089099  -0.100853  0  3.951961  0
C  C42  1  0.92757600  0.31394085  0.32174960  1  0  -0.077378  0  3.72196  0  0  -0.099796  0  3.965275  0  0  -0.098349  0  3.985151  0  0  -0.089045  -0.100776  0  3.952242  0
C  C43  1  0.57244813  0.81393681  0.17824482  1  0  -0.077219  0  3.722068  0  0  -0.099717  0  3.9654  0  0  -0.098256  0  3.98528  0  0  -0.089105  -0.1007  0  3.952371  0
C  C44  1  0.90826023  0.73578204  0.72713796  1  0  -0.076234  0  3.766396  0  0  -0.086363  0  4.014838  0  0  -0.09119  0  4.036706  0  0  -0.098004  -0.08329  0  4.000296  0
C  C45  1  0.59172893  0.23576926  0.77289051  1  0  -0.076538  0  3.766209  0  0  -0.086663  0  4.014628  0  0  -0.09149  0  4.036487  0  0  -0.098142  -0.083589  0  4.000087  0
C  C46  1  0.09177115  0.26422923  0.27286609  1  0  -0.076168  0  3.7659  0  0  -0.086196  0  4.014283  0  0  -0.091026  0  4.036151  0  0  -0.098075  -0.083124  0  3.999744  0
C  C47  1  0.40826608  0.76422684  0.22713152  1  0  -0.076319  0  3.766279  0  0  -0.086472  0  4.014774  0  0  -0.091297  0  4.036638  0  0  -0.098086  -0.083396  0  4.000236  0
C  C48  1  0.94431566  0.74272864  0.81842765  1  0  -0.048411  0  3.729698  0  0  -0.066181  0  3.980185  0  0  -0.064387  0  3.998229  0  0  -0.091721  -0.067372  0  3.968289  0
C  C49  1  0.55564919  0.24270968  0.68159049  1  0  -0.048243  0  3.728552  0  0  -0.066059  0  3.979122  0  0  -0.064263  0  3.997166  0  0  -0.0915  -0.067248  0  3.967227  0
C  C50  1  0.05571287  0.25728047  0.18156325  1  0  -0.048548  0  3.729197  0  0  -0.066475  0  3.979804  0  0  -0.064679  0  3.997842  0  0  -0.091837  -0.067663  0  3.967905  0
C  C51  1  0.44434576  0.75729148  0.31843088  1  0  -0.048545  0  3.728977  0  0  -0.066387  0  3.97961  0  0  -0.06459  0  3.997648  0  0  -0.091807  -0.067573  0  3.96771  0
C  C52  1  0.14757308  0.70037480  0.86089483  1  0  -0.063713  0  3.782248  0  0  -0.074967  0  4.031655  0  0  -0.07806  0  4.051577  0  0  -0.095916  -0.073141  0  4.018469  0
C  C53  1  0.35237357  0.20034769  0.63911875  1  0  -0.063916  0  3.782293  0  0  -0.075143  0  4.03161  0  0  -0.078238  0  4.051526  0  0  -0.095961  -0.073317  0  4.018426  0
C  C54  1  0.85242825  0.29962780  0.13909382  1  0  -0.063737  0  3.781924  0  0  -0.074914  0  4.031332  0  0  -0.078006  0  4.051254  0  0  -0.095784  -0.073087  0  4.018141  0
C  C55  1  0.64762611  0.79965058  0.36089415  1  0  -0.063559  0  3.781892  0  0  -0.074786  0  4.031252  0  0  -0.077881  0  4.051168  0  0  -0.095753  -0.072957  0  4.018062  0
C  C56  1  0.31220258  0.65031611  0.81257372  1  0  -0.093978  0  3.736912  0  0  -0.118066  0  3.984234  0  0  -0.116901  0  4.004219  0  0  -0.090789  -0.118695  0  3.970835  0
C  C57  1  0.18778399  0.15029228  0.68743790  1  0  -0.094185  0  3.737443  0  0  -0.118137  0  3.984833  0  0  -0.116968  0  4.004824  0  0  -0.090852  -0.118766  0  3.971437  0
C  C58  1  0.68780310  0.34968361  0.18742416  1  0  -0.093912  0  3.736931  0  0  -0.117991  0  3.984251  0  0  -0.116821  0  4.004231  0  0  -0.090779  -0.118619  0  3.970848  0
C  C59  1  0.81222634  0.84970816  0.31257314  1  0  -0.094183  0  3.737389  0  0  -0.118275  0  3.984704  0  0  -0.117114  0  4.004705  0  0  -0.090843  -0.118904  0  3.971308  0
S  S60  1  0.49078738  0.61766976  0.56398016  1  0  -0.3269  0  2.557101  0  0  -0.304803  0  2.985214  0  0  -0.316743  0  2.961159  0  0  -0.199381  -0.297503  0  3.000806  0
S  S61  1  0.00918778  0.11764937  0.93602018  1  0  -0.326984  0  2.556923  0  0  -0.304849  0  2.985086  0  0  -0.316774  0  2.961024  0  0  -0.199431  -0.297568  0  3.000694  0
S  S62  1  0.50921656  0.38234586  0.43599606  1  0  -0.326846  0  2.557443  0  0  -0.304694  0  2.985653  0  0  -0.316603  0  2.961567  0  0  -0.199349  -0.297412  0  3.001264  0
S  S63  1  0.99076059  0.88233011  0.06398169  1  0  -0.326996  0  2.557232  0  0  -0.304815  0  2.985348  0  0  -0.316748  0  2.961301  0  0  -0.199444  -0.297531  0  3.000952  0
Br  Br64  1  0.97982830  0.58923269  0.39603489  1  0  -0.473966  0  1.330434  0  0  -0.406143  0  1.672342  0  0  -0.428585  0  1.645449  0  0  -0.253015  -0.38991  0  1.689758  0
Br  Br65  1  0.52021968  0.08922448  0.10396190  1  0  -0.4739  0  1.330246  0  0  -0.406064  0  1.672102  0  0  -0.4285  0  1.645208  0  0  -0.252975  -0.389836  0  1.689526  0
Br  Br66  1  0.02020711  0.41076413  0.60395215  1  0  -0.474002  0  1.33017  0  0  -0.406142  0  1.672008  0  0  -0.428588  0  1.645121  0  0  -0.253041  -0.389914  0  1.689421  0
Br  Br67  1  0.47981961  0.91076873  0.89602846  1  0  -0.473931  0  1.330494  0  0  -0.406111  0  1.672386  0  0  -0.428549  0  1.645493  0  0  -0.25298  -0.389887  0  1.689811  0
N  N68  1  0.56750588  0.51541707  0.70984855  1  0  -0.567354  0  3.194575  0  0  -0.525997  0  3.418842  0  0  -0.544363  0  3.413591  0  0  -0.540435  -0.513928  0  3.422544  0
N  N69  1  0.93248417  0.01539990  0.79014363  1  0  -0.567416  0  3.194815  0  0  -0.526104  0  3.418971  0  0  -0.544464  0  3.41373  0  0  -0.540411  -0.514044  0  3.422667  0
N  N70  1  0.43248989  0.48458192  0.29013808  1  0  -0.567383  0  3.195342  0  0  -0.526149  0  3.41942  0  0  -0.544511  0  3.414177  0  0  -0.540466  -0.514077  0  3.423122  0
N  N71  1  0.06750889  0.98459258  0.20985412  1  0  -0.56728  0  3.194646  0  0  -0.52596  0  3.418855  0  0  -0.544323  0  3.413618  0  0  -0.540296  -0.513898  0  3.422551  0
