# generated using pymatgen
data_CdH5C4N9
_symmetry_space_group_name_H-M   'P 1'
_cell_length_a   11.62796396
_cell_length_b   12.68739026
_cell_length_c   12.62260000
_cell_angle_alpha   111.00304735
_cell_angle_beta   107.66169586
_cell_angle_gamma   107.89880979
_symmetry_Int_Tables_number   1
_chemical_formula_structural   CdH5C4N9
_chemical_formula_sum   'Cd6 H30 C24 N54'
_cell_volume   1464.15133779
_cell_formula_units_Z   6
loop_
 _symmetry_equiv_pos_site_id
 _symmetry_equiv_pos_as_xyz
  1  'x, y, z'
loop_
 _atom_site_type_symbol
 _atom_site_label
 _atom_site_symmetry_multiplicity
 _atom_site_fract_x
 _atom_site_fract_y
 _atom_site_fract_z
 _atom_site_occupancy
 _atom_site_hle17_bader_spin_density
 _atom_site_hle17_ddec_charge
 _atom_site_hle17_ddec_spin_density
 _atom_site_hle17_ddec_sum_bond_order
 _atom_site_hle17_magmom
 _atom_site_hse06_10hf_bader_spin_density
 _atom_site_hse06_10hf_ddec_charge
 _atom_site_hse06_10hf_ddec_spin_density
 _atom_site_hse06_10hf_ddec_sum_bond_order
 _atom_site_hse06_10hf_magmom
 _atom_site_hse06_bader_spin_density
 _atom_site_hse06_ddec_charge
 _atom_site_hse06_ddec_spin_density
 _atom_site_hse06_ddec_sum_bond_order
 _atom_site_hse06_magmom
 _atom_site_pbe_bader_charge
 _atom_site_pbe_bader_spin_density
 _atom_site_pbe_cm5_charge
 _atom_site_pbe_ddec_charge
 _atom_site_pbe_ddec_spin_density
 _atom_site_pbe_ddec_sum_bond_order
 _atom_site_pbe_magmom
Cd  Cd0  1  0.23504215  0.55662706  0.05738574  1  0  0.937494  0  1.88395  0  0  0.710166  0  2.345975  0  0  0.759348  0  2.307823  0  1.22574  0  0.808004  0.675825  0  2.371913  0
Cd  Cd1  1  0.67858985  0.50091555  0.44388464  1  0  0.93729  0  1.884734  0  0  0.710126  0  2.346807  0  0  0.759283  0  2.308681  0  1.224348  0  0.807596  0.675814  0  2.37271  0
Cd  Cd2  1  0.17832026  0.94319951  0.49983384  1  0  0.938943  0  1.87506  0  0  0.711247  0  2.336224  0  0  0.760672  0  2.298042  0  1.226779  0  0.806011  0.676755  0  2.362141  0
Cd  Cd3  1  0.76495890  0.44337290  0.94261477  1  0  0.937513  0  1.88391  0  0  0.710182  0  2.345944  0  0  0.759364  0  2.307791  0  1.225671  0  0.808016  0.675841  0  2.371882  0
Cd  Cd4  1  0.32141029  0.49908441  0.55611563  1  0  0.937257  0  1.884756  0  0  0.710087  0  2.34683  0  0  0.759241  0  2.308709  0  1.224349  0  0.807574  0.675772  0  2.372734  0
Cd  Cd5  1  0.82168037  0.05680141  0.50016690  1  0  0.938928  0  1.875073  0  0  0.71123  0  2.336236  0  0  0.760658  0  2.298051  0  1.226758  0  0.805995  0.676733  0  2.362164  0
H  H6  1  0.62180541  0.75251145  0.56043389  1  0  0.084444  0  0.939004  0  0  0.08993  0  1.017733  0  0  0.09166  0  1.016144  0  0.082827  0  0.107767  0.08872  0  1.018741  0
H  H7  1  0.86965510  0.80731074  0.24772312  1  0  0.084648  0  0.937784  0  0  0.090223  0  1.016339  0  0  0.09193  0  1.014791  0  0.086452  0  0.107501  0.089019  0  1.017329  0
H  H8  1  0.06247041  0.44007074  0.19222495  1  0  0.084223  0  0.938751  0  0  0.089716  0  1.017754  0  0  0.091417  0  1.016182  0  0.071595  0  0.107437  0.088512  0  1.018761  0
H  H9  1  0.37819474  0.24748851  0.43956479  1  0  0.084435  0  0.938995  0  0  0.089924  0  1.017716  0  0  0.091654  0  1.016128  0  0.08282  0  0.107767  0.088714  0  1.018724  0
H  H10  1  0.13034410  0.19268731  0.75227698  1  0  0.084649  0  0.937776  0  0  0.090227  0  1.016331  0  0  0.091934  0  1.014781  0  0.08645  0  0.107502  0.089023  0  1.01732  0
H  H11  1  0.93752783  0.55992540  0.80777340  1  0  0.08417  0  0.938759  0  0  0.089699  0  1.01773  0  0  0.091396  0  1.016161  0  0.071593  0  0.107432  0.088493  0  1.018742  0
H  H12  1  0.74810295  0.90367684  0.69054888  1  0  0.10606  0  0.885883  0  0  0.123681  0  0.93567  0  0  0.124921  0  0.934964  0  0.082029  0  0.125247  0.122913  0  0.936001  0
H  H13  1  0.84447111  0.78569822  0.09558993  1  0  0.105382  0  0.887392  0  0  0.122944  0  0.937409  0  0  0.124126  0  0.936777  0  0.0834  0  0.124997  0.122208  0  0.937707  0
H  H14  1  0.05851427  0.31049113  0.21459871  1  0  0.105932  0  0.886946  0  0  0.123616  0  0.936887  0  0  0.12478  0  0.936252  0  0.076983  0  0.125445  0.122868  0  0.937207  0
H  H15  1  0.25189768  0.09632407  0.30945107  1  0  0.106068  0  0.885852  0  0  0.123674  0  0.935661  0  0  0.124915  0  0.934953  0  0.082015  0  0.125245  0.122906  0  0.935992  0
H  H16  1  0.15553085  0.21430174  0.90441084  1  0  0.105446  0  0.887403  0  0  0.122986  0  0.937445  0  0  0.124167  0  0.936814  0  0.083372  0  0.125016  0.12225  0  0.937742  0
H  H17  1  0.94148450  0.68950788  0.78540004  1  0  0.105901  0  0.886889  0  0  0.12357  0  0.936861  0  0  0.124734  0  0.936225  0  0.077003  0  0.125444  0.122832  0  0.937167  0
H  H18  1  0.44822013  0.87004495  0.40142481  1  0  0.091517  0  0.943138  0  0  0.098369  0  1.020985  0  0  0.100117  0  1.018997  0  0.111571  0  0.113409  0.097024  0  1.022548  0
H  H19  1  0.57841081  0.53114404  0.13057526  1  0  0.091706  0  0.944424  0  0  0.097633  0  1.023079  0  0  0.099453  0  1.021014  0  0.079334  0  0.112961  0.096285  0  1.024665  0
H  H20  1  0.04703721  0.59945283  0.46912077  1  0  0.091125  0  0.944271  0  0  0.097133  0  1.023175  0  0  0.098949  0  1.02111  0  0.103439  0  0.112888  0.095764  0  1.024798  0
H  H21  1  0.55177874  0.12995788  0.59857613  1  0  0.091497  0  0.943136  0  0  0.098356  0  1.020978  0  0  0.100103  0  1.01899  0  0.111662  0  0.113403  0.097009  0  1.022543  0
H  H22  1  0.42158934  0.46885592  0.86942421  1  0  0.091704  0  0.944431  0  0  0.097628  0  1.023092  0  0  0.099447  0  1.021027  0  0.079342  0  0.112959  0.096281  0  1.024677  0
H  H23  1  0.95296384  0.40054713  0.53087896  1  0  0.091118  0  0.944287  0  0  0.097129  0  1.023182  0  0  0.098946  0  1.021117  0  0.103427  0  0.112874  0.09576  0  1.024805  0
H  H24  1  0.46006939  0.73422209  0.39707183  1  0  0.081472  0  0.932178  0  0  0.093173  0  0.999346  0  0  0.093667  0  1.00068  0  0.055415  0  0.106023  0.092766  0  0.998468  0
H  H25  1  0.72588649  0.66219086  0.26680207  1  0  0.081598  0  0.932893  0  0  0.093251  0  1.000034  0  0  0.093762  0  1.001395  0  0.062397  0  0.106056  0.092841  0  0.99915  0
H  H26  1  0.06345637  0.60364810  0.33704357  1  0  0.082042  0  0.932541  0  0  0.093582  0  0.99967  0  0  0.094159  0  1.000964  0  0.057571  0  0.106005  0.093129  0  0.998831  0
H  H27  1  0.53993124  0.26577882  0.60292653  1  0  0.081522  0  0.932116  0  0  0.093221  0  0.999298  0  0  0.093712  0  1.000633  0  0.055358  0  0.10602  0.092815  0  0.99842  0
H  H28  1  0.27411414  0.33781006  0.73319867  1  0  0.081609  0  0.932888  0  0  0.093266  0  1.000022  0  0  0.093777  0  1.001383  0  0.062385  0  0.106066  0.092856  0  0.999138  0
H  H29  1  0.93654378  0.39635186  0.66295591  1  0  0.08206  0  0.932521  0  0  0.09359  0  0.999655  0  0  0.094167  0  1.00095  0  0.05758  0  0.105999  0.093137  0  0.998816  0
H  H30  1  0.61643618  0.96359796  0.59319809  1  0  0.259652  0  0.908584  0  0  0.248918  0  0.969083  0  0  0.254225  0  0.9655  0  0.442211  0  0.301024  0.245085  0  0.971775  0
H  H31  1  0.65291928  0.62880922  0.03599236  1  0  0.258841  0  0.908678  0  0  0.247766  0  0.969631  0  0  0.253073  0  0.966085  0  0.43098  0  0.300836  0.243927  0  0.9723  0
H  H32  1  0.02414813  0.40785542  0.37209900  1  0  0.259275  0  0.909571  0  0  0.248449  0  0.969974  0  0  0.253757  0  0.966394  0  0.438058  0  0.300942  0.244615  0  0.97266  0
H  H33  1  0.38356307  0.03640200  0.40680192  1  0  0.259555  0  0.908704  0  0  0.248898  0  0.969123  0  0  0.254203  0  0.965539  0  0.442214  0  0.301009  0.245066  0  0.971816  0
H  H34  1  0.34708087  0.37119074  0.96400790  1  0  0.258829  0  0.90869  0  0  0.247755  0  0.969641  0  0  0.253062  0  0.966094  0  0.430974  0  0.300831  0.243916  0  0.972309  0
H  H35  1  0.97585202  0.59214454  0.62790047  1  0  0.25926  0  0.909583  0  0  0.248427  0  0.970003  0  0  0.253736  0  0.966422  0  0.438053  0  0.300935  0.244593  0  0.972689  0
C  C36  1  0.70058708  0.84499559  0.58568408  1  0  -0.055486  0  3.68563  0  0  -0.114619  0  3.948149  0  0  -0.111924  0  3.956895  0  0.323767  0  -0.057181  -0.116384  0  3.941848  0
C  C37  1  0.85582872  0.74010713  0.15485252  1  0  -0.055276  0  3.686809  0  0  -0.114481  0  3.949051  0  0  -0.111693  0  3.95771  0  0.314961  0  -0.057342  -0.116316  0  3.942798  0
C  C38  1  0.11567511  0.41491440  0.25993162  1  0  -0.056057  0  3.68741  0  0  -0.116139  0  3.950095  0  0  -0.113282  0  3.958563  0  0.342351  0  -0.057841  -0.117941  0  3.943885  0
C  C39  1  0.29941216  0.15500437  0.41431435  1  0  -0.055469  0  3.685555  0  0  -0.11459  0  3.948102  0  0  -0.111896  0  3.956841  0  0.323996  0  -0.057187  -0.116352  0  3.941801  0
C  C40  1  0.14417185  0.25989188  0.84514831  1  0  -0.05534  0  3.686856  0  0  -0.114548  0  3.94913  0  0  -0.111759  0  3.957787  0  0.315069  0  -0.057375  -0.116382  0  3.942879  0
C  C41  1  0.88432456  0.58508460  0.74006816  1  0  -0.055903  0  3.687233  0  0  -0.115993  0  3.949908  0  0  -0.11313  0  3.958379  0  0.342352  0  -0.057816  -0.117801  0  3.9437  0
C  C42  1  0.51699905  0.82691064  0.40596710  1  0  -0.053679  0  3.672905  0  0  -0.109741  0  3.928025  0  0  -0.107661  0  3.937935  0  0.290945  0  -0.061867  -0.111078  0  3.921238  0
C  C43  1  0.69032187  0.57894835  0.17364430  1  0  -0.053757  0  3.675573  0  0  -0.109172  0  3.929945  0  0  -0.107178  0  3.939981  0  0.323846  0  -0.06131  -0.11055  0  3.923188  0
C  C44  1  0.11121791  0.59455835  0.42105022  1  0  -0.053009  0  3.674381  0  0  -0.108264  0  3.928417  0  0  -0.106403  0  3.938587  0  0.28731  0  -0.060999  -0.109526  0  3.921558  0
C  C45  1  0.48300072  0.17309218  0.59403409  1  0  -0.053626  0  3.672664  0  0  -0.109733  0  3.927861  0  0  -0.107648  0  3.937757  0  0.290941  0  -0.06184  -0.111068  0  3.921074  0
C  C46  1  0.30967738  0.42105161  0.82635572  1  0  -0.053801  0  3.675584  0  0  -0.109217  0  3.929971  0  0  -0.107219  0  3.940009  0  0.323652  0  -0.061326  -0.110594  0  3.923216  0
C  C47  1  0.88878314  0.40544161  0.57894872  1  0  -0.05308  0  3.674508  0  0  -0.108312  0  3.928459  0  0  -0.106458  0  3.93864  0  0.287042  0  -0.061011  -0.109575  0  3.921599  0
C  C48  1  0.80680297  0.82545777  0.55050835  1  0  0.310104  0  3.740998  0  0  0.288548  0  4.009184  0  0  0.29955  0  4.02638  0  0.961843  0  0.216877  0.281292  0  3.997408  0
C  C49  1  0.98151116  0.72471491  0.17435549  1  0  0.308354  0  3.74126  0  0  0.287042  0  4.009514  0  0  0.298037  0  4.026726  0  0.985139  0  0.216333  0.279801  0  3.997715  0
C  C50  1  0.25674857  0.44963333  0.27515831  1  0  0.309929  0  3.74315  0  0  0.289494  0  4.009443  0  0  0.300549  0  4.026563  0  0.951117  0  0.217314  0.282188  0  3.997723  0
C  C51  1  0.19319628  0.17454219  0.44949008  1  0  0.310106  0  3.740947  0  0  0.288551  0  4.009121  0  0  0.299553  0  4.026317  0  0.961845  0  0.216864  0.281295  0  3.997345  0
C  C52  1  0.01848893  0.27528314  0.82564486  1  0  0.308335  0  3.741318  0  0  0.287024  0  4.009571  0  0  0.29802  0  4.026782  0  0.985093  0  0.216335  0.279783  0  3.997772  0
C  C53  1  0.74325062  0.55036472  0.72484021  1  0  0.309898  0  3.743124  0  0  0.289453  0  4.00944  0  0  0.300506  0  4.026562  0  0.95111  0  0.217321  0.282145  0  3.997724  0
C  C54  1  0.54539906  0.80614539  0.29443336  1  0  0.313872  0  3.763954  0  0  0.287068  0  4.033708  0  0  0.299735  0  4.051041  0  0.978219  0  0.212752  0.27869  0  4.021747  0
C  C55  1  0.73971880  0.48886178  0.19427461  1  0  0.313541  0  3.764086  0  0  0.286982  0  4.033089  0  0  0.299722  0  4.050403  0  1.006763  0  0.213443  0.278543  0  4.021218  0
C  C56  1  0.25061147  0.70524110  0.51117749  1  0  0.313878  0  3.767682  0  0  0.286426  0  4.038151  0  0  0.299206  0  4.055435  0  1.022863  0  0.212966  0.277981  0  4.026252  0
C  C57  1  0.45460120  0.19385839  0.70556752  1  0  0.313861  0  3.763905  0  0  0.287126  0  4.033591  0  0  0.299795  0  4.050911  0  0.978181  0  0.212822  0.278747  0  4.021632  0
C  C58  1  0.26028045  0.51113818  0.80572541  1  0  0.313729  0  3.764051  0  0  0.287159  0  4.033056  0  0  0.299892  0  4.050379  0  1.006981  0  0.213511  0.27872  0  4.021185  0
C  C59  1  0.74938911  0.29475791  0.48882175  1  0  0.313847  0  3.767732  0  0  0.286452  0  4.038132  0  0  0.299232  0  4.055418  0  1.023124  0  0.213032  0.278008  0  4.026233  0
N  N60  1  0.64198074  0.91198524  0.52997065  1  0  -0.387178  0  3.168055  0  0  -0.321388  0  3.417223  0  0  -0.337501  0  3.427131  0  -1.036359  0  -0.473807  -0.310183  0  3.410336  0
N  N61  1  0.73017130  0.61782434  0.08808807  1  0  -0.387302  0  3.170044  0  0  -0.321488  0  3.419069  0  0  -0.337575  0  3.429078  0  -1.038509  0  -0.474359  -0.310254  0  3.412118  0
N  N62  1  0.11231871  0.47078735  0.38275456  1  0  -0.387484  0  3.170875  0  0  -0.321059  0  3.419165  0  0  -0.33712  0  3.429047  0  -1.049641  0  -0.474158  -0.309893  0  3.412323  0
N  N63  1  0.35801808  0.08801568  0.47002959  1  0  -0.387177  0  3.168113  0  0  -0.32145  0  3.417249  0  0  -0.337556  0  3.427149  0  -1.036569  0  -0.473824  -0.310252  0  3.410369  0
N  N64  1  0.26982885  0.38217562  0.91191219  1  0  -0.387298  0  3.170073  0  0  -0.321467  0  3.419081  0  0  -0.337554  0  3.429089  0  -1.038514  0  -0.474354  -0.310237  0  3.412134  0
N  N65  1  0.88768144  0.52921261  0.61724491  1  0  -0.387474  0  3.170868  0  0  -0.321061  0  3.419166  0  0  -0.337123  0  3.429048  0  -1.049637  0  -0.474156  -0.309896  0  3.412327  0
N  N66  1  0.82201678  0.71930748  0.52093571  1  0  -0.333214  0  3.125097  0  0  -0.271357  0  3.41543  0  0  -0.288971  0  3.429745  0  -0.72996  0  -0.236748  -0.259435  0  3.405523  0
N  N67  1  0.10293701  0.80166642  0.28064617  1  0  -0.331585  0  3.126805  0  0  -0.269659  0  3.416571  0  0  -0.28733  0  3.430991  0  -0.739719  0  -0.236156  -0.257677  0  3.406551  0
N  N68  1  0.30186534  0.47963066  0.19842657  1  0  -0.331066  0  3.130883  0  0  -0.269043  0  3.420653  0  0  -0.286755  0  3.43506  0  -0.730281  0  -0.236649  -0.257053  0  3.410695  0
N  N69  1  0.17798246  0.28069248  0.47906351  1  0  -0.333234  0  3.125158  0  0  -0.271376  0  3.41549  0  0  -0.28899  0  3.429808  0  -0.729818  0  -0.236758  -0.259453  0  3.405584  0
N  N70  1  0.89706452  0.19833449  0.71935482  1  0  -0.33156  0  3.126823  0  0  -0.269628  0  3.416585  0  0  -0.287298  0  3.431002  0  -0.739796  0  -0.236149  -0.257646  0  3.406564  0
N  N71  1  0.69813433  0.52036835  0.80157243  1  0  -0.331094  0  3.130837  0  0  -0.26907  0  3.420611  0  0  -0.286782  0  3.435019  0  -0.730264  0  -0.236665  -0.25708  0  3.410653  0
N  N72  1  0.93394657  0.74370921  0.50372759  1  0  -0.063978  0  2.952438  0  0  -0.067241  0  3.242811  0  0  -0.06391  0  3.255657  0  -0.119047  0  -0.093398  -0.0691  0  3.233857  0
N  N73  1  0.19047258  0.76030308  0.25630965  1  0  -0.065556  0  2.955734  0  0  -0.068948  0  3.246061  0  0  -0.065611  0  3.258959  0  -0.106508  0  -0.09411  -0.070815  0  3.23708  0
N  N74  1  0.43063663  0.49651300  0.23972155  1  0  -0.06349  0  2.951157  0  0  -0.066883  0  3.241738  0  0  -0.063572  0  3.254591  0  -0.106767  0  -0.092698  -0.068741  0  3.232794  0
N  N75  1  0.06605358  0.25629075  0.49627188  1  0  -0.06398  0  2.952491  0  0  -0.067246  0  3.242866  0  0  -0.063915  0  3.255714  0  -0.119203  0  -0.0934  -0.069105  0  3.233911  0
N  N76  1  0.80952757  0.23969688  0.74369061  1  0  -0.065623  0  2.955685  0  0  -0.069022  0  3.246013  0  0  -0.065685  0  3.258911  0  -0.10649  0  -0.094168  -0.070887  0  3.237032  0
N  N77  1  0.56936309  0.50348792  0.76027894  1  0  -0.063467  0  2.95111  0  0  -0.066857  0  3.241684  0  0  -0.063545  0  3.254538  0  -0.106704  0  -0.092687  -0.068715  0  3.232741  0
N  N78  1  0.98254054  0.85996082  0.52080365  1  0  -0.102059  0  3.187253  0  0  -0.047723  0  3.489404  0  0  -0.055398  0  3.502904  0  -0.197476  0  -0.111669  -0.04225  0  3.479903  0
N  N79  1  0.12278016  0.66090706  0.13998160  1  0  -0.101204  0  3.188819  0  0  -0.046772  0  3.491016  0  0  -0.054447  0  3.504482  0  -0.193799  0  -0.111956  -0.041299  0  3.481545  0
N  N80  1  0.46166568  0.47882160  0.33893781  1  0  -0.100064  0  3.183198  0  0  -0.046128  0  3.485056  0  0  -0.053631  0  3.498445  0  -0.204198  0  -0.110919  -0.040768  0  3.475634  0
N  N81  1  0.01745871  0.14003914  0.47919636  1  0  -0.102069  0  3.187295  0  0  -0.047734  0  3.489451  0  0  -0.05541  0  3.50295  0  -0.197488  0  -0.111671  -0.042261  0  3.479949  0
N  N82  1  0.87722090  0.33909290  0.86001892  1  0  -0.101127  0  3.188763  0  0  -0.046687  0  3.490946  0  0  -0.054361  0  3.504412  0  -0.193705  0  -0.111917  -0.041214  0  3.481475  0
N  N83  1  0.53833404  0.52117932  0.66106269  1  0  -0.100028  0  3.183152  0  0  -0.046084  0  3.484991  0  0  -0.053587  0  3.498381  0  -0.204273  0  -0.110883  -0.040723  0  3.475569  0
N  N84  1  0.90569796  0.91454902  0.55086498  1  0  -0.320906  0  3.056054  0  0  -0.277429  0  3.335288  0  0  -0.291842  0  3.349973  0  -0.714716  0  -0.236532  -0.267718  0  3.325262  0
N  N85  1  0.99133144  0.63600480  0.08523723  1  0  -0.319412  0  3.055227  0  0  -0.276236  0  3.33463  0  0  -0.290552  0  3.349262  0  -0.743067  0  -0.235552  -0.266582  0  3.324636  0
N  N86  1  0.35477860  0.44865328  0.36371625  1  0  -0.320774  0  3.062341  0  0  -0.277117  0  3.341771  0  0  -0.291671  0  3.356422  0  -0.705456  0  -0.236986  -0.267306  0  3.331766  0
N  N87  1  0.09430129  0.08545095  0.44913424  1  0  -0.320876  0  3.055992  0  0  -0.277395  0  3.335215  0  0  -0.291808  0  3.3499  0  -0.714689  0  -0.236498  -0.267683  0  3.325188  0
N  N88  1  0.00866913  0.36399420  0.91476281  1  0  -0.319429  0  3.055212  0  0  -0.276249  0  3.33461  0  0  -0.290567  0  3.349244  0  -0.743063  0  -0.235534  -0.266596  0  3.324617  0
N  N89  1  0.64522016  0.55134572  0.63628249  1  0  -0.320817  0  3.06228  0  0  -0.277163  0  3.341716  0  0  -0.291715  0  3.356366  0  -0.705457  0  -0.237022  -0.267353  0  3.331712  0
N  N90  1  0.66386724  0.87757962  0.30374763  1  0  -0.355724  0  3.188281  0  0  -0.288985  0  3.477867  0  0  -0.308686  0  3.49353  0  -0.772527  0  -0.255361  -0.275514  0  3.466866  0
N  N91  1  0.78695463  0.42738941  0.12248780  1  0  -0.354343  0  3.194744  0  0  -0.287533  0  3.484378  0  0  -0.307241  0  3.500062  0  -0.773691  0  -0.256577  -0.274064  0  3.473364  0
N  N92  1  0.35943129  0.69519614  0.57236812  1  0  -0.356209  0  3.187783  0  0  -0.289956  0  3.477726  0  0  -0.309549  0  3.493331  0  -0.772978  0  -0.256028  -0.27656  0  3.466747  0
N  N93  1  0.33613344  0.12242320  0.69625223  1  0  -0.355648  0  3.188251  0  0  -0.288931  0  3.477809  0  0  -0.30863  0  3.493475  0  -0.772512  0  -0.255386  -0.275459  0  3.466809  0
N  N94  1  0.21304552  0.57261055  0.87751247  1  0  -0.35442  0  3.194845  0  0  -0.287605  0  3.484485  0  0  -0.307311  0  3.500171  0  -0.773706  0  -0.25659  -0.274135  0  3.473471  0
N  N95  1  0.64056976  0.30480382  0.42763160  1  0  -0.356191  0  3.187765  0  0  -0.289962  0  3.477702  0  0  -0.309556  0  3.493308  0  -0.772971  0  -0.256068  -0.276568  0  3.466724  0
N  N96  1  0.64856065  0.83385023  0.18293701  1  0  -0.076803  0  2.958472  0  0  -0.076687  0  3.259836  0  0  -0.074106  0  3.268818  0  -0.134503  0  -0.105135  -0.078481  0  3.253615  0
N  N97  1  0.81504096  0.35045987  0.16597939  1  0  -0.076803  0  2.961908  0  0  -0.076728  0  3.263188  0  0  -0.074147  0  3.272177  0  -0.095053  0  -0.103872  -0.078523  0  3.25697  0
N  N98  1  0.46431086  0.81541472  0.64961073  1  0  -0.077569  0  2.959582  0  0  -0.077172  0  3.261232  0  0  -0.074662  0  3.270206  0  -0.099135  0  -0.104473  -0.078925  0  3.255016  0
N  N99  1  0.35143950  0.16614973  0.81706247  1  0  -0.076886  0  2.958515  0  0  -0.076767  0  3.259879  0  0  -0.074187  0  3.268864  0  -0.134457  0  -0.105129  -0.078561  0  3.253659  0
N  N100  1  0.18495919  0.64954009  0.83402087  1  0  -0.076843  0  2.961957  0  0  -0.076774  0  3.263244  0  0  -0.074194  0  3.272232  0  -0.095051  0  -0.103897  -0.07857  0  3.257026  0
N  N101  1  0.53568976  0.18458619  0.35039001  1  0  -0.077583  0  2.959632  0  0  -0.077187  0  3.261293  0  0  -0.074678  0  3.270271  0  -0.099128  0  -0.104476  -0.078939  0  3.255077  0
N  N102  1  0.52554334  0.73855109  0.10344134  1  0  -0.087609  0  2.944273  0  0  -0.084876  0  3.24265  0  0  -0.083305  0  3.253218  0  -0.104271  0  -0.10708  -0.085778  0  3.235599  0
N  N103  1  0.78702677  0.36574414  0.26158829  1  0  -0.085114  0  2.944814  0  0  -0.082527  0  3.242951  0  0  -0.080922  0  3.253553  0  -0.14076  0  -0.106236  -0.08346  0  3.235891  0
N  N104  1  0.42079241  0.89525287  0.63473320  1  0  -0.087012  0  2.941915  0  0  -0.084433  0  3.240202  0  0  -0.082817  0  3.250788  0  -0.13452  0  -0.107363  -0.085379  0  3.233155  0
N  N105  1  0.47445724  0.26144791  0.89655869  1  0  -0.087569  0  2.944291  0  0  -0.084838  0  3.242671  0  0  -0.083269  0  3.253243  0  -0.104322  0  -0.107075  -0.085741  0  3.23562  0
N  N106  1  0.21297338  0.63425582  0.73841198  1  0  -0.085064  0  2.944842  0  0  -0.082472  0  3.242976  0  0  -0.080867  0  3.253577  0  -0.14075  0  -0.106224  -0.083405  0  3.235915  0
N  N107  1  0.57920684  0.10474709  0.36526681  1  0  -0.087001  0  2.941897  0  0  -0.084425  0  3.240199  0  0  -0.082811  0  3.250786  0  -0.134526  0  -0.107354  -0.08537  0  3.233151  0
N  N108  1  0.45774586  0.71910785  0.17115345  1  0  -0.350436  0  3.146135  0  0  -0.282096  0  3.434063  0  0  -0.302334  0  3.450132  0  -0.748422  0  -0.251294  -0.26858  0  3.423096  0
N  N109  1  0.73879902  0.45240916  0.28139858  1  0  -0.350265  0  3.151701  0  0  -0.281473  0  3.439791  0  0  -0.301833  0  3.455917  0  -0.76701  0  -0.252636  -0.267877  0  3.428779  0
N  N110  1  0.28584138  0.82835683  0.54806857  1  0  -0.350879  0  3.145464  0  0  -0.28211  0  3.433845  0  0  -0.302451  0  3.449884  0  -0.771869  0  -0.251538  -0.268532  0  3.422885  0
N  N111  1  0.54225343  0.28089402  0.82884727  1  0  -0.35047  0  3.146202  0  0  -0.28215  0  3.43411  0  0  -0.302388  0  3.450181  0  -0.748448  0  -0.251338  -0.268633  0  3.423143  0
N  N112  1  0.26120113  0.54759080  0.71860169  1  0  -0.350336  0  3.151736  0  0  -0.281542  0  3.439836  0  0  -0.301898  0  3.455962  0  -0.76701  0  -0.25265  -0.267945  0  3.428825  0
N  N113  1  0.71415829  0.17164218  0.45193042  1  0  -0.350834  0  3.14546  0  0  -0.282098  0  3.433842  0  0  -0.302437  0  3.449877  0  -0.771869  0  -0.251548  -0.26852  0  3.422881  0
