# generated using pymatgen
data_Cu3H16C22(N3O7)2
_symmetry_space_group_name_H-M   'P 1'
_cell_length_a   7.56989419
_cell_length_b   10.22195253
_cell_length_c   9.70543198
_cell_angle_alpha   114.28509414
_cell_angle_beta   90.90982508
_cell_angle_gamma   111.67623424
_symmetry_Int_Tables_number   1
_chemical_formula_structural   Cu3H16C22(N3O7)2
_chemical_formula_sum   'Cu3 H16 C22 N6 O14'
_cell_volume   623.53010622
_cell_formula_units_Z   1
loop_
 _symmetry_equiv_pos_site_id
 _symmetry_equiv_pos_as_xyz
  1  'x, y, z'
loop_
 _atom_site_type_symbol
 _atom_site_label
 _atom_site_symmetry_multiplicity
 _atom_site_fract_x
 _atom_site_fract_y
 _atom_site_fract_z
 _atom_site_occupancy
 _atom_site_pbe_cm5_charge
 _atom_site_pbe_ddec_charge
 _atom_site_pbe_ddec_spin_density
 _atom_site_pbe_ddec_sum_bond_order
 _atom_site_pbe_magmom
Cu  Cu0  1  0.99860320  0.00050340  0.49800855  1  0.675621  0.952998  0.716311  2.187983  0.567
Cu  Cu1  1  0.24278554  0.06010879  0.81365922  1  0.723853  0.874308  -0.71841  2.273579  -0.556
Cu  Cu2  1  0.75963495  0.94096246  0.18750532  1  0.717675  0.862534  0.748  2.259058  0.589
H  H3  1  0.57076391  0.83005117  0.60891352  1  0.116249  0.119734  -0.000216  1.031329  0.0
H  H4  1  0.42654522  0.16918839  0.39174923  1  0.116464  0.12075  0.000153  1.031686  0.0
H  H5  1  0.55881057  0.41881389  0.22019794  1  0.119064  0.128755  -0.000198  1.01717  0.0
H  H6  1  0.43982302  0.58082727  0.78109364  1  0.119343  0.129752  0.000163  1.018514  0.0
H  H7  1  0.13662636  0.60283103  0.19608158  1  0.116561  0.124572  0.000158  1.005707  0.0
H  H8  1  0.86381876  0.39802184  0.80292754  1  0.11673  0.125046  0.00018  1.005504  0.0
H  H9  1  0.23779980  0.72597112  0.74605272  1  0.116015  0.119518  -0.000333  1.036144  -0.001
H  H10  1  0.76447119  0.27456587  0.25375812  1  0.11561  0.119839  0.000315  1.035671  0.001
H  H11  1  0.21735697  0.63495686  0.98010222  1  0.116439  0.116505  -0.000355  1.065839  0.0
H  H12  1  0.78364962  0.36486339  0.01930673  1  0.116748  0.117004  0.000361  1.064872  0.0
H  H13  1  0.23702300  0.09690555  0.15578260  1  0.131981  0.104518  -0.000176  1.041064  -0.001
H  H14  1  0.76576382  0.90340699  0.84444047  1  0.131771  0.10489  0.000165  1.043838  0.001
H  H15  1  0.21143190  0.86999837  0.21790569  1  0.314617  0.277825  -0.000113  0.978543  0.0
H  H16  1  0.79031284  0.12981814  0.78193259  1  0.315404  0.278826  0.000492  0.973475  0.0
H  H17  1  0.14939423  0.23119153  0.75634293  1  0.271474  0.361429  -0.000462  0.994482  0.001
H  H18  1  0.84502566  0.76618064  0.24276067  1  0.270976  0.361106  0.001687  0.995612  0.001
C  C19  1  0.26831125  0.85013903  0.49444102  1  0.227103  0.601806  -0.000651  4.117896  -0.001
C  C20  1  0.73337349  0.15239144  0.50461737  1  0.226627  0.59795  0.003752  4.12623  0.0
C  C21  1  0.34572361  0.72918380  0.41107840  1  -0.008646  -0.020407  -0.000821  3.930385  -0.001
C  C22  1  0.65317771  0.27092333  0.58869220  1  -0.007296  -0.016535  0.011893  3.933095  0.013
C  C23  1  0.50623285  0.73735293  0.49232159  1  -0.064009  -0.103093  0.001388  3.916539  0.002
C  C24  1  0.49137099  0.26183896  0.50829157  1  -0.063765  -0.105369  0.001339  3.92057  0.001
C  C25  1  0.58188415  0.62695253  0.42137738  1  0.074023  0.061469  0.000935  3.969747  0.001
C  C26  1  0.41545931  0.37192180  0.57990313  1  0.073727  0.060357  -7.8e-05  3.972033  0.0
C  C27  1  0.49825356  0.50475765  0.27352049  1  -0.063129  -0.106387  0.000972  3.885688  0.001
C  C28  1  0.49996652  0.49462876  0.72753255  1  -0.063153  -0.109603  -8.6e-05  3.88943  0.0
C  C29  1  0.33848470  0.49762419  0.19184821  1  -0.004749  -0.008409  -0.006727  3.913252  -0.007
C  C30  1  0.66090058  0.50232978  0.80838999  1  -0.004047  -0.007223  0.007552  3.915913  0.008
C  C31  1  0.26327097  0.61071127  0.25963645  1  -0.053191  -0.074351  -0.001646  3.846074  -0.002
C  C32  1  0.73625672  0.38954502  0.73995880  1  -0.053303  -0.075947  0.002541  3.849306  0.003
C  C33  1  0.25558616  0.36924032  0.02896409  1  0.216219  0.580798  -0.001527  4.169731  0.001
C  C34  1  0.74640857  0.63155712  0.97066433  1  0.216835  0.582457  0.002272  4.17353  0.0
C  C35  1  0.23772323  0.79027386  0.86659387  1  -0.008781  -0.032858  -0.001624  3.966875  -0.002
C  C36  1  0.76440700  0.21005922  0.13323487  1  -0.008755  -0.032444  0.001617  3.966929  0.002
C  C37  1  0.22835308  0.74466027  0.98191900  1  -0.002954  -0.054875  -0.00234  3.932962  -0.002
C  C38  1  0.77328979  0.25539020  0.01774006  1  -0.003337  -0.054973  0.002549  3.934202  0.003
C  C39  1  0.23699136  0.98536349  0.07625136  1  0.137512  0.144122  0.000244  3.921829  0.0
C  C40  1  0.76554458  0.01489650  0.92381000  1  0.13787  0.143455  -4e-06  3.921833  0.0
N  N41  1  0.76225704  0.64647327  0.50112050  1  0.05361  0.518713  0.000177  4.184338  0.0
N  N42  1  0.23496135  0.35190833  0.50011869  1  0.052793  0.518581  -0.001148  4.18415  -0.001
N  N43  1  0.24377656  0.94068932  0.92709871  1  -0.388127  -0.31626  -0.042652  3.655306  -0.053
N  N44  1  0.75894242  0.05982427  0.07303967  1  -0.387981  -0.314064  0.043293  3.650684  0.055
N  N45  1  0.22837440  0.86936393  0.11275768  1  -0.380784  -0.20192  -0.001468  3.702272  -0.002
N  N46  1  0.77355574  0.13062697  0.88706618  1  -0.380462  -0.201705  0.002125  3.702945  0.003
O  O47  1  0.17788808  0.14077188  0.68692028  1  -0.611319  -0.86117  -0.004057  2.384771  -0.005
O  O48  1  0.81155061  0.85323269  0.31321852  1  -0.609602  -0.86043  0.119756  2.36174  0.164
O  O49  1  0.31769227  0.91597618  0.63998455  1  -0.307754  -0.523492  -0.05063  2.429558  -0.07
O  O50  1  0.68536932  0.08758800  0.35920802  1  -0.305062  -0.517889  0.051912  2.434273  0.074
O  O51  1  0.16276686  0.87727336  0.41392842  1  -0.311867  -0.544468  0.052907  2.355198  0.074
O  O52  1  0.84133606  0.12726204  0.58519817  1  -0.30979  -0.537634  0.053173  2.364686  0.076
O  O53  1  0.27820720  0.24327442  0.00666168  1  -0.323328  -0.552236  -0.06695  2.395811  -0.094
O  O54  1  0.72735656  0.75863779  0.99271040  1  -0.324731  -0.553908  0.070845  2.394755  0.101
O  O55  1  0.17831818  0.39264843  0.93099719  1  -0.298752  -0.513909  0.00281  2.17629  0.004
O  O56  1  0.82284557  0.60756917  0.06864232  1  -0.300304  -0.515624  0.001666  2.173544  0.002
O  O57  1  0.82145908  0.54146047  0.44433909  1  -0.111934  -0.305136  -0.000208  1.947063  0.0
O  O58  1  0.17505198  0.45647272  0.55650521  1  -0.109893  -0.302024  -0.000885  1.947938  -0.001
O  O59  1  0.85093612  0.77153668  0.62122113  1  -0.133036  -0.389141  0.00034  2.058329  0.001
O  O60  1  0.14674856  0.22651610  0.37996213  1  -0.135074  -0.396131  -0.00028  2.067223  0.001
