# generated using pymatgen
data_InH7(C4O3)2
_symmetry_space_group_name_H-M   'P 1'
_cell_length_a   7.09308596
_cell_length_b   7.08943828
_cell_length_c   21.12184526
_cell_angle_alpha   94.94119636
_cell_angle_beta   94.92606326
_cell_angle_gamma   119.18559299
_symmetry_Int_Tables_number   1
_chemical_formula_structural   InH7(C4O3)2
_chemical_formula_sum   'In4 H28 C32 O24'
_cell_volume   913.80545203
_cell_formula_units_Z   4
loop_
 _symmetry_equiv_pos_site_id
 _symmetry_equiv_pos_as_xyz
  1  'x, y, z'
loop_
 _atom_site_type_symbol
 _atom_site_label
 _atom_site_symmetry_multiplicity
 _atom_site_fract_x
 _atom_site_fract_y
 _atom_site_fract_z
 _atom_site_occupancy
 _atom_site_hle17_bader_spin_density
 _atom_site_hle17_ddec_charge
 _atom_site_hle17_ddec_spin_density
 _atom_site_hle17_ddec_sum_bond_order
 _atom_site_hle17_magmom
 _atom_site_hse06_10hf_bader_spin_density
 _atom_site_hse06_10hf_ddec_charge
 _atom_site_hse06_10hf_ddec_spin_density
 _atom_site_hse06_10hf_ddec_sum_bond_order
 _atom_site_hse06_10hf_magmom
 _atom_site_hse06_bader_spin_density
 _atom_site_hse06_ddec_charge
 _atom_site_hse06_ddec_spin_density
 _atom_site_hse06_ddec_sum_bond_order
 _atom_site_hse06_magmom
 _atom_site_pbe_bader_spin_density
 _atom_site_pbe_cm5_charge
 _atom_site_pbe_ddec_charge
 _atom_site_pbe_ddec_spin_density
 _atom_site_pbe_ddec_sum_bond_order
 _atom_site_pbe_magmom
In  In0  1  0.40324991  0.37467698  0.51583090  1  0  1.806335  0  2.197448  0  0  1.626787  0  2.683345  0  0  1.691327  0  2.621147  0  0  0.773506  1.581119  0  2.726112  0
In  In1  1  0.85874627  0.88766485  0.48420499  1  0  1.806632  0  2.198525  0  0  1.62697  0  2.684725  0  0  1.691528  0  2.622481  0  0  0.773477  1.581294  0  2.727509  0
In  In2  1  0.13743225  0.60809263  0.98421173  1  0  1.806051  0  2.199614  0  0  1.6263  0  2.685847  0  0  1.690841  0  2.623635  0  0  0.773351  1.580647  0  2.728616  0
In  In3  1  0.62425545  0.15300355  0.01581579  1  0  1.806675  0  2.19793  0  0  1.626929  0  2.683996  0  0  1.691471  0  2.621809  0  0  0.773583  1.581299  0  2.726754  0
H  H4  1  0.01066245  0.27877069  0.55389378  1  0  0.441511  0  0.849446  0  0  0.409968  0  0.913818  0  0  0.42114  0  0.897675  0  0  0.302587  0.401956  0  0.925382  0
H  H5  1  0.72450361  0.45678595  0.44615247  1  0  0.441272  0  0.849712  0  0  0.409478  0  0.914647  0  0  0.420667  0  0.898454  0  0  0.30234  0.401483  0  0.926205  0
H  H6  1  0.70702605  0.47428852  0.94609136  1  0  0.441727  0  0.849049  0  0  0.410073  0  0.913665  0  0  0.421244  0  0.897506  0  0  0.302843  0.402072  0  0.925238  0
H  H7  1  0.52813919  0.76021873  0.05390572  1  0  0.440691  0  0.850607  0  0  0.409245  0  0.914823  0  0  0.420409  0  0.898691  0  0  0.302311  0.401266  0  0.926341  0
H  H8  1  0.33956053  0.65193371  0.43261403  1  0  0.455645  0  0.819451  0  0  0.42264  0  0.886628  0  0  0.433481  0  0.870819  0  0  0.316129  0.4149  0  0.897918  0
H  H9  1  0.21894317  0.90699161  0.56735631  1  0  0.455521  0  0.819241  0  0  0.422976  0  0.885938  0  0  0.433769  0  0.870194  0  0  0.316458  0.415259  0  0.89721  0
H  H10  1  0.15665764  0.96850122  0.06744889  1  0  0.455585  0  0.819921  0  0  0.422966  0  0.886141  0  0  0.433751  0  0.870401  0  0  0.31651  0.415273  0  0.897366  0
H  H11  1  0.90107613  0.08893127  0.93254828  1  0  0.455279  0  0.818723  0  0  0.422735  0  0.886114  0  0  0.433519  0  0.870369  0  0  0.31643  0.415036  0  0.89736  0
H  H12  1  0.09535160  0.44308507  0.43625754  1  0  0.456007  0  0.830002  0  0  0.422125  0  0.897189  0  0  0.433201  0  0.880781  0  0  0.309728  0.414267  0  0.908822  0
H  H13  1  0.00638012  0.65907601  0.56372951  1  0  0.456328  0  0.829474  0  0  0.422567  0  0.896637  0  0  0.433644  0  0.880219  0  0  0.30991  0.414704  0  0.908284  0
H  H14  1  0.90878318  0.75611059  0.06376514  1  0  0.456139  0  0.829506  0  0  0.422228  0  0.896883  0  0  0.433294  0  0.880483  0  0  0.309777  0.414372  0  0.908517  0
H  H15  1  0.69227205  0.84465881  0.93617200  1  0  0.45575  0  0.830365  0  0  0.421863  0  0.897591  0  0  0.432946  0  0.881179  0  0  0.309804  0.413996  0  0.909231  0
H  H16  1  0.73325569  0.04406731  0.27198288  1  0  0.094465  0  0.954739  0  0  0.106499  0  1.013971  0  0  0.109044  0  1.013497  0  0  0.103942  0.104654  0  1.014462  0
H  H17  1  0.77159997  0.46162336  0.72808337  1  0  0.09463  0  0.955344  0  0  0.106767  0  1.01432  0  0  0.109241  0  1.013959  0  0  0.104193  0.104944  0  1.01479  0
H  H18  1  0.71102882  0.52224422  0.22824339  1  0  0.094405  0  0.955077  0  0  0.107003  0  1.013574  0  0  0.109505  0  1.013153  0  0  0.10419  0.105186  0  1.014031  0
H  H19  1  0.29351082  0.48225418  0.77161850  1  0  0.094624  0  0.95569  0  0  0.106625  0  1.014787  0  0  0.109125  0  1.014359  0  0  0.104237  0.104804  0  1.015246  0
H  H20  1  0.48149847  0.93085910  0.16922464  1  0  0.103546  0  0.938687  0  0  0.112063  0  1.001095  0  0  0.115826  0  0.99795  0  0  0.107195  0.109277  0  1.003483  0
H  H21  1  0.76096723  0.31243416  0.83081172  1  0  0.104387  0  0.938448  0  0  0.112483  0  1.001103  0  0  0.116303  0  0.997909  0  0  0.107408  0.109671  0  1.003537  0
H  H22  1  0.56164253  0.51212324  0.33091852  1  0  0.104547  0  0.937101  0  0  0.112716  0  0.999825  0  0  0.116588  0  0.99655  0  0  0.107671  0.109854  0  1.002303  0
H  H23  1  0.18010058  0.22978139  0.66899675  1  0  0.103413  0  0.938903  0  0  0.112152  0  1.000971  0  0  0.115898  0  0.99785  0  0  0.107312  0.109375  0  1.003373  0
H  H24  1  0.09145328  0.82848543  0.17113174  1  0  0.087058  0  0.964523  0  0  0.097582  0  1.026469  0  0  0.100681  0  1.025045  0  0  0.099497  0.095297  0  1.027686  0
H  H25  1  0.65684753  0.92029942  0.82893455  1  0  0.086871  0  0.963778  0  0  0.09747  0  1.025822  0  0  0.100518  0  1.024438  0  0  0.099467  0.095199  0  1.027049  0
H  H26  1  0.16957595  0.40764261  0.32888715  1  0  0.08716  0  0.963714  0  0  0.097617  0  1.025906  0  0  0.100719  0  1.024467  0  0  0.099642  0.095309  0  1.027156  0
H  H27  1  0.07794682  0.83955355  0.67110413  1  0  0.087179  0  0.963315  0  0  0.097434  0  1.025689  0  0  0.100539  0  1.024261  0  0  0.099354  0.095145  0  1.026901  0
H  H28  1  0.96206481  0.85203905  0.27598490  1  0  0.096026  0  0.960769  0  0  0.105671  0  1.024258  0  0  0.108771  0  1.022183  0  0  0.104695  0.103427  0  1.025784  0
H  H29  1  0.57585082  0.68599850  0.72406230  1  0  0.096456  0  0.960647  0  0  0.105858  0  1.024324  0  0  0.108882  0  1.022323  0  0  0.104567  0.103674  0  1.025796  0
H  H30  1  0.93564400  0.32590269  0.22394875  1  0  0.096276  0  0.960535  0  0  0.105953  0  1.023944  0  0  0.108978  0  1.021954  0  0  0.104531  0.103769  0  1.025391  0
H  H31  1  0.10182332  0.71098960  0.77607995  1  0  0.095813  0  0.961384  0  0  0.105296  0  1.025105  0  0  0.108332  0  1.023107  0  0  0.104407  0.103109  0  1.026558  0
C  C32  1  0.27236404  0.95925778  0.33208263  1  0  -0.101387  0  3.762311  0  0  -0.085818  0  3.994338  0  0  -0.09541  0  4.017861  0  0  -0.019286  -0.079604  0  3.97861  0
C  C33  1  0.62712170  0.94045257  0.66799542  1  0  -0.100016  0  3.761456  0  0  -0.084576  0  3.992982  0  0  -0.094214  0  4.016592  0  0  -0.019506  -0.078301  0  3.977162  0
C  C34  1  0.19008523  0.37677203  0.16794167  1  0  -0.100759  0  3.761919  0  0  -0.085424  0  3.99349  0  0  -0.09507  0  4.0171  0  0  -0.019619  -0.079136  0  3.977686  0
C  C35  1  0.20898095  0.02168899  0.83201000  1  0  -0.102039  0  3.762298  0  0  -0.086053  0  3.993536  0  0  -0.095728  0  4.017168  0  0  -0.019196  -0.07976  0  3.977732  0
C  C36  1  0.49181346  0.01632020  0.33131694  1  0  -0.044338  0  3.708865  0  0  -0.032056  0  3.943437  0  0  -0.034484  0  3.963524  0  0  -0.002107  -0.03038  0  3.929958  0
C  C37  1  0.68488642  0.16077257  0.66876536  1  0  -0.045441  0  3.708353  0  0  -0.032991  0  3.942891  0  0  -0.035449  0  3.963007  0  0  -0.002315  -0.031317  0  3.929369  0
C  C38  1  0.41035826  0.43477687  0.16879817  1  0  -0.04565  0  3.71002  0  0  -0.032988  0  3.944988  0  0  -0.035471  0  3.965128  0  0  -0.002291  -0.031334  0  3.931532  0
C  C39  1  0.26610175  0.24124642  0.83111585  1  0  -0.045672  0  3.708835  0  0  -0.032631  0  3.942741  0  0  -0.035053  0  3.962857  0  0  -0.002475  -0.031001  0  3.929299  0
C  C40  1  0.56432778  0.00423674  0.27238953  1  0  -0.090859  0  3.727563  0  0  -0.111937  0  3.976505  0  0  -0.115954  0  3.998634  0  0  -0.083932  -0.109334  0  3.961559  0
C  C41  1  0.73152958  0.29227487  0.72766814  1  0  -0.090047  0  3.729356  0  0  -0.111287  0  3.978335  0  0  -0.115236  0  4.000434  0  0  -0.083833  -0.108703  0  3.963403  0
C  C42  1  0.54167204  0.48193568  0.22775593  1  0  -0.090339  0  3.728096  0  0  -0.111923  0  3.977066  0  0  -0.115878  0  3.999196  0  0  -0.08375  -0.109338  0  3.962126  0
C  C43  1  0.25376093  0.31335859  0.77214086  1  0  -0.090614  0  3.728309  0  0  -0.111917  0  3.97731  0  0  -0.115882  0  3.999377  0  0  -0.083971  -0.109318  0  3.962407  0
C  C44  1  0.42209634  0.93821459  0.21478561  1  0  -0.025637  0  3.712156  0  0  -0.044739  0  3.971258  0  0  -0.043594  0  3.990679  0  0  -0.073075  -0.045167  0  3.957821  0
C  C45  1  0.72300932  0.20751174  0.78525904  1  0  -0.028868  0  3.714709  0  0  -0.047561  0  3.973868  0  0  -0.046501  0  3.993264  0  0  -0.07435  -0.04796  0  3.960476  0
C  C46  1  0.45681093  0.47370604  0.28531843  1  0  -0.027485  0  3.712552  0  0  -0.046289  0  3.971799  0  0  -0.045223  0  3.99117  0  0  -0.07415  -0.046662  0  3.958383  0
C  C47  1  0.18760919  0.17069388  0.71460894  1  0  -0.025851  0  3.711558  0  0  -0.04505  0  3.970534  0  0  -0.043925  0  3.990027  0  0  -0.073486  -0.045478  0  3.957048  0
C  C48  1  0.20412543  0.88135226  0.21576079  1  0  -0.07051  0  3.75871  0  0  -0.085958  0  4.015405  0  0  -0.090048  0  4.037561  0  0  -0.089523  -0.083262  0  4.00029  0
C  C49  1  0.66524306  0.98844779  0.78429397  1  0  -0.06798  0  3.757121  0  0  -0.083399  0  4.013451  0  0  -0.087415  0  4.035628  0  0  -0.088558  -0.080725  0  3.998308  0
C  C50  1  0.23780837  0.41575835  0.28427361  1  0  -0.0698  0  3.757574  0  0  -0.085124  0  4.014018  0  0  -0.089223  0  4.036238  0  0  -0.089399  -0.082404  0  3.998858  0
C  C51  1  0.13082742  0.95262046  0.71570047  1  0  -0.070385  0  3.755164  0  0  -0.08553  0  4.011818  0  0  -0.089632  0  4.033961  0  0  -0.089072  -0.082832  0  3.996732  0
C  C52  1  0.13018640  0.89188496  0.27410436  1  0  -0.060414  0  3.742115  0  0  -0.085031  0  3.991829  0  0  -0.083929  0  4.012256  0  0  -0.080155  -0.085517  0  3.977936  0
C  C53  1  0.61759872  0.85611776  0.72595981  1  0  -0.061929  0  3.742297  0  0  -0.086475  0  3.992236  0  0  -0.085284  0  4.012652  0  0  -0.079964  -0.08703  0  3.978314  0
C  C54  1  0.10566958  0.36762052  0.22588330  1  0  -0.06087  0  3.741131  0  0  -0.085628  0  3.990945  0  0  -0.084447  0  4.01137  0  0  -0.079584  -0.086169  0  3.977002  0
C  C55  1  0.14151210  0.87908822  0.77410480  1  0  -0.059822  0  3.742371  0  0  -0.084515  0  3.991844  0  0  -0.083346  0  4.01231  0  0  -0.079948  -0.085056  0  3.977907  0
C  C56  1  0.19283315  0.98267751  0.39338778  1  0  0.68253  0  3.883096  0  0  0.629699  0  4.176474  0  0  0.666686  0  4.166369  0  0  0.236016  0.604487  0  4.182662  0
C  C57  1  0.58928502  0.79963606  0.60668906  1  0  0.68279  0  3.883762  0  0  0.6309  0  4.175965  0  0  0.667891  0  4.165841  0  0  0.236741  0.605672  0  4.182183  0
C  C58  1  0.04944805  0.33863586  0.10658513  1  0  0.682392  0  3.883678  0  0  0.630797  0  4.17539  0  0  0.66781  0  4.165247  0  0  0.236565  0.605555  0  4.181602  0
C  C59  1  0.23250376  0.94250644  0.89338735  1  0  0.683876  0  3.881519  0  0  0.630759  0  4.175235  0  0  0.667781  0  4.165117  0  0  0.236242  0.605524  0  4.181429  0
C  C60  1  0.65007130  0.07342487  0.39160220  1  0  0.70637  0  3.857585  0  0  0.645563  0  4.169971  0  0  0.682  0  4.157068  0  0  0.235977  0.620639  0  4.178133  0
C  C61  1  0.68154488  0.25865537  0.60844508  1  0  0.705717  0  3.857389  0  0  0.645063  0  4.169731  0  0  0.681519  0  4.156877  0  0  0.234952  0.620133  0  4.177883  0
C  C62  1  0.50839393  0.43137531  0.10853064  1  0  0.708093  0  3.855826  0  0  0.646097  0  4.170108  0  0  0.68258  0  4.157182  0  0  0.235196  0.621188  0  4.178262  0
C  C63  1  0.32331993  0.39983669  0.89138385  1  0  0.708506  0  3.854593  0  0  0.646592  0  4.168513  0  0  0.68302  0  4.155664  0  0  0.23586  0.621683  0  4.176675  0
O  O64  1  0.33395272  0.10105272  0.44200785  1  0  -0.675526  0  2.111349  0  0  -0.607102  0  2.365083  0  0  -0.635981  0  2.353517  0  0  -0.285852  -0.586875  0  2.372304  0
O  O65  1  0.65948786  0.89230880  0.55812702  1  0  -0.676251  0  2.113234  0  0  -0.608545  0  2.367072  0  0  -0.637391  0  2.355386  0  0  -0.286206  -0.588339  0  2.374377  0
O  O66  1  0.14219049  0.40828109  0.05798772  1  0  -0.675725  0  2.112712  0  0  -0.607874  0  2.365932  0  0  -0.636725  0  2.354244  0  0  -0.285983  -0.587685  0  2.373274  0
O  O67  1  0.35126934  0.08394740  0.94190725  1  0  -0.676391  0  2.112265  0  0  -0.607892  0  2.366026  0  0  -0.636762  0  2.354365  0  0  -0.285968  -0.587703  0  2.373356  0
O  O68  1  0.98642797  0.88276476  0.39409777  1  0  -0.647536  0  2.0205  0  0  -0.583573  0  2.268363  0  0  -0.612325  0  2.256604  0  0  -0.283526  -0.563564  0  2.275812  0
O  O69  1  0.48823269  0.59238349  0.60594412  1  0  -0.647867  0  2.021003  0  0  -0.583936  0  2.268238  0  0  -0.612693  0  2.256422  0  0  -0.283699  -0.563939  0  2.275739  0
O  O70  1  0.84231375  0.23802309  0.10583194  1  0  -0.647805  0  2.02112  0  0  -0.584079  0  2.268435  0  0  -0.61284  0  2.256612  0  0  -0.283823  -0.564067  0  2.275925  0
O  O71  1  0.13223653  0.73601152  0.89418842  1  0  -0.647798  0  2.020195  0  0  -0.583749  0  2.268309  0  0  -0.612478  0  2.256408  0  0  -0.283494  -0.563748  0  2.275824  0
O  O72  1  0.61058365  0.90927986  0.42142756  1  0  -0.68072  0  2.051868  0  0  -0.607939  0  2.303647  0  0  -0.639115  0  2.291337  0  0  -0.287314  -0.586045  0  2.311443  0
O  O73  1  0.48756803  0.18920920  0.57866921  1  0  -0.679262  0  2.051734  0  0  -0.607422  0  2.304487  0  0  -0.638438  0  2.291815  0  0  -0.286676  -0.585585  0  2.31236  0
O  O74  1  0.43920921  0.23729856  0.07878636  1  0  -0.680662  0  2.051003  0  0  -0.607965  0  2.304037  0  0  -0.639013  0  2.291385  0  0  -0.286792  -0.586194  0  2.311975  0
O  O75  1  0.15927367  0.36037912  0.92123184  1  0  -0.68132  0  2.049603  0  0  -0.608699  0  2.302753  0  0  -0.639702  0  2.290031  0  0  -0.287362  -0.586892  0  2.310688  0
O  O76  1  0.81185285  0.26330033  0.40633601  1  0  -0.642123  0  1.943387  0  0  -0.588629  0  2.169345  0  0  -0.612403  0  2.155427  0  0  -0.30332  -0.571807  0  2.178501  0
O  O77  1  0.85650962  0.40568633  0.59362923  1  0  -0.642246  0  1.942337  0  0  -0.58883  0  2.168462  0  0  -0.612605  0  2.154528  0  0  -0.303052  -0.572012  0  2.177608  0
O  O78  1  0.65522835  0.60647537  0.09370795  1  0  -0.642831  0  1.941706  0  0  -0.589046  0  2.168449  0  0  -0.612822  0  2.154498  0  0  -0.302957  -0.572216  0  2.177579  0
O  O79  1  0.51314636  0.56156849  0.90610661  1  0  -0.64252  0  1.942073  0  0  -0.588731  0  2.168563  0  0  -0.612501  0  2.154631  0  0  -0.303427  -0.571885  0  2.1777  0
O  O80  1  0.07840633  0.20041095  0.53404091  1  0  -1.018267  0  1.830122  0  0  -0.93382  0  2.09126  0  0  -0.966253  0  2.058011  0  0  -0.532828  -0.910992  0  2.114091  0
O  O81  1  0.66588071  0.54442255  0.46592221  1  0  -1.017947  0  1.829092  0  0  -0.933015  0  2.089193  0  0  -0.965518  0  2.056215  0  0  -0.532711  -0.910186  0  2.111826  0
O  O82  1  0.79443418  0.41564450  0.96595002  1  0  -1.01811  0  1.829811  0  0  -0.933214  0  2.09011  0  0  -0.965714  0  2.057119  0  0  -0.532821  -0.910383  0  2.112764  0
O  O83  1  0.44981100  0.82807540  0.03411380  1  0  -1.017285  0  1.83025  0  0  -0.932554  0  2.090791  0  0  -0.96507  0  2.057781  0  0  -0.532679  -0.909709  0  2.11343  0
O  O84  1  0.25137297  0.52919835  0.45528143  1  0  -0.872413  0  1.879164  0  0  -0.811997  0  2.082094  0  0  -0.832718  0  2.045733  0  0  -0.548471  -0.797464  0  2.107557  0
O  O85  1  0.07354096  0.79617043  0.54471245  1  0  -0.872569  0  1.879108  0  0  -0.81258  0  2.08147  0  0  -0.833262  0  2.045188  0  0  -0.548605  -0.798027  0  2.106786  0
O  O86  1  0.04580011  0.82317990  0.04473871  1  0  -0.872429  0  1.878748  0  0  -0.812384  0  2.080815  0  0  -0.833038  0  2.044574  0  0  -0.548799  -0.797887  0  2.106188  0
O  O87  1  0.77834682  0.00082233  0.95519959  1  0  -0.871959  0  1.879023  0  0  -0.812033  0  2.082271  0  0  -0.832708  0  2.046006  0  0  -0.548688  -0.797525  0  2.107663  0
