# generated using pymatgen
data_ZnH16C22(NO)4
_symmetry_space_group_name_H-M   'P 1'
_cell_length_a   9.24539090
_cell_length_b   10.36498121
_cell_length_c   13.03099969
_cell_angle_alpha   101.04718918
_cell_angle_beta   101.02253761
_cell_angle_gamma   114.04199343
_symmetry_Int_Tables_number   1
_chemical_formula_structural   ZnH16C22(NO)4
_chemical_formula_sum   'Zn2 H32 C44 N8 O8'
_cell_volume   1067.57711152
_cell_formula_units_Z   2
loop_
 _symmetry_equiv_pos_site_id
 _symmetry_equiv_pos_as_xyz
  1  'x, y, z'
loop_
 _atom_site_type_symbol
 _atom_site_label
 _atom_site_symmetry_multiplicity
 _atom_site_fract_x
 _atom_site_fract_y
 _atom_site_fract_z
 _atom_site_occupancy
 _atom_site_hle17_bader_spin_density
 _atom_site_hle17_ddec_charge
 _atom_site_hle17_ddec_spin_density
 _atom_site_hle17_ddec_sum_bond_order
 _atom_site_hle17_magmom
 _atom_site_hse06_10hf_bader_spin_density
 _atom_site_hse06_10hf_ddec_charge
 _atom_site_hse06_10hf_ddec_spin_density
 _atom_site_hse06_10hf_ddec_sum_bond_order
 _atom_site_hse06_10hf_magmom
 _atom_site_hse06_bader_spin_density
 _atom_site_hse06_ddec_charge
 _atom_site_hse06_ddec_spin_density
 _atom_site_hse06_ddec_sum_bond_order
 _atom_site_hse06_magmom
 _atom_site_pbe_bader_spin_density
 _atom_site_pbe_cm5_charge
 _atom_site_pbe_ddec_charge
 _atom_site_pbe_ddec_spin_density
 _atom_site_pbe_ddec_sum_bond_order
 _atom_site_pbe_magmom
Zn  Zn0  1  0.24652734  0.15220385  0.22140965  1  0  0.959964  0  1.911617  0  0  0.768917  0  2.371365  0  0  0.816474  0  2.320095  0  0  0.680876  0.733778  0  2.408082  0
Zn  Zn1  1  0.75347699  0.84779729  0.77860099  1  0  0.95992  0  1.911723  0  0  0.768902  0  2.37148  0  0  0.816454  0  2.320208  0  0  0.680859  0.733753  0  2.408194  0
H  H2  1  0.80744063  0.22336811  0.05156574  1  0  0.113413  0  0.934225  0  0  0.122315  0  0.996608  0  0  0.126399  0  0.993688  0  0  0.107403  0.119244  0  0.998946  0
H  H3  1  0.19255439  0.77661808  0.94842318  1  0  0.113405  0  0.934337  0  0  0.122338  0  0.996687  0  0  0.126425  0  0.993764  0  0  0.107399  0.119267  0  0.999025  0
H  H4  1  0.73881830  0.31877144  0.74512101  1  0  0.105644  0  0.949805  0  0  0.112326  0  1.015416  0  0  0.117513  0  1.010135  0  0  0.103364  0.10855  0  1.019344  0
H  H5  1  0.26118155  0.68123038  0.25487537  1  0  0.105611  0  0.949708  0  0  0.11228  0  1.015348  0  0  0.117497  0  1.010035  0  0  0.103354  0.108504  0  1.019276  0
H  H6  1  0.83070307  0.64604672  0.04073496  1  0  0.098892  0  0.959959  0  0  0.105733  0  1.029357  0  0  0.109094  0  1.027459  0  0  0.100293  0.10325  0  1.03082  0
H  H7  1  0.16928678  0.35393749  0.95926149  1  0  0.098879  0  0.959872  0  0  0.105727  0  1.029271  0  0  0.109091  0  1.027372  0  0  0.100291  0.103242  0  1.030739  0
H  H8  1  0.98624308  0.49726160  0.22125524  1  0  0.104647  0  0.954305  0  0  0.117836  0  1.017458  0  0  0.119697  0  1.01596  0  0  0.118095  0.116416  0  1.018558  0
H  H9  1  0.01375947  0.50273251  0.77874111  1  0  0.104635  0  0.954411  0  0  0.117848  0  1.017519  0  0  0.119712  0  1.016016  0  0  0.118108  0.11643  0  1.018616  0
H  H10  1  0.87955752  0.60488655  0.21019831  1  0  0.077264  0  0.922985  0  0  0.094524  0  0.981396  0  0  0.095601  0  0.980114  0  0  0.109264  0.093575  0  0.982524  0
H  H11  1  0.12043699  0.39510295  0.78979102  1  0  0.077351  0  0.92299  0  0  0.094542  0  0.981466  0  0  0.095613  0  0.980186  0  0  0.109248  0.093593  0  0.982592  0
H  H12  1  0.52185618  0.40354198  0.15160511  1  0  0.099004  0  0.939184  0  0  0.10872  0  1.001312  0  0  0.111334  0  0.998596  0  0  0.135555  0.106876  0  1.00301  0
H  H13  1  0.47814185  0.59646008  0.84839953  1  0  0.099001  0  0.939172  0  0  0.108711  0  1.001308  0  0  0.111325  0  0.998591  0  0  0.135545  0.106867  0  1.003006  0
H  H14  1  0.59537951  0.15195642  0.35485420  1  0  0.109828  0  0.951261  0  0  0.120933  0  1.007168  0  0  0.123564  0  1.005922  0  0  0.119181  0.118974  0  1.008245  0
H  H15  1  0.40463677  0.84805341  0.64515224  1  0  0.10981  0  0.951345  0  0  0.120954  0  1.007208  0  0  0.123584  0  1.005961  0  0  0.119225  0.118994  0  1.008286  0
H  H16  1  0.90013487  0.32310197  0.32045255  1  0  0.127573  0  0.956047  0  0  0.135883  0  1.016766  0  0  0.138821  0  1.015443  0  0  0.123673  0.133651  0  1.018009  0
H  H17  1  0.09987993  0.67690323  0.67954613  1  0  0.127555  0  0.956052  0  0  0.13589  0  1.016737  0  0  0.138832  0  1.015416  0  0  0.123681  0.133658  0  1.01798  0
H  H18  1  0.89670103  0.93759839  0.04521387  1  0  0.103382  0  0.930932  0  0  0.109551  0  0.996528  0  0  0.112932  0  0.992788  0  0  0.124043  0.106854  0  0.999767  0
H  H19  1  0.10330528  0.06239823  0.95479251  1  0  0.103361  0  0.930907  0  0  0.109544  0  0.996482  0  0  0.112926  0  0.992741  0  0  0.124024  0.106844  0  0.999726  0
H  H20  1  0.60011400  0.81314389  0.04350950  1  0  0.110307  0  0.941898  0  0  0.119313  0  1.001581  0  0  0.122276  0  1.001339  0  0  0.110267  0.117129  0  1.00197  0
H  H21  1  0.39989596  0.18685809  0.95649197  1  0  0.110339  0  0.941884  0  0  0.119352  0  1.001557  0  0  0.122317  0  1.001313  0  0  0.110287  0.117171  0  1.001944  0
H  H22  1  0.53672515  0.84765214  0.22371186  1  0  0.096913  0  0.974987  0  0  0.106887  0  1.035649  0  0  0.108726  0  1.035398  0  0  0.105825  0.105499  0  1.035802  0
H  H23  1  0.46327756  0.15234647  0.77628747  1  0  0.096907  0  0.974922  0  0  0.106866  0  1.035594  0  0  0.108712  0  1.035338  0  0  0.105808  0.105471  0  1.035765  0
H  H24  1  0.76758734  0.00626560  0.39453200  1  0  0.106358  0  0.943335  0  0  0.120971  0  0.994113  0  0  0.123884  0  0.993665  0  0  0.111687  0.118837  0  0.994691  0
H  H25  1  0.23241281  0.99374299  0.60547001  1  0  0.106354  0  0.943359  0  0  0.120969  0  0.994125  0  0  0.123884  0  0.993673  0  0  0.111672  0.118833  0  0.994706  0
H  H26  1  0.96853612  0.15863137  0.52743784  1  0  0.111954  0  0.939426  0  0  0.126046  0  0.990495  0  0  0.129477  0  0.989322  0  0  0.113575  0.123576  0  0.991508  0
H  H27  1  0.03146009  0.84138482  0.47256096  1  0  0.112039  0  0.939394  0  0  0.12616  0  0.990427  0  0  0.129591  0  0.989253  0  0  0.113586  0.123691  0  0.991442  0
H  H28  1  0.22492372  0.32343504  0.68152822  1  0  0.082592  0  0.967051  0  0  0.09424  0  1.027166  0  0  0.096444  0  1.025811  0  0  0.104978  0.092605  0  1.028225  0
H  H29  1  0.77506807  0.67658113  0.31847005  1  0  0.082636  0  0.967005  0  0  0.094262  0  1.027143  0  0  0.096468  0  1.025792  0  0  0.104999  0.092638  0  1.028188  0
H  H30  1  0.50258847  0.41949856  0.64322504  1  0  0.117461  0  0.95825  0  0  0.12493  0  1.02002  0  0  0.12772  0  1.020108  0  0  0.110259  0.12294  0  1.02  0
H  H31  1  0.49741424  0.58051904  0.35678396  1  0  0.117372  0  0.958409  0  0  0.124903  0  1.020135  0  0  0.127692  0  1.020224  0  0  0.110242  0.122914  0  1.020116  0
H  H32  1  0.50429424  0.34147217  0.45069950  1  0  0.077497  0  0.954102  0  0  0.084662  0  1.018786  0  0  0.086879  0  1.017755  0  0  0.117444  0.083008  0  1.019663  0
H  H33  1  0.49570939  0.65853655  0.54930679  1  0  0.077409  0  0.954175  0  0  0.08459  0  1.018838  0  0  0.086806  0  1.017806  0  0  0.117403  0.082938  0  1.019718  0
C  C34  1  0.82028736  0.43973261  0.06019689  1  0  0.054139  0  3.772465  0  0  0.077222  0  4.01832  0  0  0.073831  0  4.043971  0  0  -0.015991  0.079236  0  4.000718  0
C  C35  1  0.17970976  0.56025060  0.93980260  1  0  0.054249  0  3.772836  0  0  0.07729  0  4.018755  0  0  0.0739  0  4.044407  0  0  -0.015889  0.079304  0  4.001149  0
C  C36  1  0.79753743  0.29915351  0.00620440  1  0  -0.093399  0  3.668512  0  0  -0.12965  0  3.919524  0  0  -0.127292  0  3.936359  0  0  -0.079024  -0.130495  0  3.907886  0
C  C37  1  0.20246714  0.70084269  0.99378789  1  0  -0.093436  0  3.668387  0  0  -0.129757  0  3.919448  0  0  -0.127401  0  3.936278  0  0  -0.079034  -0.1306  0  3.907816  0
C  C38  1  0.76665486  0.25499743  0.89262351  1  0  -0.061709  0  3.765126  0  0  -0.034291  0  3.996718  0  0  -0.042996  0  4.019787  0  0  -0.021037  -0.028903  0  3.98166  0
C  C39  1  0.23334604  0.74499560  0.10737326  1  0  -0.061652  0  3.765295  0  0  -0.034157  0  3.996785  0  0  -0.042861  0  4.019866  0  0  -0.021001  -0.02878  0  3.981742  0
C  C40  1  0.75897343  0.35239583  0.83328081  1  0  -0.094847  0  3.742023  0  0  -0.128431  0  3.988329  0  0  -0.126697  0  4.006928  0  0  -0.083409  -0.129306  0  3.976268  0
C  C41  1  0.24102332  0.64759371  0.16670956  1  0  -0.094644  0  3.741999  0  0  -0.128236  0  3.988251  0  0  -0.126532  0  4.006838  0  0  -0.083299  -0.12911  0  3.976194  0
C  C42  1  0.78211717  0.49293387  0.88617257  1  0  -0.071404  0  3.788036  0  0  -0.045841  0  4.020516  0  0  -0.054846  0  4.045162  0  0  -0.026182  -0.040192  0  4.004243  0
C  C43  1  0.21787194  0.50704912  0.11381977  1  0  -0.071531  0  3.788034  0  0  -0.045946  0  4.020506  0  0  -0.054941  0  4.045142  0  0  -0.02623  -0.040297  0  4.004235  0
C  C44  1  0.81024870  0.53510892  0.99983316  1  0  -0.113068  0  3.71728  0  0  -0.145733  0  3.963261  0  0  -0.144947  0  3.983557  0  0  -0.085428  -0.145565  0  3.949264  0
C  C45  1  0.18975147  0.46488070  0.00015995  1  0  -0.113  0  3.717341  0  0  -0.145673  0  3.96335  0  0  -0.144893  0  3.983646  0  0  -0.085458  -0.145502  0  3.949349  0
C  C46  1  0.79025736  0.60134301  0.82236348  1  0  0.626003  0  3.943998  0  0  0.579191  0  4.240496  0  0  0.61262  0  4.233536  0  0  0.193973  0.55639  0  4.244357  0
C  C47  1  0.20973934  0.39864795  0.17763785  1  0  0.625929  0  3.94386  0  0  0.57911  0  4.240365  0  0  0.612537  0  4.233403  0  0  0.193931  0.556308  0  4.244225  0
C  C48  1  0.75104416  0.10802787  0.83332915  1  0  0.616174  0  3.949948  0  0  0.572109  0  4.238752  0  0  0.605244  0  4.233459  0  0  0.185602  0.549551  0  4.241373  0
C  C49  1  0.24896258  0.89196613  0.16666309  1  0  0.615856  0  3.950402  0  0  0.571784  0  4.239209  0  0  0.604915  0  4.233927  0  0  0.185427  0.549233  0  4.241828  0
C  C50  1  0.86645063  0.49241130  0.18346838  1  0  -0.047252  0  3.653792  0  0  -0.115854  0  3.903617  0  0  -0.111351  0  3.913762  0  0  -0.046946  -0.118643  0  3.896751  0
C  C51  1  0.13354540  0.50758067  0.81652994  1  0  -0.047374  0  3.654096  0  0  -0.115894  0  3.903853  0  0  -0.111385  0  3.913991  0  0  -0.04692  -0.11868  0  3.896985  0
C  C52  1  0.58275919  0.35969017  0.20437038  1  0  0.147924  0  3.663251  0  0  0.08711  0  3.930103  0  0  0.099709  0  3.943473  0  0  0.135171  0.079043  0  3.9206  0
C  C53  1  0.41723974  0.64030958  0.79563020  1  0  0.147853  0  3.663472  0  0  0.087088  0  3.930324  0  0  0.09969  0  3.943693  0  0  0.135195  0.079018  0  3.920817  0
C  C54  1  0.62769374  0.23226604  0.31003557  1  0  -0.008901  0  3.764065  0  0  -0.043256  0  4.031232  0  0  -0.042433  0  4.051966  0  0  -0.005786  -0.043885  0  4.017588  0
C  C55  1  0.37231755  0.76774267  0.68997011  1  0  -0.008999  0  3.764154  0  0  -0.043371  0  4.031354  0  0  -0.042543  0  4.052083  0  0  -0.005919  -0.044002  0  4.017706  0
C  C56  1  0.77692673  0.31411704  0.29381909  1  0  -0.070939  0  3.672294  0  0  -0.110158  0  3.927723  0  0  -0.108719  0  3.947141  0  0  -0.000932  -0.11146  0  3.915316  0
C  C57  1  0.22308840  0.68589714  0.70618555  1  0  -0.0709  0  3.672257  0  0  -0.110121  0  3.927667  0  0  -0.108691  0  3.947092  0  0  -0.000896  -0.111422  0  3.91526  0
C  C58  1  0.86309617  0.95149299  0.12075480  1  0  0.155786  0  3.656208  0  0  0.121011  0  3.912408  0  0  0.129022  0  3.927298  0  0  0.062248  0.115401  0  3.903179  0
C  C59  1  0.13690614  0.04850681  0.87924772  1  0  0.15583  0  3.656269  0  0  0.121091  0  3.912441  0  0  0.129101  0  3.927333  0  0  0.062253  0.115481  0  3.90321  0
C  C60  1  0.69815260  0.88097197  0.12056081  1  0  -0.106586  0  3.696258  0  0  -0.118251  0  3.944758  0  0  -0.125043  0  3.965435  0  0  -0.074749  -0.113973  0  3.931332  0
C  C61  1  0.30185081  0.11903003  0.87944140  1  0  -0.106695  0  3.696212  0  0  -0.118385  0  3.944714  0  0  -0.125177  0  3.965393  0  0  -0.074736  -0.114106  0  3.931288  0
C  C62  1  0.66361957  0.90087862  0.22025771  1  0  -0.008224  0  3.73298  0  0  -0.026904  0  3.981572  0  0  -0.024188  0  4.002443  0  0  -0.066504  -0.028356  0  3.967343  0
C  C63  1  0.33637643  0.09912428  0.77973836  1  0  -0.008117  0  3.732955  0  0  -0.026774  0  3.98153  0  0  -0.024062  0  4.002402  0  0  -0.066499  -0.028228  0  3.967297  0
C  C64  1  0.79345153  0.99081769  0.31626321  1  0  -0.151492  0  3.737254  0  0  -0.170841  0  3.989653  0  0  -0.178377  0  4.012265  0  0  -0.080907  -0.165968  0  3.974567  0
C  C65  1  0.20654524  0.00918646  0.68373775  1  0  -0.151545  0  3.737436  0  0  -0.170892  0  3.989842  0  0  -0.178429  0  4.012456  0  0  -0.080884  -0.166018  0  3.974755  0
C  C66  1  0.95521227  0.06009564  0.30998319  1  0  0.168889  0  3.772186  0  0  0.162265  0  4.016905  0  0  0.168296  0  4.037857  0  0  0.120809  0.158352  0  4.002548  0
C  C67  1  0.04478672  0.93990415  0.69001893  1  0  0.168963  0  3.77206  0  0  0.162346  0  4.016802  0  0  0.168377  0  4.037754  0  0  0.120834  0.158433  0  4.002445  0
C  C68  1  0.10123745  0.15996306  0.40676563  1  0  0.184348  0  3.749098  0  0  0.177955  0  3.992034  0  0  0.185081  0  4.011425  0  0  0.12481  0.173246  0  3.978766  0
C  C69  1  0.89876472  0.84003665  0.59323379  1  0  0.18418  0  3.749213  0  0  0.177798  0  3.992162  0  0  0.184919  0  4.011553  0  0  0.12475  0.173091  0  3.978894  0
C  C70  1  0.08872344  0.19991905  0.51235115  1  0  -0.147368  0  3.704619  0  0  -0.167161  0  3.954192  0  0  -0.174443  0  3.975146  0  0  -0.079586  -0.162473  0  3.940228  0
C  C71  1  0.91126201  0.80008487  0.48764226  1  0  -0.147333  0  3.704747  0  0  -0.167154  0  3.954301  0  0  -0.174437  0  3.975261  0  0  -0.079556  -0.162468  0  3.94034  0
C  C72  1  0.23281240  0.29326290  0.59885928  1  0  0.000663  0  3.753449  0  0  -0.021546  0  4.009454  0  0  -0.017917  0  4.029073  0  0  -0.068551  -0.023702  0  3.996379  0
C  C73  1  0.76717060  0.70675107  0.40113913  1  0  0.000421  0  3.753779  0  0  -0.021765  0  4.00985  0  0  -0.018145  0  4.02948  0  0  -0.068544  -0.023926  0  3.996771  0
C  C74  1  0.38604844  0.34599328  0.57874755  1  0  -0.120524  0  3.710016  0  0  -0.131453  0  3.9586  0  0  -0.13865  0  3.980241  0  0  -0.080241  -0.126892  0  3.94425  0
C  C75  1  0.61393803  0.65402519  0.42125424  1  0  -0.120119  0  3.70998  0  0  -0.131126  0  3.958554  0  0  -0.138319  0  3.980192  0  0  -0.08016  -0.12657  0  3.944214  0
C  C76  1  0.38810737  0.30237386  0.47129081  1  0  0.151786  0  3.687584  0  0  0.120767  0  3.935391  0  0  0.127842  0  3.952514  0  0  0.061933  0.116143  0  3.923805  0
C  C77  1  0.61189590  0.69763607  0.52871945  1  0  0.151717  0  3.687691  0  0  0.120697  0  3.935541  0  0  0.127771  0  3.952657  0  0  0.061888  0.116071  0  3.923958  0
N  N78  1  0.98725362  0.03876240  0.21308147  1  0  -0.332403  0  3.253164  0  0  -0.261021  0  3.51358  0  0  -0.278433  0  3.529251  0  0  -0.31164  -0.24933  0  3.50309  0
N  N79  1  0.01274824  0.96123418  0.78692360  1  0  -0.332425  0  3.253137  0  0  -0.261109  0  3.513629  0  0  -0.278519  0  3.529294  0  0  -0.311688  -0.249417  0  3.503136  0
N  N80  1  0.25024574  0.21207290  0.38796910  1  0  -0.322936  0  3.275182  0  0  -0.249536  0  3.538202  0  0  -0.266065  0  3.551009  0  0  -0.306703  -0.23823  0  3.529144  0
N  N81  1  0.74975938  0.78793023  0.61203425  1  0  -0.322894  0  3.275411  0  0  -0.249498  0  3.538413  0  0  -0.26601  0  3.551204  0  0  -0.306697  -0.238196  0  3.529355  0
N  N82  1  0.50823616  0.26238657  0.25432569  1  0  -0.360188  0  3.282548  0  0  -0.284578  0  3.56608  0  0  -0.303016  0  3.581569  0  0  -0.344771  -0.272078  0  3.555322  0
N  N83  1  0.49177084  0.73761562  0.74568313  1  0  -0.360034  0  3.28252  0  0  -0.284504  0  3.566128  0  0  -0.302942  0  3.581615  0  0  -0.344765  -0.271989  0  3.55535  0
N  N84  1  0.74587384  0.39399322  0.22674146  1  0  -0.059179  0  3.597977  0  0  0.035363  0  3.816672  0  0  0.020401  0  3.843509  0  0  -0.243623  0.045201  0  3.798531  0
N  N85  1  0.25412595  0.60600199  0.77325472  1  0  -0.059122  0  3.597993  0  0  0.035378  0  3.816697  0  0  0.020416  0  3.843532  0  0  -0.243632  0.045216  0  3.798558  0
O  O86  1  0.78062033  0.03041964  0.89308594  1  0  -0.636322  0  2.00449  0  0  -0.571791  0  2.258079  0  0  -0.600725  0  2.247939  0  0  -0.333723  -0.550436  0  2.264928  0
O  O87  1  0.21938415  0.96958015  0.10691608  1  0  -0.636203  0  2.004621  0  0  -0.571687  0  2.258199  0  0  -0.600621  0  2.248065  0  0  -0.33369  -0.550324  0  2.265026  0
O  O88  1  0.71278126  0.06845397  0.73016714  1  0  -0.633766  0  1.867263  0  0  -0.592169  0  2.080423  0  0  -0.614503  0  2.071049  0  0  -0.35149  -0.575744  0  2.085824  0
O  O89  1  0.28721446  0.93153561  0.26982466  1  0  -0.633738  0  1.867183  0  0  -0.59214  0  2.08035  0  0  -0.614465  0  2.070967  0  0  -0.351486  -0.575716  0  2.085744  0
O  O90  1  0.77484513  0.71449090  0.87010430  1  0  -0.644465  0  2.045926  0  0  -0.574381  0  2.311768  0  0  -0.602918  0  2.298879  0  0  -0.332082  -0.553429  0  2.320498  0
O  O91  1  0.22515471  0.28550215  0.12989310  1  0  -0.644433  0  2.04584  0  0  -0.574351  0  2.31167  0  0  -0.602891  0  2.298786  0  0  -0.332113  -0.553401  0  2.320401  0
O  O92  1  0.81178843  0.57652444  0.72967567  1  0  -0.623437  0  1.882967  0  0  -0.583936  0  2.099386  0  0  -0.605333  0  2.090646  0  0  -0.341008  -0.56827  0  2.104526  0
O  O93  1  0.18819776  0.42346975  0.27032332  1  0  -0.623388  0  1.88281  0  0  -0.583877  0  2.099227  0  0  -0.605276  0  2.090488  0  0  -0.34093  -0.568211  0  2.104366  0
