# generated using pymatgen
data_AgH8C5BrN2
_symmetry_space_group_name_H-M   'P 1'
_cell_length_a   6.19642215
_cell_length_b   8.23113968
_cell_length_c   8.41504953
_cell_angle_alpha   108.84491593
_cell_angle_beta   111.62290955
_cell_angle_gamma   89.94759360
_symmetry_Int_Tables_number   1
_chemical_formula_structural   AgH8C5BrN2
_chemical_formula_sum   'Ag2 H16 C10 Br2 N4'
_cell_volume   374.18909742
_cell_formula_units_Z   2
loop_
 _symmetry_equiv_pos_site_id
 _symmetry_equiv_pos_as_xyz
  1  'x, y, z'
loop_
 _atom_site_type_symbol
 _atom_site_label
 _atom_site_symmetry_multiplicity
 _atom_site_fract_x
 _atom_site_fract_y
 _atom_site_fract_z
 _atom_site_occupancy
 _atom_site_pbe_bader_spin_density
 _atom_site_pbe_cm5_charge
 _atom_site_pbe_ddec_charge
 _atom_site_pbe_ddec_spin_density
 _atom_site_pbe_ddec_sum_bond_order
 _atom_site_pbe_magmom
Ag  Ag0  1  0.99999940  0.99999926  0.00000049  1  0  0.265386  0.030472  0  2.519151  0
Ag  Ag1  1  0.50000706  0.00000503  0.00000135  1  0  0.210763  0.214437  0  2.325268  0
H  H2  1  0.29187126  0.82542763  0.58375128  1  0  0.111809  0.11637  0  1.040353  0
H  H3  1  0.70813021  0.17457942  0.41624828  1  0  0.111844  0.116423  0  1.040198  0
H  H4  1  0.35517332  0.18509197  0.71057567  1  0  0.114166  0.122351  0  1.029678  0
H  H5  1  0.64482479  0.81490603  0.28941769  1  0  0.114224  0.122363  0  1.029453  0
H  H6  1  0.28164935  0.40771022  0.56358915  1  0  0.091351  0.126563  0  1.034098  0
H  H7  1  0.71834553  0.59228908  0.43640373  1  0  0.091365  0.12655  0  1.034035  0
H  H8  1  0.13902283  0.59717424  0.27772821  1  0  0.108082  0.135134  0  0.985851  0
H  H9  1  0.86097690  0.40282373  0.72227273  1  0  0.108053  0.135073  0  0.985793  0
H  H10  1  0.31979730  0.33995539  0.35130041  1  0  0.088716  0.110353  0  1.049984  0
H  H11  1  0.03119370  0.34011377  0.35132243  1  0  0.088774  0.110855  0  1.048773  0
H  H12  1  0.68020034  0.66004002  0.64869200  1  0  0.088725  0.110344  0  1.049939  0
H  H13  1  0.96880218  0.65988164  0.64867068  1  0  0.088785  0.110852  0  1.048758  0
H  H14  1  0.20059447  0.65823820  0.11158832  1  0  0.091667  0.117738  0  1.040533  0
H  H15  1  0.91129772  0.65830873  0.11150003  1  0  0.091641  0.117551  0  1.041616  0
H  H16  1  0.79940552  0.34176107  0.88841192  1  0  0.091664  0.117729  0  1.040539  0
H  H17  1  0.08870422  0.34169183  0.88850235  1  0  0.091646  0.117504  0  1.041639  0
C  C18  1  0.09915434  0.68308043  0.19801295  1  0  -0.138045  -0.273956  0  3.853253  0
C  C19  1  0.90084736  0.31691883  0.80198895  1  0  -0.138037  -0.273853  0  3.853205  0
C  C20  1  0.13198806  0.00023893  0.26407305  1  0  0.036434  -0.088898  0  3.79733  0
C  C21  1  0.86801317  0.99975774  0.73592789  1  0  0.036433  -0.088778  0  3.797133  0
C  C22  1  0.21096965  0.31825523  0.42221201  1  0  -0.14556  -0.278567  0  3.866417  0
C  C23  1  0.78902519  0.68174406  0.57778323  1  0  -0.14556  -0.278454  0  3.866297  0
C  C24  1  0.28623361  0.09221390  0.57262097  1  0  0.000671  -0.089519  0  3.927113  0
C  C25  1  0.71377672  0.90780474  0.42739900  1  0  0.000714  -0.089238  0  3.927682  0
C  C26  1  0.25489877  0.91523715  0.50997942  1  0  -0.001005  -0.094184  0  3.944077  0
C  C27  1  0.74510369  0.08474784  0.49002410  1  0  -0.00107  -0.094374  0  3.944711  0
Br  Br28  1  0.44179800  0.67716848  0.88180391  1  0  -0.272175  -0.441529  0  1.45691  0
Br  Br29  1  0.55819494  0.32283986  0.11819962  1  0  -0.272182  -0.441543  0  1.456957  0
N  N30  1  0.16089025  0.86228920  0.32181381  1  0  -0.251675  0.092062  0  3.852056  0
N  N31  1  0.83911197  0.13771266  0.67818669  1  0  -0.251662  0.091994  0  3.852047  0
N  N32  1  0.21003107  0.14073953  0.42023768  1  0  -0.252928  0.095225  0  3.844629  0
N  N33  1  0.78996651  0.85925586  0.57975828  1  0  -0.253015  0.094952  0  3.844814  0
