# generated using pymatgen
data_TlH11C8(NO)2
_symmetry_space_group_name_H-M   'P 1'
_cell_length_a   6.56411015
_cell_length_b   10.88821258
_cell_length_c   14.06501800
_cell_angle_alpha   89.99943472
_cell_angle_beta   101.46663032
_cell_angle_gamma   89.99520843
_symmetry_Int_Tables_number   1
_chemical_formula_structural   TlH11C8(NO)2
_chemical_formula_sum   'Tl4 H44 C32 N8 O8'
_cell_volume   985.18282738
_cell_formula_units_Z   4
loop_
 _symmetry_equiv_pos_site_id
 _symmetry_equiv_pos_as_xyz
  1  'x, y, z'
loop_
 _atom_site_type_symbol
 _atom_site_label
 _atom_site_symmetry_multiplicity
 _atom_site_fract_x
 _atom_site_fract_y
 _atom_site_fract_z
 _atom_site_occupancy
 _atom_site_hle17_bader_spin_density
 _atom_site_hle17_ddec_charge
 _atom_site_hle17_ddec_spin_density
 _atom_site_hle17_ddec_sum_bond_order
 _atom_site_hle17_magmom
 _atom_site_hse06_10hf_bader_spin_density
 _atom_site_hse06_10hf_ddec_charge
 _atom_site_hse06_10hf_ddec_spin_density
 _atom_site_hse06_10hf_ddec_sum_bond_order
 _atom_site_hse06_10hf_magmom
 _atom_site_hse06_bader_spin_density
 _atom_site_hse06_ddec_charge
 _atom_site_hse06_ddec_spin_density
 _atom_site_hse06_ddec_sum_bond_order
 _atom_site_hse06_magmom
 _atom_site_pbe_bader_spin_density
 _atom_site_pbe_cm5_charge
 _atom_site_pbe_ddec_charge
 _atom_site_pbe_ddec_spin_density
 _atom_site_pbe_ddec_sum_bond_order
 _atom_site_pbe_magmom
Tl  Tl0  1  0.59056983  0.01229241  0.35830860  1  0  1.074623  0  2.137942  0  0  0.959083  0  2.610324  0  0  1.003377  0  2.580691  0  0  0.501988  0.928471  0  2.630171  0
Tl  Tl1  1  0.59054230  0.48769693  0.85830239  1  0  1.074692  0  2.13786  0  0  0.959155  0  2.610277  0  0  1.003466  0  2.580621  0  0  0.502086  0.928579  0  2.630055  0
Tl  Tl2  1  0.40943972  0.98772068  0.64170138  1  0  1.074669  0  2.138004  0  0  0.959135  0  2.610426  0  0  1.003444  0  2.580766  0  0  0.502014  0.928532  0  2.630262  0
Tl  Tl3  1  0.40946133  0.51230147  0.14169988  1  0  1.074621  0  2.137753  0  0  0.959097  0  2.610105  0  0  1.003409  0  2.580446  0  0  0.502094  0.928524  0  2.629874  0
H  H4  1  0.73729562  0.24731731  0.77064441  1  0  0.349707  0  0.928929  0  0  0.328852  0  0.997487  0  0  0.337174  0  0.989822  0  0  0.301583  0.322968  0  1.002915  0
H  H5  1  0.73731532  0.25264551  0.27065825  1  0  0.34989  0  0.928698  0  0  0.32899  0  0.997371  0  0  0.337319  0  0.989687  0  0  0.301544  0.323105  0  1.0028  0
H  H6  1  0.26272239  0.75268201  0.22935007  1  0  0.349707  0  0.928821  0  0  0.328862  0  0.99738  0  0  0.337185  0  0.989712  0  0  0.301553  0.322979  0  1.002808  0
H  H7  1  0.26268362  0.74733911  0.72934425  1  0  0.349889  0  0.928809  0  0  0.329016  0  0.997405  0  0  0.337344  0  0.989723  0  0  0.301595  0.323132  0  1.002834  0
H  H8  1  0.71751963  0.16650269  0.65825896  1  0  0.310609  0  0.967234  0  0  0.292804  0  1.034296  0  0  0.299964  0  1.028853  0  0  0.293861  0.288001  0  1.037548  0
H  H9  1  0.71753075  0.33347083  0.15826644  1  0  0.310667  0  0.967419  0  0  0.292854  0  1.03446  0  0  0.300015  0  1.029013  0  0  0.293857  0.288047  0  1.037718  0
H  H10  1  0.28248288  0.83349387  0.34173324  1  0  0.310577  0  0.967346  0  0  0.292745  0  1.03442  0  0  0.299904  0  1.028979  0  0  0.293864  0.287941  0  1.037672  0
H  H11  1  0.28246356  0.66651930  0.84173488  1  0  0.310534  0  0.967391  0  0  0.292765  0  1.034402  0  0  0.299926  0  1.028958  0  0  0.293816  0.28796  0  1.037657  0
H  H12  1  0.76039633  0.45765098  0.42186369  1  0  0.095871  0  0.940989  0  0  0.108122  0  0.999651  0  0  0.110954  0  0.997251  0  0  0.107355  0.106045  0  1.001415  0
H  H13  1  0.76035056  0.04233170  0.92185561  1  0  0.09579  0  0.940825  0  0  0.108039  0  0.999507  0  0  0.110871  0  0.997108  0  0  0.107314  0.105917  0  1.001316  0
H  H14  1  0.23960721  0.54236762  0.57814070  1  0  0.095896  0  0.940994  0  0  0.108167  0  0.999632  0  0  0.110998  0  0.997236  0  0  0.107364  0.106099  0  1.001385  0
H  H15  1  0.23959889  0.95766486  0.07813617  1  0  0.095701  0  0.940705  0  0  0.107969  0  0.9994  0  0  0.1108  0  0.997005  0  0  0.107302  0.105904  0  1.001151  0
H  H16  1  0.79736908  0.65643505  0.51727647  1  0  0.106905  0  0.9568  0  0  0.118773  0  1.014691  0  0  0.121933  0  1.01491  0  0  0.103088  0.116273  0  1.015059  0
H  H17  1  0.79733711  0.84354883  0.01727097  1  0  0.106742  0  0.956784  0  0  0.118603  0  1.014731  0  0  0.12176  0  1.014957  0  0  0.103053  0.116172  0  1.015018  0
H  H18  1  0.20265150  0.34358079  0.48273108  1  0  0.106861  0  0.956963  0  0  0.118707  0  1.014891  0  0  0.121869  0  1.01511  0  0  0.103026  0.116244  0  1.015219  0
H  H19  1  0.20259250  0.15645232  0.98271026  1  0  0.106824  0  0.956815  0  0  0.118656  0  1.014772  0  0  0.121837  0  1.014966  0  0  0.103078  0.116155  0  1.015136  0
H  H20  1  0.76859708  0.64624108  0.69177639  1  0  0.060634  0  0.95811  0  0  0.071458  0  1.024059  0  0  0.073652  0  1.021563  0  0  0.109954  0.070079  0  1.025479  0
H  H21  1  0.76860253  0.85373010  0.19177321  1  0  0.060426  0  0.958292  0  0  0.071392  0  1.024099  0  0  0.073586  0  1.021599  0  0  0.109855  0.070013  0  1.025521  0
H  H22  1  0.23140622  0.35376834  0.30823367  1  0  0.060612  0  0.958237  0  0  0.071461  0  1.024161  0  0  0.073654  0  1.021664  0  0  0.109913  0.070081  0  1.025581  0
H  H23  1  0.23137520  0.14625360  0.80821434  1  0  0.060482  0  0.958375  0  0  0.071429  0  1.024182  0  0  0.073624  0  1.021683  0  0  0.109869  0.070049  0  1.025609  0
H  H24  1  0.18638509  0.02684103  0.25670027  1  0  0.15081  0  0.992425  0  0  0.170554  0  1.047142  0  0  0.172973  0  1.048972  0  0  0.085251  0.168632  0  1.046126  0
H  H25  1  0.18637455  0.47317282  0.75671223  1  0  0.150834  0  0.992361  0  0  0.170553  0  1.047098  0  0  0.172974  0  1.048932  0  0  0.085267  0.168629  0  1.046086  0
H  H26  1  0.81360968  0.97315553  0.74329043  1  0  0.150882  0  0.992416  0  0  0.170608  0  1.047148  0  0  0.173026  0  1.048985  0  0  0.085295  0.168686  0  1.046131  0
H  H27  1  0.81363823  0.52679986  0.24329523  1  0  0.150623  0  0.992622  0  0  0.170378  0  1.047326  0  0  0.172793  0  1.049167  0  0  0.085188  0.168454  0  1.046313  0
H  H28  1  0.32653195  0.16585945  0.24583857  1  0  0.144171  0  1.004386  0  0  0.162515  0  1.063928  0  0  0.164887  0  1.065662  0  0  0.084413  0.160702  0  1.062796  0
H  H29  1  0.32652998  0.33414193  0.74583950  1  0  0.144103  0  1.004432  0  0  0.162442  0  1.063986  0  0  0.164812  0  1.065722  0  0  0.084385  0.160628  0  1.062854  0
H  H30  1  0.67347495  0.83413527  0.75416047  1  0  0.144162  0  1.00442  0  0  0.162509  0  1.063948  0  0  0.164879  0  1.065682  0  0  0.084387  0.160696  0  1.062818  0
H  H31  1  0.67350145  0.66583442  0.25416987  1  0  0.144048  0  1.004565  0  0  0.162373  0  1.064156  0  0  0.164744  0  1.065892  0  0  0.08435  0.160559  0  1.063022  0
H  H32  1  0.22953034  0.13506737  0.35455646  1  0  0.154262  0  0.984339  0  0  0.174549  0  1.038454  0  0  0.177248  0  1.039584  0  0  0.08995  0.172552  0  1.037775  0
H  H33  1  0.22953119  0.36492469  0.85456743  1  0  0.154199  0  0.984231  0  0  0.174503  0  1.038351  0  0  0.177201  0  1.039481  0  0  0.089896  0.172504  0  1.037675  0
H  H34  1  0.77046272  0.86492828  0.64543763  1  0  0.154206  0  0.984333  0  0  0.174488  0  1.03847  0  0  0.177187  0  1.0396  0  0  0.089929  0.172492  0  1.037792  0
H  H35  1  0.77050161  0.63504248  0.14544634  1  0  0.154401  0  0.984178  0  0  0.174663  0  1.038325  0  0  0.177362  0  1.039451  0  0  0.089989  0.172665  0  1.037651  0
H  H36  1  0.84685687  0.87362115  0.48818054  1  0  0.147722  0  0.99538  0  0  0.16651  0  1.053318  0  0  0.169235  0  1.054461  0  0  0.088495  0.164432  0  1.052849  0
H  H37  1  0.84678779  0.62636435  0.98817097  1  0  0.14759  0  0.995546  0  0  0.16644  0  1.05343  0  0  0.169171  0  1.054562  0  0  0.088495  0.164358  0  1.05297  0
H  H38  1  0.15314984  0.12638276  0.51182276  1  0  0.147698  0  0.995488  0  0  0.166512  0  1.053396  0  0  0.169233  0  1.054544  0  0  0.088491  0.164433  0  1.052929  0
H  H39  1  0.15319698  0.37364966  0.01183436  1  0  0.147515  0  0.995459  0  0  0.166305  0  1.053432  0  0  0.169033  0  1.054571  0  0  0.088477  0.164225  0  1.052967  0
H  H40  1  0.99315825  0.94586672  0.40851125  1  0  0.157449  0  0.993131  0  0  0.176182  0  1.048339  0  0  0.178607  0  1.050599  0  0  0.090266  0.174388  0  1.04692  0
H  H41  1  0.99312781  0.55412340  0.90850536  1  0  0.15727  0  0.993276  0  0  0.176001  0  1.048545  0  0  0.178424  0  1.050809  0  0  0.090198  0.174205  0  1.047127  0
H  H42  1  0.00684831  0.05414453  0.59149558  1  0  0.15734  0  0.993403  0  0  0.176126  0  1.048552  0  0  0.178549  0  1.050816  0  0  0.090256  0.174332  0  1.047133  0
H  H43  1  0.00687388  0.44589061  0.09150595  1  0  0.157251  0  0.993347  0  0  0.17593  0  1.048685  0  0  0.178355  0  1.050951  0  0  0.090184  0.174133  0  1.047267  0
H  H44  1  0.83986506  0.81215102  0.36910766  1  0  0.139493  0  1.000331  0  0  0.15655  0  1.062992  0  0  0.158705  0  1.064988  0  0  0.082256  0.154892  0  1.061943  0
H  H45  1  0.83981473  0.68783818  0.86910388  1  0  0.13941  0  1.000385  0  0  0.156534  0  1.062995  0  0  0.158692  0  1.064986  0  0  0.082254  0.154875  0  1.061952  0
H  H46  1  0.16014479  0.18785840  0.63089524  1  0  0.139533  0  1.000526  0  0  0.156611  0  1.063149  0  0  0.158766  0  1.065147  0  0  0.082269  0.154954  0  1.0621  0
H  H47  1  0.16016986  0.31217399  0.13090569  1  0  0.13937  0  1.000363  0  0  0.156506  0  1.062935  0  0  0.158662  0  1.06493  0  0  0.082225  0.154845  0  1.061891  0
C  C48  1  0.70142027  0.23241951  0.48547896  1  0  0.662409  0  3.922797  0  0  0.612695  0  4.209719  0  0  0.647875  0  4.203442  0  0  0.204072  0.588922  0  4.21313  0
C  C49  1  0.70139400  0.26756811  0.98547571  1  0  0.662352  0  3.922806  0  0  0.612628  0  4.209681  0  0  0.647804  0  4.203406  0  0  0.204034  0.588858  0  4.213087  0
C  C50  1  0.29859765  0.76760460  0.51451765  1  0  0.662467  0  3.922572  0  0  0.612714  0  4.209535  0  0  0.647888  0  4.203255  0  0  0.204096  0.588941  0  4.212942  0
C  C51  1  0.29858211  0.73242202  0.01451310  1  0  0.662699  0  3.922543  0  0  0.612963  0  4.209456  0  0  0.648138  0  4.203173  0  0  0.20411  0.589186  0  4.212871  0
C  C52  1  0.73191809  0.34768798  0.54392960  1  0  -0.246266  0  3.710313  0  0  -0.220027  0  3.945934  0  0  -0.237923  0  3.968569  0  0  -0.031225  -0.208389  0  3.930706  0
C  C53  1  0.73188570  0.15230096  0.04393950  1  0  -0.246779  0  3.710098  0  0  -0.220309  0  3.945631  0  0  -0.238204  0  3.96826  0  0  -0.031305  -0.208688  0  3.930407  0
C  C54  1  0.26810587  0.65232787  0.45607189  1  0  -0.246375  0  3.710229  0  0  -0.220085  0  3.945819  0  0  -0.237979  0  3.968453  0  0  -0.03133  -0.208447  0  3.930574  0
C  C55  1  0.26806665  0.84768550  0.95605756  1  0  -0.247095  0  3.710519  0  0  -0.220643  0  3.946102  0  0  -0.23854  0  3.968726  0  0  -0.031363  -0.209004  0  3.930871  0
C  C56  1  0.75691400  0.45909434  0.49893262  1  0  0.017509  0  3.756511  0  0  -0.013735  0  4.010604  0  0  -0.004063  0  4.026943  0  0  -0.065299  -0.019791  0  3.999217  0
C  C57  1  0.75687439  0.04089121  0.99893158  1  0  0.017693  0  3.756263  0  0  -0.013563  0  4.010298  0  0  -0.003893  0  4.026637  0  0  -0.065292  -0.019577  0  3.99894  0
C  C58  1  0.24310992  0.54092058  0.50106958  1  0  0.017219  0  3.756912  0  0  -0.014039  0  4.010998  0  0  -0.004366  0  4.027341  0  0  -0.065374  -0.020102  0  3.999616  0
C  C59  1  0.24309542  0.95910994  0.00105872  1  0  0.017866  0  3.756213  0  0  -0.013393  0  4.010258  0  0  -0.003718  0  4.026602  0  0  -0.065249  -0.019458  0  3.998868  0
C  C60  1  0.77562539  0.56885168  0.55107186  1  0  -0.175645  0  3.788693  0  0  -0.192757  0  4.055193  0  0  -0.204118  0  4.076807  0  0  -0.112353  -0.185144  0  4.040643  0
C  C61  1  0.77558065  0.93113930  0.05106166  1  0  -0.175447  0  3.788566  0  0  -0.1926  0  4.05519  0  0  -0.20396  0  4.076805  0  0  -0.112263  -0.185041  0  4.040605  0
C  C62  1  0.22442131  0.43115957  0.44894545  1  0  -0.175343  0  3.788504  0  0  -0.192452  0  4.05498  0  0  -0.203819  0  4.076605  0  0  -0.112225  -0.184873  0  4.040423  0
C  C63  1  0.22439839  0.06886001  0.94893170  1  0  -0.175383  0  3.788868  0  0  -0.192497  0  4.055427  0  0  -0.203878  0  4.07704  0  0  -0.112248  -0.18488  0  4.04088  0
C  C64  1  0.76188103  0.56270624  0.64825668  1  0  0.148937  0  3.782176  0  0  0.117176  0  4.041807  0  0  0.129081  0  4.056955  0  0  0.044436  0.109484  0  4.031125  0
C  C65  1  0.76189265  0.93726952  0.14825787  1  0  0.149084  0  3.782224  0  0  0.117223  0  4.041845  0  0  0.129135  0  4.056981  0  0  0.044565  0.109524  0  4.031187  0
C  C66  1  0.23814592  0.43729492  0.35174796  1  0  0.148866  0  3.782106  0  0  0.117086  0  4.041702  0  0  0.128993  0  4.056848  0  0  0.044462  0.109388  0  4.031038  0
C  C67  1  0.23809876  0.06272521  0.85173818  1  0  0.148935  0  3.782129  0  0  0.117098  0  4.041724  0  0  0.129012  0  4.056864  0  0  0.044622  0.1094  0  4.031049  0
C  C68  1  0.73031426  0.34979056  0.64567336  1  0  0.486625  0  3.80782  0  0  0.456239  0  4.061699  0  0  0.477535  0  4.075202  0  0  0.235525  0.442095  0  4.052127  0
C  C69  1  0.73031528  0.15018063  0.14567599  1  0  0.487359  0  3.807699  0  0  0.456618  0  4.061971  0  0  0.477915  0  4.075464  0  0  0.235655  0.442495  0  4.052376  0
C  C70  1  0.26970817  0.65021610  0.35432727  1  0  0.486915  0  3.807565  0  0  0.456476  0  4.06149  0  0  0.477775  0  4.074984  0  0  0.235664  0.44235  0  4.051885  0
C  C71  1  0.26965429  0.84980491  0.85431997  1  0  0.48738  0  3.80714  0  0  0.456687  0  4.061368  0  0  0.477982  0  4.074867  0  0  0.23569  0.442564  0  4.051764  0
C  C72  1  0.29475146  0.09466001  0.29586224  1  0  -0.637306  0  3.48923  0  0  -0.683482  0  3.730306  0  0  -0.698672  0  3.737704  0  0  -0.334634  -0.673224  0  3.725473  0
C  C73  1  0.29474182  0.40533776  0.79586904  1  0  -0.63717  0  3.489137  0  0  -0.683332  0  3.730217  0  0  -0.698534  0  3.737624  0  0  -0.334532  -0.673075  0  3.72539  0
C  C74  1  0.70524144  0.90533564  0.70413539  1  0  -0.637301  0  3.489271  0  0  -0.683456  0  3.730341  0  0  -0.698651  0  3.737742  0  0  -0.334613  -0.673199  0  3.725508  0
C  C75  1  0.70528811  0.59463860  0.20413875  1  0  -0.637126  0  3.489496  0  0  -0.683279  0  3.730524  0  0  -0.698473  0  3.737933  0  0  -0.33455  -0.673025  0  3.725696  0
C  C76  1  0.85090416  0.89599894  0.41282588  1  0  -0.626051  0  3.510474  0  0  -0.678099  0  3.764348  0  0  -0.693474  0  3.772391  0  0  -0.333319  -0.667701  0  3.759386  0
C  C77  1  0.85085394  0.60398640  0.91281767  1  0  -0.625776  0  3.5107  0  0  -0.677972  0  3.764498  0  0  -0.693349  0  3.772535  0  0  -0.333351  -0.667577  0  3.759554  0
C  C78  1  0.14910106  0.10400865  0.58717584  1  0  -0.625989  0  3.511082  0  0  -0.678134  0  3.764896  0  0  -0.693509  0  3.772949  0  0  -0.33331  -0.667736  0  3.759938  0
C  C79  1  0.14912925  0.39602027  0.08718821  1  0  -0.625574  0  3.510474  0  0  -0.677678  0  3.764349  0  0  -0.693056  0  3.772393  0  0  -0.33327  -0.667282  0  3.759399  0
N  N80  1  0.73904813  0.45764611  0.69482329  1  0  -0.471225  0  3.140451  0  0  -0.4051  0  3.401248  0  0  -0.427296  0  3.416157  0  0  -0.33086  -0.390124  0  3.390895  0
N  N81  1  0.73905438  0.04232860  0.19482145  1  0  -0.471422  0  3.140999  0  0  -0.40523  0  3.402023  0  0  -0.427426  0  3.416926  0  0  -0.330931  -0.390259  0  3.39166  0
N  N82  1  0.26096779  0.54235412  0.30518379  1  0  -0.471288  0  3.140621  0  0  -0.405165  0  3.401458  0  0  -0.427362  0  3.416366  0  0  -0.330869  -0.390195  0  3.391097  0
N  N83  1  0.26089528  0.95766153  0.80516538  1  0  -0.471354  0  3.140497  0  0  -0.405179  0  3.40148  0  0  -0.427375  0  3.416384  0  0  -0.331064  -0.39021  0  3.391122  0
N  N84  1  0.72204409  0.24575317  0.69685605  1  0  -0.707132  0  3.154916  0  0  -0.668342  0  3.386103  0  0  -0.6914  0  3.384106  0  0  -0.58183  -0.652181  0  3.386622  0
N  N85  1  0.72205283  0.25421412  0.19686521  1  0  -0.707593  0  3.154837  0  0  -0.668682  0  3.386182  0  0  -0.691744  0  3.384171  0  0  -0.581878  -0.652521  0  3.386696  0
N  N86  1  0.27797697  0.75424523  0.30314017  1  0  -0.707214  0  3.154994  0  0  -0.668388  0  3.386235  0  0  -0.69144  0  3.384234  0  0  -0.58188  -0.652234  0  3.386743  0
N  N87  1  0.27794014  0.74576867  0.80313099  1  0  -0.707489  0  3.154615  0  0  -0.668635  0  3.385891  0  0  -0.691695  0  3.383884  0  0  -0.581886  -0.652479  0  3.386405  0
O  O88  1  0.63991488  0.13488783  0.52269735  1  0  -0.684928  0  1.997274  0  0  -0.613215  0  2.23222  0  0  -0.641928  0  2.224899  0  0  -0.312517  -0.592904  0  2.23617  0
O  O89  1  0.63994953  0.36511980  0.02270205  1  0  -0.684805  0  1.99716  0  0  -0.613054  0  2.232047  0  0  -0.641797  0  2.224814  0  0  -0.312468  -0.592749  0  2.235992  0
O  O90  1  0.36008884  0.86513995  0.47730279  1  0  -0.684833  0  1.997362  0  0  -0.613066  0  2.232251  0  0  -0.641808  0  2.225017  0  0  -0.312452  -0.592758  0  2.2362  0
O  O91  1  0.36006221  0.63487859  0.97729323  1  0  -0.684831  0  1.997138  0  0  -0.613097  0  2.232034  0  0  -0.641832  0  2.22478  0  0  -0.312464  -0.592792  0  2.235985  0
O  O92  1  0.73430237  0.23422393  0.39905729  1  0  -0.65919  0  1.965416  0  0  -0.597286  0  2.197817  0  0  -0.624292  0  2.189462  0  0  -0.320429  -0.578468  0  2.203122  0
O  O93  1  0.73427487  0.26575761  0.89905249  1  0  -0.659128  0  1.965406  0  0  -0.597288  0  2.197847  0  0  -0.624296  0  2.189519  0  0  -0.320473  -0.57847  0  2.203139  0
O  O94  1  0.26572312  0.76579283  0.60094507  1  0  -0.659256  0  1.965049  0  0  -0.597378  0  2.197509  0  0  -0.624392  0  2.189176  0  0  -0.320478  -0.578562  0  2.202816  0
O  O95  1  0.26573690  0.73423528  0.10094207  1  0  -0.659273  0  1.965098  0  0  -0.59744  0  2.197547  0  0  -0.624458  0  2.189234  0  0  -0.320539  -0.578625  0  2.202855  0
