# generated using pymatgen
data_CdH24C26N2O5
_symmetry_space_group_name_H-M   'P 1'
_cell_length_a   6.99924140
_cell_length_b   11.15133453
_cell_length_c   16.83500000
_cell_angle_alpha   104.44622376
_cell_angle_beta   90.00000000
_cell_angle_gamma   108.29043506
_symmetry_Int_Tables_number   1
_chemical_formula_structural   CdH24C26N2O5
_chemical_formula_sum   'Cd2 H48 C52 N4 O10'
_cell_volume   1203.76690284
_cell_formula_units_Z   2
loop_
 _symmetry_equiv_pos_site_id
 _symmetry_equiv_pos_as_xyz
  1  'x, y, z'
loop_
 _atom_site_type_symbol
 _atom_site_label
 _atom_site_symmetry_multiplicity
 _atom_site_fract_x
 _atom_site_fract_y
 _atom_site_fract_z
 _atom_site_occupancy
 _atom_site_hle17_bader_spin_density
 _atom_site_hle17_ddec_charge
 _atom_site_hle17_ddec_spin_density
 _atom_site_hle17_ddec_sum_bond_order
 _atom_site_hle17_magmom
 _atom_site_hse06_10hf_bader_spin_density
 _atom_site_hse06_10hf_ddec_charge
 _atom_site_hse06_10hf_ddec_spin_density
 _atom_site_hse06_10hf_ddec_sum_bond_order
 _atom_site_hse06_10hf_magmom
 _atom_site_hse06_bader_spin_density
 _atom_site_hse06_ddec_charge
 _atom_site_hse06_ddec_spin_density
 _atom_site_hse06_ddec_sum_bond_order
 _atom_site_hse06_magmom
 _atom_site_pbe_bader_charge
 _atom_site_pbe_bader_spin_density
 _atom_site_pbe_cm5_charge
 _atom_site_pbe_ddec_charge
 _atom_site_pbe_ddec_spin_density
 _atom_site_pbe_ddec_sum_bond_order
 _atom_site_pbe_magmom
Cd  Cd0  1  0.74602510  0.99977493  0.25020617  1  0  1.113336  0  1.639836  0  0  0.919104  0  2.078537  0  0  0.976861  0  2.028595  0  1.269375  0  0.768087  0.878204  0  2.112527  0
Cd  Cd1  1  0.25395572  0.00021927  0.74978735  1  0  1.113278  0  1.639804  0  0  0.919039  0  2.078507  0  0  0.976799  0  2.028568  0  1.268779  0  0.768033  0.878134  0  2.112499  0
H  H2  1  0.30648511  0.03522143  0.21572164  1  0  0.440436  0  0.838191  0  0  0.413228  0  0.894192  0  0  0.423773  0  0.878549  0  0.648843  0  0.296693  0.405661  0  0.905433  0
H  H3  1  0.27154224  0.96423439  0.28457733  1  0  0.440125  0  0.838115  0  0  0.413522  0  0.89311  0  0  0.423972  0  0.877583  0  0.636271  0  0.297393  0.406046  0  0.904204  0
H  H4  1  0.69348447  0.96478744  0.78428440  1  0  0.44031  0  0.838359  0  0  0.413132  0  0.894309  0  0  0.423675  0  0.878668  0  0.649551  0  0.296639  0.405566  0  0.905546  0
H  H5  1  0.72842478  0.03576078  0.71542110  1  0  0.440147  0  0.838017  0  0  0.413526  0  0.893055  0  0  0.423981  0  0.877518  0  0.636448  0  0.297363  0.40605  0  0.904151  0
H  H6  1  0.20112891  0.17236203  0.05591745  1  0  0.10556  0  0.938147  0  0  0.120583  0  0.99619  0  0  0.122306  0  0.99577  0  0.046119  0  0.097263  0.119472  0  0.996444  0
H  H7  1  0.02610411  0.82736689  0.44511866  1  0  0.106204  0  0.937308  0  0  0.121334  0  0.995499  0  0  0.123007  0  0.995101  0  0.088344  0  0.097335  0.120171  0  0.995796  0
H  H8  1  0.79894462  0.82769188  0.94411088  1  0  0.105677  0  0.937816  0  0  0.120591  0  0.995966  0  0  0.122301  0  0.995542  0  0.084458  0  0.097277  0.119482  0  0.996219  0
H  H9  1  0.97389271  0.17261359  0.55485656  1  0  0.106132  0  0.937331  0  0  0.121194  0  0.995514  0  0  0.122853  0  0.995122  0  0.088092  0  0.097306  0.120035  0  0.995806  0
H  H10  1  0.96344804  0.17832134  0.02220367  1  0  0.110138  0  0.914869  0  0  0.12657  0  0.967815  0  0  0.129296  0  0.966035  0  0.046089  0  0.099527  0.124656  0  0.969126  0
H  H11  1  0.78145270  0.82037684  0.47808474  1  0  0.110322  0  0.91473  0  0  0.126868  0  0.967802  0  0  0.129607  0  0.96592  0  0.041337  0  0.099803  0.124968  0  0.969133  0
H  H12  1  0.03662702  0.82170418  0.97780037  1  0  0.110253  0  0.914842  0  0  0.126756  0  0.967595  0  0  0.129491  0  0.965783  0  0.045923  0  0.099652  0.124834  0  0.968917  0
H  H13  1  0.21856240  0.17961735  0.52190818  1  0  0.11018  0  0.914741  0  0  0.12672  0  0.967762  0  0  0.129457  0  0.965872  0  0.041471  0  0.099764  0.12482  0  0.969094  0
H  H14  1  0.34010477  0.33835655  0.20857954  1  0  0.090723  0  0.98331  0  0  0.101727  0  1.045812  0  0  0.104299  0  1.045248  0  0.072254  0  0.096869  0.099887  0  1.046313  0
H  H15  1  0.00198676  0.66228173  0.29224687  1  0  0.090802  0  0.98218  0  0  0.101872  0  1.044671  0  0  0.10449  0  1.044042  0  0.083376  0  0.096858  0.099936  0  1.045239  0
H  H16  1  0.65986965  0.66169344  0.79146002  1  0  0.090728  0  0.983007  0  0  0.101675  0  1.045587  0  0  0.10425  0  1.045025  0  0.072789  0  0.096761  0.099832  0  1.046089  0
H  H17  1  0.99800104  0.33770071  0.70774174  1  0  0.09076  0  0.982579  0  0  0.101807  0  1.045068  0  0  0.104425  0  1.044442  0  0.083192  0  0.096819  0.09988  0  1.045628  0
H  H18  1  0.44579725  0.57505823  0.27944258  1  0  0.082868  0  0.989094  0  0  0.091816  0  1.053875  0  0  0.093445  0  1.055171  0  0.115642  0  0.094611  0.09065  0  1.053022  0
H  H19  1  0.87288059  0.42561529  0.22093941  1  0  0.08361  0  0.989351  0  0  0.092289  0  1.054418  0  0  0.093894  0  1.05578  0  0.07585  0  0.094342  0.091054  0  1.053683  0
H  H20  1  0.55414096  0.42499078  0.72059742  1  0  0.082691  0  0.989243  0  0  0.091903  0  1.05378  0  0  0.093532  0  1.055076  0  0.115685  0  0.094585  0.090732  0  1.05292  0
H  H21  1  0.12707386  0.57436618  0.77906092  1  0  0.083455  0  0.989274  0  0  0.092252  0  1.054258  0  0  0.093856  0  1.055623  0  0.075559  0  0.094285  0.091013  0  1.053521  0
H  H22  1  0.30966830  0.72351252  0.22591959  1  0  0.094619  0  0.948404  0  0  0.106109  0  1.008038  0  0  0.108992  0  1.006312  0  0.095615  0  0.10205  0.103996  0  1.009408  0
H  H23  1  0.58818226  0.27608328  0.27365348  1  0  0.094838  0  0.947801  0  0  0.106399  0  1.007474  0  0  0.109283  0  1.005736  0  0.089902  0  0.101976  0.104326  0  1.008808  0
H  H24  1  0.69031314  0.27652866  0.77409239  1  0  0.094375  0  0.948491  0  0  0.105835  0  1.008197  0  0  0.108731  0  1.006472  0  0.096128  0  0.101867  0.103719  0  1.00957  0
H  H25  1  0.41177214  0.72389525  0.72633983  1  0  0.094879  0  0.947725  0  0  0.106397  0  1.007409  0  0  0.109279  0  1.005682  0  0.089828  0  0.102006  0.104327  0  1.008737  0
H  H26  1  0.06752820  0.63222184  0.10115779  1  0  0.075119  0  0.977795  0  0  0.087485  0  1.038234  0  0  0.089586  0  1.037859  0  0.05754  0  0.095029  0.085967  0  1.038611  0
H  H27  1  0.43522629  0.36607304  0.39816407  1  0  0.074793  0  0.976941  0  0  0.087585  0  1.036907  0  0  0.089771  0  1.036439  0  0.066535  0  0.095145  0.085989  0  1.03739  0
H  H28  1  0.93252342  0.36779682  0.89883859  1  0  0.075182  0  0.9775  0  0  0.087493  0  1.038036  0  0  0.08959  0  1.037658  0  0.057693  0  0.095019  0.085988  0  1.038408  0
H  H29  1  0.56472142  0.63390353  0.60183366  1  0  0.074791  0  0.977148  0  0  0.087582  0  1.03709  0  0  0.089787  0  1.036595  0  0.066896  0  0.095154  0.085987  0  1.037575  0
H  H30  1  0.95695609  0.39408222  0.03158312  1  0  0.079476  0  0.982502  0  0  0.090525  0  1.049526  0  0  0.092825  0  1.049  0  0.040677  0  0.093216  0.088891  0  1.049956  0
H  H31  1  0.56078802  0.60404333  0.46816100  1  0  0.080344  0  0.984486  0  0  0.09102  0  1.051817  0  0  0.093314  0  1.051309  0  0.022217  0  0.09339  0.089402  0  1.052228  0
H  H32  1  0.04312337  0.60595211  0.96841049  1  0  0.079821  0  0.982461  0  0  0.090731  0  1.049572  0  0  0.093027  0  1.049037  0  0.039718  0  0.09331  0.089103  0  1.050005  0
H  H33  1  0.43920838  0.39594205  0.53182928  1  0  0.08037  0  0.98432  0  0  0.091086  0  1.051602  0  0  0.093382  0  1.0511  0  0.022175  0  0.09339  0.089474  0  1.051998  0
H  H34  1  0.51755448  0.87728301  0.06651892  1  0  0.088966  0  0.917409  0  0  0.09978  0  0.97367  0  0  0.102673  0  0.971036  0  0.108788  0  0.122976  0.097715  0  0.975501  0
H  H35  1  0.64032219  0.12276013  0.43389135  1  0  0.089299  0  0.917937  0  0  0.099957  0  0.974411  0  0  0.102876  0  0.971755  0  0.110568  0  0.123145  0.097794  0  0.97638  0
H  H36  1  0.48248025  0.12271901  0.93347351  1  0  0.089011  0  0.9174  0  0  0.099831  0  0.97366  0  0  0.102722  0  0.971029  0  0.108723  0  0.122957  0.097765  0  0.975492  0
H  H37  1  0.35966276  0.87718806  0.56609634  1  0  0.089337  0  0.918414  0  0  0.100011  0  0.974839  0  0  0.102924  0  0.972189  0  0.110152  0  0.123167  0.097855  0  0.976802  0
H  H38  1  0.39526026  0.66407795  0.96172575  1  0  0.107173  0  0.950659  0  0  0.120389  0  1.005967  0  0  0.123479  0  1.004864  0  0.072624  0  0.111959  0.118025  0  1.007142  0
H  H39  1  0.73120047  0.33609440  0.53845640  1  0  0.10695  0  0.951271  0  0  0.120208  0  1.006527  0  0  0.123356  0  1.005317  0  0.075884  0  0.112088  0.117892  0  1.007602  0
H  H40  1  0.60479538  0.33592016  0.03826663  1  0  0.107175  0  0.950634  0  0  0.120331  0  1.006  0  0  0.123447  0  1.00486  0  0.072352  0  0.111866  0.117965  0  1.007171  0
H  H41  1  0.26882877  0.66385379  0.46152061  1  0  0.106812  0  0.950827  0  0  0.120113  0  1.00608  0  0  0.12323  0  1.004918  0  0.075954  0  0.111994  0.117809  0  1.007137  0
H  H42  1  0.71235298  0.51356609  0.11387873  1  0  0.102122  0  0.972951  0  0  0.112214  0  1.035798  0  0  0.114798  0  1.035608  0  0.090233  0  0.108024  0.110241  0  1.03627  0
H  H43  1  0.19941636  0.48600426  0.38637738  1  0  0.101838  0  0.972013  0  0  0.111187  0  1.036178  0  0  0.113798  0  1.035876  0  0.106895  0  0.107431  0.109378  0  1.036373  0
H  H44  1  0.28765223  0.48643691  0.88613346  1  0  0.102094  0  0.97295  0  0  0.112187  0  1.035819  0  0  0.114771  0  1.035629  0  0.090377  0  0.108053  0.110243  0  1.036258  0
H  H45  1  0.80058359  0.51399679  0.61361133  1  0  0.101725  0  0.972496  0  0  0.111149  0  1.036542  0  0  0.113737  0  1.036297  0  0.107098  0  0.107439  0.109339  0  1.036735  0
H  H46  1  0.83082324  0.73523342  0.20831203  1  0  0.080888  0  0.975014  0  0  0.08746  0  1.042164  0  0  0.089491  0  1.040918  0  0.147212  0  0.115398  0.085962  0  1.043025  0
H  H47  1  0.09622695  0.26413528  0.29215490  1  0  0.08098  0  0.974992  0  0  0.087313  0  1.042376  0  0  0.089368  0  1.041074  0  0.125896  0  0.115581  0.085755  0  1.043415  0
H  H48  1  0.16917055  0.26476958  0.79170314  1  0  0.080848  0  0.974875  0  0  0.087531  0  1.041949  0  0  0.089562  0  1.040704  0  0.147362  0  0.115409  0.08603  0  1.042808  0
H  H49  1  0.90374521  0.73585304  0.70783349  1  0  0.080678  0  0.974767  0  0  0.087162  0  1.041999  0  0  0.089215  0  1.040718  0  0.126329  0  0.115442  0.085606  0  1.043009  0
C  C50  1  0.97047958  0.12874391  0.13827547  1  0  0.687244  0  3.881582  0  0  0.646009  0  4.178183  0  0  0.678759  0  4.173091  0  1.562555  0  0.191157  0.623834  0  4.180615  0
C  C51  1  0.83977649  0.87060227  0.36226912  1  0  0.686317  0  3.879594  0  0  0.644927  0  4.176584  0  0  0.677573  0  4.17152  0  1.566792  0  0.189643  0.622968  0  4.178693  0
C  C52  1  0.02953482  0.87126888  0.86172231  1  0  0.687388  0  3.881919  0  0  0.646245  0  4.178275  0  0  0.678982  0  4.173187  0  1.562129  0  0.191221  0.624068  0  4.180712  0
C  C53  1  0.16019746  0.12937822  0.63771857  1  0  0.686111  0  3.880129  0  0  0.644681  0  4.1771  0  0  0.677323  0  4.172034  0  1.566545  0  0.189526  0.62272  0  4.179211  0
C  C54  1  0.07063750  0.20315900  0.07603181  1  0  -0.295342  0  3.685663  0  0  -0.338728  0  3.925738  0  0  -0.344043  0  3.932897  0  -0.022794  0  -0.16309  -0.335111  0  3.920801  0
C  C55  1  0.86500198  0.79612356  0.42454265  1  0  -0.296  0  3.685115  0  0  -0.339897  0  3.926101  0  0  -0.345048  0  3.932959  0  -0.031773  0  -0.163196  -0.336221  0  3.921147  0
C  C56  1  0.92942775  0.79688120  0.92397584  1  0  -0.295954  0  3.685975  0  0  -0.3392  0  3.926  0  0  -0.344469  0  3.933064  0  -0.061481  0  -0.163349  -0.335576  0  3.921077  0
C  C57  1  0.13498998  0.20385008  0.57544746  1  0  -0.295618  0  3.685258  0  0  -0.33927  0  3.925855  0  0  -0.344394  0  3.932686  0  -0.031626  0  -0.162994  -0.335601  0  3.920911  0
C  C58  1  0.13833271  0.34883430  0.11597951  1  0  0.118774  0  3.749256  0  0  0.139975  0  3.984859  0  0  0.141017  0  4.00928  0  -0.02486  0  -0.010112  0.139223  0  3.968356  0
C  C59  1  0.78836124  0.65053342  0.38434173  1  0  0.117952  0  3.750821  0  0  0.139377  0  3.986227  0  0  0.140357  0  4.010679  0  -0.02563  0  -0.010789  0.138544  0  3.969768  0
C  C60  1  0.86169878  0.65120982  0.88404602  1  0  0.118975  0  3.74916  0  0  0.139972  0  3.984937  0  0  0.140997  0  4.009355  0  -0.024635  0  -0.010116  0.13922  0  3.968433  0
C  C61  1  0.21160023  0.34943923  0.61565476  1  0  0.117879  0  3.751106  0  0  0.139268  0  3.9864  0  0  0.140245  0  4.010853  0  -0.027184  0  -0.01091  0.138437  0  3.969941  0
C  C62  1  0.27719889  0.40229879  0.18570240  1  0  -0.138899  0  3.73105  0  0  -0.157745  0  3.975645  0  0  -0.162136  0  3.99818  0  -0.017721  0  -0.099685  -0.154673  0  3.960325  0
C  C63  1  0.87503913  0.59774826  0.31478812  1  0  -0.13717  0  3.730167  0  0  -0.155833  0  3.974078  0  0  -0.160244  0  3.996634  0  -0.103983  0  -0.098768  -0.152788  0  3.958731  0
C  C64  1  0.72278582  0.59773750  0.81433431  1  0  -0.138521  0  3.730215  0  0  -0.157269  0  3.974908  0  0  -0.161667  0  3.997455  0  -0.01772  0  -0.099323  -0.154197  0  3.959585  0
C  C65  1  0.12492218  0.40221265  0.68520465  1  0  -0.137417  0  3.730728  0  0  -0.156073  0  3.974622  0  0  -0.160475  0  3.997151  0  -0.102408  0  -0.098889  -0.153039  0  3.959273  0
C  C66  1  0.33650705  0.53547205  0.22569347  1  0  -0.061641  0  3.772275  0  0  -0.071014  0  4.016281  0  0  -0.071867  0  4.03833  0  -0.091535  0  -0.092733  -0.070273  0  4.001174  0
C  C67  1  0.80228450  0.46466212  0.27452276  1  0  -0.064215  0  3.775816  0  0  -0.073523  0  4.020033  0  0  -0.0744  0  4.042162  0  -0.097991  0  -0.09333  -0.0727  0  4.004875  0
C  C68  1  0.66345766  0.46456423  0.77433433  1  0  -0.061734  0  3.772752  0  0  -0.071355  0  4.016714  0  0  -0.072209  0  4.038775  0  -0.091443  0  -0.092746  -0.070601  0  4.001589  0
C  C69  1  0.19768690  0.53530467  0.72546563  1  0  -0.063679  0  3.774974  0  0  -0.073064  0  4.019097  0  0  -0.073934  0  4.041226  0  -0.097227  0  -0.093066  -0.072235  0  4.003943  0
C  C70  1  0.26043980  0.61891910  0.19575075  1  0  -0.078475  0  3.77335  0  0  -0.09229  0  4.018154  0  0  -0.094623  0  4.039009  0  -0.137522  0  -0.095033  -0.09062  0  4.003878  0
C  C71  1  0.64271475  0.38061209  0.30403735  1  0  -0.078104  0  3.775528  0  0  -0.092056  0  4.020317  0  0  -0.094411  0  4.041247  0  -0.023947  0  -0.095068  -0.090414  0  4.005931  0
C  C72  1  0.73954883  0.38112501  0.80426467  1  0  -0.078124  0  3.773601  0  0  -0.091871  0  4.018354  0  0  -0.094222  0  4.039232  0  -0.137532  0  -0.095019  -0.090203  0  4.004079  0
C  C73  1  0.35725676  0.61936351  0.69595071  1  0  -0.07834  0  3.775933  0  0  -0.092296  0  4.020845  0  0  -0.094645  0  4.041748  0  -0.024199  0  -0.095073  -0.090652  0  4.006459  0
C  C74  1  0.12536565  0.56741234  0.12549661  1  0  -0.079662  0  3.810839  0  0  -0.090794  0  4.060219  0  0  -0.092142  0  4.082344  0  -0.058602  0  -0.098258  -0.089676  0  4.044998  0
C  C75  1  0.55800161  0.43143757  0.37414506  1  0  -0.077959  0  3.811762  0  0  -0.088979  0  4.060327  0  0  -0.090399  0  4.082433  0  -0.137352  0  -0.097768  -0.087923  0  4.045205  0
C  C76  1  0.87465670  0.43262493  0.87450521  1  0  -0.080057  0  3.810645  0  0  -0.091167  0  4.060067  0  0  -0.092509  0  4.08219  0  -0.058366  0  -0.098313  -0.090065  0  4.044864  0
C  C77  1  0.44197638  0.56855956  0.62585725  1  0  -0.077727  0  3.812275  0  0  -0.08876  0  4.060795  0  0  -0.090188  0  4.0829  0  -0.136926  0  -0.097835  -0.087711  0  4.04568  0
C  C78  1  0.06336635  0.43343445  0.08633783  1  0  -0.146124  0  3.755675  0  0  -0.166858  0  4.006889  0  0  -0.170349  0  4.028323  0  -0.055845  0  -0.10253  -0.164438  0  3.99238  0
C  C79  1  0.62879864  0.56531757  0.41356982  1  0  -0.148374  0  3.759726  0  0  -0.169207  0  4.01101  0  0  -0.172705  0  4.032492  0  0.012701  0  -0.102916  -0.166696  0  3.996487  0
C  C80  1  0.93668461  0.56660575  0.91367517  1  0  -0.146333  0  3.755569  0  0  -0.166923  0  4.006843  0  0  -0.170402  0  4.028268  0  -0.056061  0  -0.102536  -0.164515  0  3.992351  0
C  C81  1  0.37119123  0.43467760  0.58643574  1  0  -0.148569  0  3.759224  0  0  -0.16947  0  4.010624  0  0  -0.172982  0  4.032124  0  0.012088  0  -0.102902  -0.166957  0  3.9961  0
C  C82  1  0.55730398  0.79330542  0.07384649  1  0  0.126754  0  3.71822  0  0  0.094196  0  3.974627  0  0  0.101049  0  3.993162  0  0.464751  0  0.050805  0.089672  0  3.962028  0
C  C83  1  0.76417056  0.20660655  0.42649756  1  0  0.126338  0  3.719197  0  0  0.093804  0  3.97562  0  0  0.100646  0  3.994197  0  0.460679  0  0.050381  0.089238  0  3.963056  0
C  C84  1  0.44272597  0.20669563  0.92615350  1  0  0.126789  0  3.717908  0  0  0.094178  0  3.974319  0  0  0.10103  0  3.992857  0  0.466167  0  0.050879  0.089654  0  3.96172  0
C  C85  1  0.23586124  0.79338960  0.57348915  1  0  0.126553  0  3.719791  0  0  0.093959  0  3.97624  0  0  0.100797  0  3.994809  0  0.461581  0  0.050404  0.089388  0  3.963692  0
C  C86  1  0.48874542  0.67289456  0.01590854  1  0  -0.144923  0  3.69364  0  0  -0.164032  0  3.944245  0  0  -0.171064  0  3.964977  0  0.009948  0  -0.073267  -0.159466  0  3.930425  0
C  C87  1  0.81592272  0.32713683  0.48431209  1  0  -0.144799  0  3.694525  0  0  -0.163509  0  3.945277  0  0  -0.170539  0  3.965951  0  0.006032  0  -0.073415  -0.158969  0  3.931673  0
C  C88  1  0.51130789  0.32710746  0.98409102  1  0  -0.144922  0  3.693578  0  0  -0.163892  0  3.944204  0  0  -0.17094  0  3.964926  0  0.008368  0  -0.073167  -0.159319  0  3.930377  0
C  C89  1  0.18409050  0.67285932  0.51568947  1  0  -0.144888  0  3.69345  0  0  -0.163574  0  3.944154  0  0  -0.170589  0  3.964846  0  0.005703  0  -0.073417  -0.159041  0  3.930544  0
C  C90  1  0.53889115  0.56597928  0.02861174  1  0  0.09862  0  3.741704  0  0  0.110024  0  3.969171  0  0  0.113908  0  3.990755  0  -0.03636  0  0.018676  0.107618  0  3.95429  0
C  C91  1  0.97303409  0.43390136  0.47150913  1  0  0.09797  0  3.74173  0  0  0.108784  0  3.970846  0  0  0.112544  0  3.992779  0  -0.003147  0  0.018242  0.106327  0  3.956074  0
C  C92  1  0.46112293  0.43401002  0.97139522  1  0  0.098792  0  3.741556  0  0  0.109966  0  3.969237  0  0  0.113847  0  3.99083  0  0.000144  0  0.018595  0.107555  0  3.954374  0
C  C93  1  0.02692547  0.56607032  0.52849254  1  0  0.098082  0  3.741728  0  0  0.108877  0  3.970843  0  0  0.112676  0  3.992658  0  -0.038382  0  0.018334  0.106424  0  3.956061  0
C  C94  1  0.66573755  0.59016404  0.09902698  1  0  -0.143702  0  3.706622  0  0  -0.163006  0  3.953626  0  0  -0.170187  0  3.975125  0  -0.018555  0  -0.075601  -0.158295  0  3.939295  0
C  C95  1  0.07600126  0.40946210  0.40120747  1  0  -0.142103  0  3.704049  0  0  -0.160984  0  3.951986  0  0  -0.168139  0  3.973466  0  0.00344  0  -0.074894  -0.156389  0  3.937721  0
C  C96  1  0.33428289  0.40983799  0.90097852  1  0  -0.143789  0  3.706148  0  0  -0.163043  0  3.95329  0  0  -0.170221  0  3.974783  0  -0.01939  0  -0.075643  -0.158355  0  3.938949  0
C  C97  1  0.92396381  0.59049489  0.59877455  1  0  -0.141664  0  3.704686  0  0  -0.160639  0  3.952545  0  0  -0.167791  0  3.974015  0  0.003567  0  -0.074748  -0.156045  0  3.938277  0
C  C98  1  0.73178408  0.71401168  0.15316160  1  0  0.134315  0  3.706762  0  0  0.10401  0  3.95658  0  0  0.111356  0  3.974619  0  0.481816  0  0.050711  0.099191  0  3.944339  0
C  C99  1  0.01827181  0.28550679  0.34721603  1  0  0.133555  0  3.707292  0  0  0.103676  0  3.956835  0  0  0.111029  0  3.974897  0  0.478299  0  0.050597  0.098813  0  3.94486  0
C  C100  1  0.26822580  0.28598349  0.84684871  1  0  0.13436  0  3.706489  0  0  0.103904  0  3.956384  0  0  0.111249  0  3.974422  0  0.481186  0  0.050702  0.099088  0  3.944147  0
C  C101  1  0.98173497  0.71447077  0.65275573  1  0  0.133644  0  3.706851  0  0  0.103743  0  3.956274  0  0  0.11108  0  3.974356  0  0.47781  0  0.050726  0.098895  0  3.94429  0
N  N102  1  0.67545454  0.81352284  0.14207599  1  0  -0.329556  0  3.279957  0  0  -0.251305  0  3.544109  0  0  -0.271825  0  3.564125  0  -1.236355  0  -0.330305  -0.237332  0  3.530344  0
N  N103  1  0.86221643  0.18615224  0.35831267  1  0  -0.329011  0  3.280001  0  0  -0.25066  0  3.543812  0  0  -0.271228  0  3.563897  0  -1.244011  0  -0.329715  -0.236827  0  3.530148  0
N  N104  1  0.32456301  0.18647624  0.85792546  1  0  -0.329495  0  3.279755  0  0  -0.251192  0  3.543948  0  0  -0.27171  0  3.563959  0  -1.235694  0  -0.330234  -0.237219  0  3.530179  0
N  N105  1  0.13780133  0.81382727  0.64166535  1  0  -0.329142  0  3.280149  0  0  -0.250821  0  3.543943  0  0  -0.271383  0  3.564042  0  -1.243349  0  -0.329689  -0.236992  0  3.530279  0
O  O106  1  0.37663086  0.99978080  0.25008834  1  0  -0.846114  0  1.744395  0  0  -0.791536  0  1.900803  0  0  -0.810469  0  1.867106  0  -1.269248  0  -0.591463  -0.778039  0  1.924502  0
O  O107  1  0.62334109  0.00022710  0.74991576  1  0  -0.845975  0  1.744531  0  0  -0.791392  0  1.900888  0  0  -0.810331  0  1.867192  0  -1.270067  0  -0.591344  -0.777896  0  1.924587  0
O  O108  1  0.78538573  0.11775814  0.14886817  1  0  -0.658592  0  1.887504  0  0  -0.597391  0  2.114213  0  0  -0.626619  0  2.105507  0  -1.171363  0  -0.352004  -0.576724  0  2.119198  0
O  O109  1  0.66595674  0.88201581  0.35169126  1  0  -0.658127  0  1.887567  0  0  -0.59656  0  2.114026  0  0  -0.625778  0  2.105393  0  -1.165703  0  -0.350946  -0.57599  0  2.118902  0
O  O110  1  0.21463243  0.88225074  0.85112480  1  0  -0.658618  0  1.887477  0  0  -0.597444  0  2.114105  0  0  -0.626678  0  2.105406  0  -1.170827  0  -0.352067  -0.576774  0  2.119092  0
O  O111  1  0.33401293  0.11796468  0.64830177  1  0  -0.657952  0  1.887772  0  0  -0.596449  0  2.114296  0  0  -0.625669  0  2.105664  0  -1.166091  0  -0.350965  -0.575878  0  2.119173  0
O  O112  1  0.07609408  0.08659703  0.17908865  1  0  -0.680382  0  1.922305  0  0  -0.622667  0  2.147316  0  0  -0.649278  0  2.136408  0  -1.20075  0  -0.340633  -0.603948  0  2.154215  0
O  O113  1  0.98764774  0.91228811  0.32138391  1  0  -0.680341  0  1.920061  0  0  -0.622929  0  2.145295  0  0  -0.649486  0  2.134384  0  -1.20647  0  -0.34103  -0.604143  0  2.152049  0
O  O114  1  0.92391983  0.91341478  0.82091787  1  0  -0.680236  0  1.922502  0  0  -0.62262  0  2.147497  0  0  -0.649231  0  2.136598  0  -1.201054  0  -0.340537  -0.603902  0  2.154396  0
O  O115  1  0.01232340  0.08769531  0.67860011  1  0  -0.680282  0  1.920134  0  0  -0.622865  0  2.145374  0  0  -0.649424  0  2.134465  0  -1.205942  0  -0.340915  -0.604076  0  2.152128  0
