# generated using pymatgen
data_Zn4H24C42N6O13
_symmetry_space_group_name_H-M   'P 1'
_cell_length_a   26.60724323
_cell_length_b   27.34657084
_cell_length_c   27.08701864
_cell_angle_alpha   89.98833897
_cell_angle_beta   60.83483252
_cell_angle_gamma   60.70853120
_symmetry_Int_Tables_number   1
_chemical_formula_structural   Zn4H24C42N6O13
_chemical_formula_sum   'Zn8 H48 C84 N12 O26'
_cell_volume   14256.54233868
_cell_formula_units_Z   2
loop_
 _symmetry_equiv_pos_site_id
 _symmetry_equiv_pos_as_xyz
  1  'x, y, z'
loop_
 _atom_site_type_symbol
 _atom_site_label
 _atom_site_symmetry_multiplicity
 _atom_site_fract_x
 _atom_site_fract_y
 _atom_site_fract_z
 _atom_site_occupancy
 _atom_site_pbe_bader_charge
 _atom_site_pbe_bader_spin_density
 _atom_site_pbe_cm5_charge
 _atom_site_pbe_ddec_charge
 _atom_site_pbe_ddec_spin_density
 _atom_site_pbe_ddec_sum_bond_order
 _atom_site_pbe_magmom
Zn  Zn0  1  0.08789116  0.89341973  0.94633362  1  1.317752  0  0.672401  0.971019  0  2.34437  0
Zn  Zn1  1  0.08681139  0.01332096  0.94652194  1  1.308834  0  0.672556  0.970588  0  2.34887  0
Zn  Zn2  1  0.96927414  0.00985038  0.06132524  1  1.306524  0  0.671353  0.961141  0  2.397591  0
Zn  Zn3  1  0.96964169  0.00867239  0.94554996  1  1.321868  0  0.67016  0.955862  0  2.415066  0
Zn  Zn4  1  0.96979709  0.56870541  0.50289562  1  1.328767  0  0.672297  0.970211  0  2.344047  0
Zn  Zn5  1  0.97054214  0.44929049  0.50340560  1  1.316032  0  0.672332  0.968992  0  2.350427  0
Zn  Zn6  1  0.08748003  0.45390508  0.50550035  1  1.314252  0  0.669995  0.956175  0  2.411874  0
Zn  Zn7  1  0.08997969  0.45136617  0.38896787  1  1.311318  0  0.671083  0.959831  0  2.401756  0
H  H8  1  0.30379997  0.77411176  0.85040367  1  0.109943  0  0.109535  0.115768  0  0.988146  0
H  H9  1  0.43436645  0.71339481  0.78454164  1  0.090396  0  0.107318  0.108497  0  1.012177  0
H  H10  1  0.62313632  0.74941133  0.66505682  1  0.08759  0  0.107748  0.108643  0  1.013324  0
H  H11  1  0.75365130  0.68843492  0.59827908  1  0.097275  0  0.109552  0.115834  0  0.989651  0
H  H12  1  0.75918886  0.53198748  0.62791682  1  0.086303  0  0.109978  0.116393  0  0.988907  0
H  H13  1  0.62839189  0.59338366  0.69613998  1  0.079944  0  0.109645  0.112637  0  0.99019  0
H  H14  1  0.42906894  0.87004689  0.75640780  1  0.083011  0  0.109342  0.11179  0  0.990958  0
H  H15  1  0.29822475  0.93116736  0.82382248  1  0.104284  0  0.109534  0.11581  0  0.989668  0
H  H16  1  0.08732578  0.77097452  0.04242815  1  0.121674  0  0.109561  0.115836  0  0.987058  0
H  H17  1  0.08250676  0.71089050  0.11287333  1  0.096428  0  0.107772  0.109177  0  1.012377  0
H  H18  1  0.98395919  0.74783217  0.33338432  1  0.111315  0  0.107424  0.108645  0  1.012824  0
H  H19  1  0.97777202  0.68855532  0.40457016  1  0.109823  0  0.109456  0.115087  0  0.986873  0
H  H20  1  0.08477469  0.53353002  0.26196635  1  0.086907  0  0.109506  0.1159  0  0.989754  0
H  H21  1  0.08855952  0.59350258  0.19111799  1  0.074264  0  0.109706  0.112635  0  0.990973  0
H  H22  1  0.97218283  0.86576873  0.25699603  1  0.07044  0  0.109776  0.112284  0  0.990341  0
H  H23  1  0.97456192  0.92648724  0.18686545  1  0.109817  0  0.109767  0.116173  0  0.989177  0
H  H24  1  0.11158542  0.77179359  0.82582813  1  0.084689  0  0.109721  0.115134  0  0.988422  0
H  H25  1  0.10577258  0.71353871  0.75926189  1  0.091607  0  0.107715  0.108718  0  1.014906  0
H  H26  1  0.94677734  0.75180261  0.69160790  1  0.092418  0  0.10765  0.108271  0  1.01378  0
H  H27  1  0.94295749  0.69257769  0.62399814  1  0.085914  0  0.109515  0.114878  0  0.988063  0
H  H28  1  0.13239386  0.53743283  0.58581784  1  0.117187  0  0.109855  0.116847  0  0.990098  0
H  H29  1  0.13692734  0.59710905  0.65265736  1  0.103098  0  0.109515  0.111285  0  0.990925  0
H  H30  1  0.91222519  0.86808302  0.80416183  1  0.067599  0  0.11001  0.113025  0  0.991  0
H  H31  1  0.91866636  0.92681051  0.87003121  1  0.091  0  0.109831  0.116809  0  0.989798  0
H  H32  1  0.11720814  0.10777639  0.04300752  1  0.120531  0  0.109416  0.11516  0  0.987321  0
H  H33  1  0.11233345  0.17114109  0.11467137  1  0.087087  0  0.107388  0.108382  0  1.012932  0
H  H34  1  0.95107174  0.28588473  0.33494544  1  0.099523  0  0.1076  0.108674  0  1.013653  0
H  H35  1  0.94482634  0.35030379  0.40685033  1  0.109516  0  0.109317  0.115047  0  0.988146  0
H  H36  1  0.13645291  0.32339458  0.26590461  1  0.101151  0  0.110052  0.117635  0  0.989594  0
H  H37  1  0.14354288  0.25766955  0.19415009  1  0.077781  0  0.109832  0.111807  0  0.991137  0
H  H38  1  0.91705727  0.20380510  0.25514446  1  0.10713  0  0.110038  0.112662  0  0.990959  0
H  H39  1  0.92287720  0.13890178  0.18372986  1  0.092788  0  0.1098  0.116958  0  0.990384  0
H  H40  1  0.08916139  0.13224711  0.84778195  1  0.076455  0  0.109741  0.11534  0  0.988647  0
H  H41  1  0.08184425  0.19869866  0.78375148  1  0.109895  0  0.107399  0.108279  0  1.013644  0
H  H42  1  0.97191097  0.26545097  0.66768217  1  0.091175  0  0.107606  0.108561  0  1.013964  0
H  H43  1  0.96697996  0.33059123  0.60220657  1  0.099666  0  0.109709  0.116128  0  0.987645  0
H  H44  1  0.08743634  0.37236418  0.63307859  1  0.097747  0  0.110002  0.116842  0  0.989554  0
H  H45  1  0.09107160  0.30807152  0.69976328  1  0.084053  0  0.110036  0.112773  0  0.990324  0
H  H46  1  0.95861712  0.15859430  0.75578200  1  0.085919  0  0.109811  0.112204  0  0.989317  0
H  H47  1  0.96492626  0.09276283  0.82081512  1  0.114686  0  0.109518  0.116042  0  0.990534  0
H  H48  1  0.75319972  0.10213416  0.18351079  1  0.091843  0  0.109913  0.1161  0  0.988385  0
H  H49  1  0.62250734  0.16869181  0.24443565  1  0.094588  0  0.107782  0.108551  0  1.015002  0
H  H50  1  0.43620845  0.28966608  0.20712477  1  0.120174  0  0.107696  0.108421  0  1.015504  0
H  H51  1  0.30559931  0.35676772  0.26785964  1  0.101459  0  0.109681  0.115618  0  0.987474  0
H  H52  1  0.29846764  0.32964682  0.42682327  1  0.106003  0  0.110212  0.11707  0  0.988019  0
H  H53  1  0.42945453  0.26182630  0.36574476  1  0.085878  0  0.110076  0.112634  0  0.990074  0
H  H54  1  0.62901363  0.20264640  0.08725476  1  0.074746  0  0.109957  0.112441  0  0.991889  0
H  H55  1  0.76004647  0.13540399  0.02602110  1  0.074431  0  0.109801  0.115905  0  0.989938  0
C  C56  1  0.21606485  0.89235829  0.88103001  1  1.555628  0  0.228468  0.605075  0  4.16761  0
C  C57  1  0.29364145  0.85614794  0.84108064  1  -0.074446  0  -0.013137  -0.033658  0  3.954974  0
C  C58  1  0.33188819  0.79461614  0.82980756  1  -0.02295  0  -0.078484  -0.079455  0  3.967916  0
C  C59  1  0.40388362  0.76098229  0.79342958  1  0.019466  0  -0.080425  -0.137165  0  3.941219  0
C  C60  1  0.43883009  0.78863030  0.76711288  1  0.324221  0  0.090042  0.174  0  4.03402  0
C  C61  1  0.61866147  0.67450227  0.68403233  1  0.329989  0  0.090043  0.175924  0  4.034728  0
C  C62  1  0.65361487  0.70190791  0.65665116  1  -0.003216  0  -0.080825  -0.137488  0  3.943806  0
C  C63  1  0.72558693  0.66812212  0.61977175  1  -0.006642  0  -0.078128  -0.079295  0  3.97047  0
C  C64  1  0.76381605  0.60667713  0.60904714  1  -0.062076  0  -0.013349  -0.033601  0  3.954999  0
C  C65  1  0.72891263  0.57952765  0.63647977  1  0.002615  0  -0.079367  -0.08077  0  3.970513  0
C  C66  1  0.65680078  0.61331246  0.67402946  1  -0.00424  0  -0.077865  -0.140466  0  3.954683  0
C  C67  1  0.84135203  0.57029076  0.56842115  1  1.542536  0  0.227794  0.603401  0  4.167076  0
C  C68  1  0.40066732  0.84992850  0.77771647  1  -0.036842  0  -0.077797  -0.139219  0  3.953988  0
C  C69  1  0.32853906  0.88356001  0.81479500  1  0.016414  0  -0.079047  -0.080183  0  3.970012  0
C  C70  1  0.03157525  0.88875258  0.06970649  1  1.564634  0  0.227413  0.603083  0  4.165906  0
C  C71  1  0.03084118  0.85225815  0.11077629  1  -0.011101  0  -0.01335  -0.033121  0  3.954137  0
C  C72  1  0.06189844  0.79129627  0.08957915  1  -0.083521  0  -0.077296  -0.079023  0  3.964978  0
C  C73  1  0.05946903  0.75797638  0.12828284  1  0.014075  0  -0.080518  -0.137885  0  3.940677  0
C  C74  1  0.02652603  0.78532596  0.18899161  1  0.32192  0  0.090929  0.175373  0  4.036209  0
C  C75  1  0.03703807  0.67366226  0.25818623  1  0.406485  0  0.090768  0.175918  0  4.034074  0
C  C76  1  0.00542915  0.70104443  0.31855599  1  -0.083615  0  -0.080434  -0.138829  0  3.939706  0
C  C77  1  0.00221017  0.66818031  0.35766745  1  -0.010174  0  -0.07687  -0.076397  0  3.963221  0
C  C78  1  0.03119057  0.60758503  0.33718843  1  -0.033175  0  -0.013116  -0.033808  0  3.955296  0
C  C79  1  0.06265607  0.58044031  0.27706590  1  -0.0417  0  -0.079305  -0.079827  0  3.969492  0
C  C80  1  0.06498536  0.61341118  0.23792917  1  -0.052097  0  -0.077394  -0.140134  0  3.956562  0
C  C81  1  0.02928664  0.57165685  0.37878775  1  1.572978  0  0.228086  0.604447  0  4.167093  0
C  C82  1  0.99670574  0.84592373  0.20993722  1  -0.051048  0  -0.078239  -0.139527  0  3.956261  0
C  C83  1  0.99826646  0.87929970  0.17120452  1  -0.017292  0  -0.078652  -0.079637  0  3.969064  0
C  C84  1  0.01970466  0.88823690  0.88936278  1  1.55866  0  0.227514  0.603342  0  4.16725  0
C  C85  1  0.01547497  0.85266265  0.85156038  1  0.010361  0  -0.013206  -0.033278  0  3.95735  0
C  C86  1  0.06824488  0.79236245  0.82068703  1  -0.071137  0  -0.077599  -0.076784  0  3.968257  0
C  C87  1  0.06521099  0.76009418  0.78399015  1  0.026608  0  -0.080851  -0.139124  0  3.943823  0
C  C88  1  0.00864107  0.78789413  0.77806100  1  0.308068  0  0.090874  0.175964  0  4.037497  0
C  C89  1  0.04210154  0.67737004  0.67586245  1  0.354395  0  0.091061  0.174005  0  4.038238  0
C  C90  1  0.98701813  0.70498584  0.66799474  1  0.004262  0  -0.080326  -0.136776  0  3.940434  0
C  C91  1  0.98507965  0.67218349  0.63072280  1  -0.019914  0  -0.077239  -0.077224  0  3.966599  0
C  C92  1  0.03743695  0.61160469  0.60124905  1  -0.07585  0  -0.013253  -0.033571  0  3.957381  0
C  C93  1  0.09234472  0.58433459  0.60901005  1  0.00397  0  -0.078999  -0.080905  0  3.970875  0
C  C94  1  0.09483365  0.61711166  0.64587514  1  -0.070902  0  -0.077119  -0.13652  0  3.956826  0
C  C95  1  0.03460474  0.57546724  0.56262079  1  1.567995  0  0.226962  0.601363  0  4.169228  0
C  C96  1  0.95548087  0.84784911  0.80944925  1  0.003722  0  -0.077755  -0.139727  0  3.957491  0
C  C97  1  0.95902825  0.88012577  0.84580053  1  -0.016588  0  -0.079172  -0.081245  0  3.969061  0
C  C98  1  0.02384324  0.08014467  0.06801462  1  1.569205  0  0.227134  0.601875  0  4.169428  0
C  C99  1  0.02045293  0.11947108  0.10944214  1  -0.028594  0  -0.012877  -0.031793  0  3.954014  0
C  C100  1  0.07379028  0.12884407  0.08961268  1  -0.029988  0  -0.077414  -0.078699  0  3.963561  0
C  C101  1  0.07124165  0.16383576  0.12899690  1  -0.000632  0  -0.079813  -0.136753  0  3.939443  0
C  C102  1  0.01443431  0.19059611  0.18900501  1  0.361079  0  0.090536  0.175325  0  4.035528  0
C  C103  1  0.04754811  0.26868694  0.26042446  1  0.371456  0  0.091049  0.176619  0  4.035656  0
C  C104  1  0.99123937  0.29439520  0.32061267  1  -0.001259  0  -0.080996  -0.139053  0  3.941527  0
C  C105  1  0.98794181  0.32994419  0.36013217  1  -0.037182  0  -0.076607  -0.076478  0  3.96691  0
C  C106  1  0.04009506  0.34082815  0.34030327  1  -0.054739  0  -0.013615  -0.034138  0  3.956619  0
C  C107  1  0.09640982  0.31470623  0.28046321  1  -0.031664  0  -0.079608  -0.082316  0  3.969826  0
C  C108  1  0.10033065  0.27855960  0.24085838  1  -0.033931  0  -0.078075  -0.138717  0  3.956889  0
C  C109  1  0.03567176  0.38091297  0.38190170  1  1.544391  0  0.227825  0.603592  0  4.166119  0
C  C110  1  0.96059073  0.18212733  0.20858230  1  -0.056621  0  -0.077684  -0.138687  0  3.957763  0
C  C111  1  0.96379737  0.14647099  0.16915560  1  -0.055535  0  -0.079578  -0.082249  0  3.973357  0
C  C112  1  0.02991717  0.07057329  0.87712299  1  1.506276  0  0.22716  0.602967  0  4.164079  0
C  C113  1  0.02720503  0.10894400  0.83803460  1  -0.019743  0  -0.013289  -0.034204  0  3.954948  0
C  C114  1  0.06058102  0.13853106  0.82752771  1  0.012593  0  -0.0769  -0.075742  0  3.966493  0
C  C115  1  0.05670118  0.17516022  0.79226062  1  -0.047223  0  -0.081225  -0.138968  0  3.942702  0
C  C116  1  0.01939747  0.18240933  0.76662866  1  0.360965  0  0.091538  0.175952  0  4.037987  0
C  C117  1  0.03219007  0.28310412  0.68696274  1  0.371301  0  0.091506  0.176682  0  4.038617  0
C  C118  1  0.99665201  0.28928335  0.65980598  1  -0.019732  0  -0.080652  -0.138282  0  3.942271  0
C  C119  1  0.99411489  0.32515734  0.62371180  1  0.002152  0  -0.077728  -0.078383  0  3.964983  0
C  C120  1  0.02719009  0.35493650  0.61384933  1  -0.015624  0  -0.013331  -0.033508  0  3.957373  0
C  C121  1  0.06221810  0.34893819  0.64119174  1  -0.009271  0  -0.078982  -0.08047  0  3.972162  0
C  C122  1  0.06437368  0.31345856  0.67782072  1  -0.084748  0  -0.077873  -0.140089  0  3.958409  0
C  C123  1  0.02608530  0.39236335  0.57378829  1  1.508191  0  0.227391  0.60331  0  4.166167  0
C  C124  1  0.98674237  0.15238502  0.77650439  1  -0.067336  0  -0.077923  -0.138979  0  3.953644  0
C  C125  1  0.99035964  0.11604960  0.81223971  1  -0.005453  0  -0.078988  -0.080495  0  3.968097  0
C  C126  1  0.84104929  0.07511862  0.06506873  1  1.519053  0  0.226636  0.599635  0  4.173905  0
C  C127  1  0.76374587  0.11503714  0.10136580  1  0.008786  0  -0.013127  -0.033538  0  3.961471  0
C  C128  1  0.72531780  0.12435667  0.16303072  1  -0.015635  0  -0.077447  -0.077642  0  3.967619  0
C  C129  1  0.65341885  0.16096672  0.19670614  1  0.006385  0  -0.080245  -0.137382  0  3.944684  0
C  C130  1  0.61900426  0.18904834  0.16881812  1  0.319979  0  0.09129  0.175814  0  4.039781  0
C  C131  1  0.43959529  0.27246267  0.28349375  1  0.289417  0  0.091182  0.175426  0  4.039548  0
C  C132  1  0.40526223  0.29890559  0.25514149  1  -0.043785  0  -0.081028  -0.139167  0  3.944928  0
C  C133  1  0.33339369  0.33582067  0.28871969  1  -0.033688  0  -0.076892  -0.075525  0  3.965238  0
C  C134  1  0.29486555  0.34707110  0.35074595  1  0.00079  0  -0.012924  -0.032701  0  3.958361  0
C  C135  1  0.32917713  0.32051932  0.37882178  1  -0.038666  0  -0.078966  -0.081717  0  3.969993  0
C  C136  1  0.40123339  0.28322292  0.34529199  1  0.062894  0  -0.077565  -0.138806  0  3.955432  0
C  C137  1  0.21754600  0.38719785  0.38671054  1  1.519074  0  0.22624  0.600116  0  4.170469  0
C  C138  1  0.65727994  0.18009413  0.10737285  1  -0.082879  0  -0.077596  -0.140011  0  3.956783  0
C  C139  1  0.72934559  0.14313366  0.07375443  1  0.077503  0  -0.078286  -0.078118  0  3.969773  0
N  N140  1  0.51179535  0.75900530  0.72917221  1  -0.482961  0  -0.147177  -0.135679  0  3.276443  0
N  N141  1  0.54570290  0.70418878  0.72222151  1  -0.501734  0  -0.148179  -0.139193  0  3.278742  0
N  N142  1  0.02054588  0.75623173  0.23265136  1  -0.462571  0  -0.148038  -0.138065  0  3.280291  0
N  N143  1  0.04321643  0.70255994  0.21433820  1  -0.474496  0  -0.147748  -0.136913  0  3.275151  0
N  N144  1  0.00039830  0.75961614  0.74163706  1  -0.475185  0  -0.147693  -0.137152  0  3.275156  0
N  N145  1  0.04970965  0.70591244  0.71261268  1  -0.48353  0  -0.148142  -0.136966  0  3.28346  0
N  N146  1  0.00601800  0.22692284  0.23328767  1  -0.481298  0  -0.148001  -0.138064  0  3.282867  0
N  N147  1  0.05622123  0.23225679  0.21601652  1  -0.475705  0  -0.147642  -0.137241  0  3.280361  0
N  N148  1  0.01200406  0.21846247  0.73000973  1  -0.478461  0  -0.148879  -0.138208  0  3.279373  0
N  N149  1  0.03887205  0.24744775  0.72400335  1  -0.471178  0  -0.148089  -0.137327  0  3.281741  0
N  N150  1  0.54620673  0.22712624  0.19853164  1  -0.497584  0  -0.148209  -0.137507  0  3.282773  0
N  N151  1  0.51238644  0.23439275  0.25387595  1  -0.484078  0  -0.148018  -0.136377  0  3.282234  0
O  O152  1  0.03058403  0.98013144  0.97427191  1  -1.219271  0  -0.573104  -1.030166  0  2.540804  0
O  O153  1  0.18547542  0.94836996  0.89453366  1  -1.174486  0  -0.316518  -0.550616  0  2.339332  0
O  O154  1  0.18688446  0.86438778  0.89839143  1  -1.179768  0  -0.315236  -0.54848  0  2.329701  0
O  O155  1  0.87181521  0.51429151  0.55514712  1  -1.166989  0  -0.315432  -0.54874  0  2.337376  0
O  O156  1  0.87066194  0.59809362  0.55027899  1  -1.165379  0  -0.315382  -0.547974  0  2.327627  0
O  O157  1  0.99427767  0.94462437  0.09415083  1  -1.162863  0  -0.316634  -0.548997  0  2.345209  0
O  O158  1  0.06881594  0.86161401  0.01400124  1  -1.176961  0  -0.31362  -0.546859  0  2.322151  0
O  O159  1  0.06680770  0.51570232  0.35478997  1  -1.182157  0  -0.316415  -0.54835  0  2.3474  0
O  O160  1  0.99083989  0.59934033  0.43446091  1  -1.16352  0  -0.314463  -0.548315  0  2.32189  0
O  O161  1  0.97222780  0.94351096  0.91203879  1  -1.185642  0  -0.318478  -0.551556  0  2.350482  0
O  O162  1  0.07007700  0.86124747  0.89585176  1  -1.16421  0  -0.313426  -0.545978  0  2.316747  0
O  O163  1  0.08177074  0.52014405  0.54114525  1  -1.181174  0  -0.318233  -0.551158  0  2.353419  0
O  O164  1  0.98573609  0.60209584  0.55425643  1  -1.171059  0  -0.313175  -0.544087  0  2.316129  0
O  O165  1  0.97734776  0.06897765  0.09164108  1  -1.182101  0  -0.317371  -0.551937  0  2.353745  0
O  O166  1  0.07253838  0.06061448  0.01280268  1  -1.173845  0  -0.313643  -0.544365  0  2.313993  0
O  O167  1  0.08210327  0.39215177  0.35860664  1  -1.169645  0  -0.318087  -0.552448  0  2.353811  0
O  O168  1  0.98619552  0.40099716  0.43691244  1  -1.173585  0  -0.313757  -0.544891  0  2.314819  0
O  O169  1  0.99667236  0.04662073  0.88552628  1  -1.162713  0  -0.317348  -0.548398  0  2.343468  0
O  O170  1  0.06462523  0.06490140  0.89921298  1  -1.16235  0  -0.314345  -0.548357  0  2.322383  0
O  O171  1  0.06065868  0.41513267  0.56468167  1  -1.157325  0  -0.317383  -0.54872  0  2.344498  0
O  O172  1  0.99125278  0.39848163  0.55172605  1  -1.166952  0  -0.314436  -0.548063  0  2.324689  0
O  O173  1  0.87233053  0.06799209  0.00923424  1  -1.183986  0  -0.316237  -0.547068  0  2.342476  0
O  O174  1  0.87008880  0.05107835  0.09234432  1  -1.17438  0  -0.31541  -0.545479  0  2.327802  0
O  O175  1  0.18585507  0.39601686  0.44285206  1  -1.169638  0  -0.315787  -0.547  0  2.339568  0
O  O176  1  0.18894999  0.40967399  0.35875790  1  -1.167829  0  -0.314565  -0.54513  0  2.329928  0
O  O177  1  0.02734031  0.48196228  0.47593035  1  -1.233927  0  -0.572782  -1.029255  0  2.539176  0
