# generated using pymatgen
data_LiH15(C2N)6
_symmetry_space_group_name_H-M   'P 1'
_cell_length_a   9.15297164
_cell_length_b   9.36982657
_cell_length_c   14.65089278
_cell_angle_alpha   89.99994625
_cell_angle_beta   89.99982334
_cell_angle_gamma   90.00009169
_symmetry_Int_Tables_number   1
_chemical_formula_structural   LiH15(C2N)6
_chemical_formula_sum   'Li4 H60 C48 N24'
_cell_volume   1256.48630380
_cell_formula_units_Z   4
loop_
 _symmetry_equiv_pos_site_id
 _symmetry_equiv_pos_as_xyz
  1  'x, y, z'
loop_
 _atom_site_type_symbol
 _atom_site_label
 _atom_site_symmetry_multiplicity
 _atom_site_fract_x
 _atom_site_fract_y
 _atom_site_fract_z
 _atom_site_occupancy
 _atom_site_hle17_bader_spin_density
 _atom_site_hle17_ddec_charge
 _atom_site_hle17_ddec_spin_density
 _atom_site_hle17_ddec_sum_bond_order
 _atom_site_hle17_magmom
 _atom_site_hse06_10hf_bader_spin_density
 _atom_site_hse06_10hf_ddec_charge
 _atom_site_hse06_10hf_ddec_spin_density
 _atom_site_hse06_10hf_ddec_sum_bond_order
 _atom_site_hse06_10hf_magmom
 _atom_site_hse06_bader_spin_density
 _atom_site_hse06_ddec_charge
 _atom_site_hse06_ddec_spin_density
 _atom_site_hse06_ddec_sum_bond_order
 _atom_site_hse06_magmom
 _atom_site_pbe_bader_spin_density
 _atom_site_pbe_cm5_charge
 _atom_site_pbe_ddec_charge
 _atom_site_pbe_ddec_spin_density
 _atom_site_pbe_ddec_sum_bond_order
 _atom_site_pbe_magmom
Li  Li0  1  0.17520731  0.39097912  0.68290895  1  0  0.759257  0  0.54548  0  0  0.677438  0  0.709233  0  0  0.689283  0  0.692454  0  0  0.523142  0.668772  0  0.721586  0
Li  Li1  1  0.32479292  0.60901886  0.18290986  1  0  0.75925  0  0.545478  0  0  0.677422  0  0.70923  0  0  0.68927  0  0.692445  0  0  0.52312  0.668743  0  0.721588  0
Li  Li2  1  0.82479205  0.89097812  0.81709249  1  0  0.759242  0  0.5455  0  0  0.677424  0  0.709248  0  0  0.68927  0  0.692468  0  0  0.523143  0.668744  0  0.721616  0
Li  Li3  1  0.67520734  0.10902046  0.31709057  1  0  0.75925  0  0.545478  0  0  0.677432  0  0.709228  0  0  0.689279  0  0.692447  0  0  0.52314  0.668781  0  0.721577  0
H  H4  1  0.20073561  0.22088351  0.19004413  1  0  0.121421  0  0.969882  0  0  0.129557  0  1.032519  0  0  0.131668  0  1.033044  0  0  0.123142  0.128004  0  1.03241  0
H  H5  1  0.29926677  0.77911767  0.69004548  1  0  0.121434  0  0.969871  0  0  0.129572  0  1.032505  0  0  0.131683  0  1.03303  0  0  0.123156  0.128008  0  1.0324  0
H  H6  1  0.79926484  0.72088247  0.30995555  1  0  0.121402  0  0.969892  0  0  0.129539  0  1.03253  0  0  0.131651  0  1.033056  0  0  0.123122  0.127958  0  1.032402  0
H  H7  1  0.70073459  0.27911718  0.80995466  1  0  0.121436  0  0.969866  0  0  0.129575  0  1.032499  0  0  0.131686  0  1.033024  0  0  0.123141  0.127995  0  1.032412  0
H  H8  1  0.27595143  0.09574109  0.66864428  1  0  0.096048  0  0.968894  0  0  0.101207  0  1.036825  0  0  0.103739  0  1.036068  0  0  0.116499  0.099568  0  1.037105  0
H  H9  1  0.22404887  0.90425798  0.16864453  1  0  0.096046  0  0.968885  0  0  0.101212  0  1.036789  0  0  0.103747  0  1.036032  0  0  0.116533  0.099605  0  1.037092  0
H  H10  1  0.72404962  0.59574311  0.83135597  1  0  0.096049  0  0.968923  0  0  0.101181  0  1.036876  0  0  0.103713  0  1.036124  0  0  0.116514  0.099568  0  1.037176  0
H  H11  1  0.77595406  0.40425971  0.33135232  1  0  0.095986  0  0.968953  0  0  0.10115  0  1.036848  0  0  0.103686  0  1.036089  0  0  0.116483  0.099511  0  1.037152  0
H  H12  1  0.09569493  0.66907397  0.53344433  1  0  0.062367  0  0.997068  0  0  0.073919  0  1.062229  0  0  0.076837  0  1.060027  0  0  0.094241  0.071661  0  1.064127  0
H  H13  1  0.40430604  0.33092637  0.03344389  1  0  0.062369  0  0.997044  0  0  0.073921  0  1.062205  0  0  0.076841  0  1.060002  0  0  0.094266  0.071694  0  1.064075  0
H  H14  1  0.90430406  0.16907356  0.96655588  1  0  0.062373  0  0.997049  0  0  0.073924  0  1.062216  0  0  0.076843  0  1.060013  0  0  0.094254  0.071681  0  1.064101  0
H  H15  1  0.59569459  0.83092692  0.46655709  1  0  0.062358  0  0.997079  0  0  0.073909  0  1.062245  0  0  0.076828  0  1.060043  0  0  0.094219  0.071637  0  1.064132  0
H  H16  1  0.00634178  0.58841478  0.80967471  1  0  0.048568  0  0.975766  0  0  0.057989  0  1.047523  0  0  0.060037  0  1.045229  0  0  0.114586  0.056426  0  1.049151  0
H  H17  1  0.49365892  0.41158515  0.30967405  1  0  0.048598  0  0.975825  0  0  0.058013  0  1.04759  0  0  0.060061  0  1.045297  0  0  0.114603  0.056446  0  1.049247  0
H  H18  1  0.99365817  0.08841386  0.69032623  1  0  0.048603  0  0.975827  0  0  0.058023  0  1.047587  0  0  0.060071  0  1.045293  0  0  0.114595  0.056444  0  1.049262  0
H  H19  1  0.50634184  0.91158383  0.19032689  1  0  0.048553  0  0.975731  0  0  0.057963  0  1.047509  0  0  0.060014  0  1.045215  0  0  0.114567  0.056394  0  1.049184  0
H  H20  1  0.33215064  0.93329998  0.51294835  1  0  0.103956  0  0.977587  0  0  0.110304  0  1.047186  0  0  0.112536  0  1.047321  0  0  0.116224  0.108519  0  1.047474  0
H  H21  1  0.16785261  0.06670040  0.01294852  1  0  0.103976  0  0.97761  0  0  0.110333  0  1.047198  0  0  0.112564  0  1.047335  0  0  0.116183  0.108502  0  1.047473  0
H  H22  1  0.66785097  0.43330024  0.98705170  1  0  0.103947  0  0.977612  0  0  0.110314  0  1.047188  0  0  0.112548  0  1.047325  0  0  0.116217  0.108518  0  1.047471  0
H  H23  1  0.83214868  0.56670128  0.48705058  1  0  0.10393  0  0.977643  0  0  0.110298  0  1.047222  0  0  0.11253  0  1.047361  0  0  0.116188  0.108505  0  1.047497  0
H  H24  1  0.14884052  0.47153892  0.46364928  1  0  0.124946  0  0.957121  0  0  0.146998  0  1.017088  0  0  0.148399  0  1.016636  0  0  0.10353  0.145943  0  1.0175  0
H  H25  1  0.35115832  0.52846079  0.96364931  1  0  0.124944  0  0.95712  0  0  0.146999  0  1.017081  0  0  0.1484  0  1.016628  0  0  0.103572  0.145984  0  1.017484  0
H  H26  1  0.85116034  0.97154050  0.03634958  1  0  0.124935  0  0.957135  0  0  0.146995  0  1.017098  0  0  0.148397  0  1.016645  0  0  0.103512  0.145913  0  1.017521  0
H  H27  1  0.64884262  0.02846382  0.53635098  1  0  0.124942  0  0.957158  0  0  0.147017  0  1.017094  0  0  0.148419  0  1.016641  0  0  0.103565  0.145985  0  1.017507  0
H  H28  1  0.06614289  0.35592632  0.38346725  1  0  0.129416  0  0.959273  0  0  0.146591  0  1.024136  0  0  0.148162  0  1.025472  0  0  0.09902  0.145601  0  1.023003  0
H  H29  1  0.43385635  0.64407244  0.88346773  1  0  0.129416  0  0.959281  0  0  0.146593  0  1.024133  0  0  0.148165  0  1.025466  0  0  0.099049  0.145637  0  1.022981  0
H  H30  1  0.93385669  0.85592684  0.11653236  1  0  0.129431  0  0.959274  0  0  0.146605  0  1.024125  0  0  0.148176  0  1.025458  0  0  0.098919  0.145511  0  1.02297  0
H  H31  1  0.56614478  0.14407416  0.61653181  1  0  0.129433  0  0.959218  0  0  0.146615  0  1.024077  0  0  0.148188  0  1.025409  0  0  0.099022  0.145644  0  1.022922  0
H  H32  1  0.25102609  0.40341294  0.36907407  1  0  0.126265  0  0.949787  0  0  0.143104  0  1.017888  0  0  0.145055  0  1.016862  0  0  0.102433  0.14188  0  1.018521  0
H  H33  1  0.24897431  0.59658797  0.86907426  1  0  0.126265  0  0.949791  0  0  0.143109  0  1.017878  0  0  0.145059  0  1.016853  0  0  0.102493  0.141943  0  1.018508  0
H  H34  1  0.74897575  0.90341316  0.13092482  1  0  0.126289  0  0.949768  0  0  0.143127  0  1.017861  0  0  0.145077  0  1.016837  0  0  0.102517  0.141941  0  1.01854  0
H  H35  1  0.75102674  0.09658889  0.63092462  1  0  0.126297  0  0.949775  0  0  0.143152  0  1.01786  0  0  0.145102  0  1.016835  0  0  0.102512  0.141985  0  1.018488  0
H  H36  1  0.29967527  0.96733485  0.35332601  1  0  0.089699  0  0.93221  0  0  0.099554  0  0.997971  0  0  0.09941  0  0.998952  0  0  0.1322  0.099581  0  0.99735  0
H  H37  1  0.20032849  0.03266822  0.85332663  1  0  0.089676  0  0.932256  0  0  0.099514  0  0.998033  0  0  0.099371  0  0.999013  0  0  0.13219  0.099543  0  0.997393  0
H  H38  1  0.70032449  0.46733353  0.14667421  1  0  0.089715  0  0.932197  0  0  0.099555  0  0.997948  0  0  0.099411  0  0.998928  0  0  0.132175  0.09956  0  0.997334  0
H  H39  1  0.79966919  0.53267063  0.64667297  1  0  0.089703  0  0.932189  0  0  0.099537  0  0.997977  0  0  0.099396  0  0.998958  0  0  0.132151  0.099508  0  0.997346  0
H  H40  1  0.34946398  0.14077319  0.31491422  1  0  0.091668  0  0.934089  0  0  0.099094  0  1.002977  0  0  0.099778  0  1.002713  0  0  0.136473  0.098282  0  1.003762  0
H  H41  1  0.15053669  0.85922674  0.81491376  1  0  0.091683  0  0.934055  0  0  0.0991  0  1.00294  0  0  0.099784  0  1.002675  0  0  0.1365  0.098302  0  1.003727  0
H  H42  1  0.65053633  0.64077424  0.18508620  1  0  0.091673  0  0.934137  0  0  0.099088  0  1.003001  0  0  0.099771  0  1.002735  0  0  0.136484  0.09827  0  1.003793  0
H  H43  1  0.84946589  0.35923093  0.68508634  1  0  0.091671  0  0.934081  0  0  0.099091  0  1.002972  0  0  0.099776  0  1.002707  0  0  0.136454  0.09826  0  1.003766  0
H  H44  1  0.90130490  0.20968644  0.15003293  1  0  0.0849  0  0.968796  0  0  0.095826  0  1.029434  0  0  0.098098  0  1.028547  0  0  0.111354  0.094248  0  1.030321  0
H  H45  1  0.59869531  0.79031024  0.65003125  1  0  0.084951  0  0.968694  0  0  0.095862  0  1.029354  0  0  0.098133  0  1.028466  0  0  0.111325  0.094246  0  1.030245  0
H  H46  1  0.09869553  0.70968745  0.34996813  1  0  0.084904  0  0.968762  0  0  0.095832  0  1.029403  0  0  0.098103  0  1.028517  0  0  0.111308  0.094194  0  1.030328  0
H  H47  1  0.40130387  0.29031029  0.84996821  1  0  0.084949  0  0.968683  0  0  0.095859  0  1.029345  0  0  0.09813  0  1.028458  0  0  0.111319  0.094213  0  1.030264  0
H  H48  1  0.85290087  0.93450858  0.42091250  1  0  0.133008  0  0.947407  0  0  0.154858  0  1.006106  0  0  0.156658  0  1.005435  0  0  0.11127  0.153679  0  1.006411  0
H  H49  1  0.64710019  0.06549197  0.92091252  1  0  0.133026  0  0.947462  0  0  0.154871  0  1.006159  0  0  0.156671  0  1.005489  0  0  0.111298  0.153703  0  1.006471  0
H  H50  1  0.14709884  0.43450757  0.07908842  1  0  0.133001  0  0.947396  0  0  0.154848  0  1.006097  0  0  0.156649  0  1.005426  0  0  0.111269  0.153653  0  1.006445  0
H  H51  1  0.35289754  0.56549057  0.57908639  1  0  0.133053  0  0.947437  0  0  0.154871  0  1.006154  0  0  0.156671  0  1.005485  0  0  0.11132  0.153725  0  1.00648  0
H  H52  1  0.97393610  0.05037381  0.48079910  1  0  0.130255  0  0.937874  0  0  0.150087  0  0.997634  0  0  0.151632  0  0.998139  0  0  0.10266  0.148779  0  0.997559  0
H  H53  1  0.52606466  0.94962666  0.98079609  1  0  0.130295  0  0.937894  0  0  0.150119  0  0.997656  0  0  0.151663  0  0.998162  0  0  0.102612  0.148747  0  0.997574  0
H  H54  1  0.02606407  0.55037199  0.01920342  1  0  0.130309  0  0.937857  0  0  0.150132  0  0.997623  0  0  0.151678  0  0.998127  0  0  0.102611  0.148749  0  0.997513  0
H  H55  1  0.47393478  0.44962624  0.51920122  1  0  0.130297  0  0.937822  0  0  0.150123  0  0.997584  0  0  0.15167  0  0.998088  0  0  0.102709  0.148847  0  0.997542  0
H  H56  1  0.04076893  0.88892118  0.43448584  1  0  0.114281  0  0.96042  0  0  0.134965  0  1.023192  0  0  0.136439  0  1.022882  0  0  0.095906  0.133922  0  1.023515  0
H  H57  1  0.45923115  0.11107537  0.93448456  1  0  0.114305  0  0.960429  0  0  0.135  0  1.023184  0  0  0.136474  0  1.022873  0  0  0.095916  0.133949  0  1.02353  0
H  H58  1  0.95922961  0.38892252  0.06551579  1  0  0.11435  0  0.960418  0  0  0.135049  0  1.02316  0  0  0.136523  0  1.022849  0  0  0.095858  0.133903  0  1.023498  0
H  H59  1  0.54076774  0.61107749  0.56551500  1  0  0.114281  0  0.960402  0  0  0.134966  0  1.023165  0  0  0.13644  0  1.022854  0  0  0.095878  0.133892  0  1.023505  0
H  H60  1  0.91848127  0.88377117  0.60173010  1  0  0.072163  0  0.995651  0  0  0.085977  0  1.057464  0  0  0.088042  0  1.057122  0  0  0.099676  0.084434  0  1.057757  0
H  H61  1  0.58152137  0.11622772  0.10172904  1  0  0.072248  0  0.995632  0  0  0.086008  0  1.057502  0  0  0.088078  0  1.05716  0  0  0.099716  0.084487  0  1.057796  0
H  H62  1  0.08151916  0.38377278  0.89827135  1  0  0.07219  0  0.995621  0  0  0.085977  0  1.057467  0  0  0.088044  0  1.057123  0  0  0.099712  0.084462  0  1.057759  0
H  H63  1  0.41848110  0.61622702  0.39827139  1  0  0.072143  0  0.995657  0  0  0.085958  0  1.057476  0  0  0.088024  0  1.057133  0  0  0.099676  0.084413  0  1.057789  0
C  C64  1  0.99284835  0.05185421  0.33489261  1  0  0.367638  0  3.70943  0  0  0.346457  0  3.982611  0  0  0.360987  0  3.996568  0  0  0.216774  0.336981  0  3.972927  0
C  C65  1  0.50715313  0.94814433  0.83489306  1  0  0.367492  0  3.709566  0  0  0.346346  0  3.982703  0  0  0.360876  0  3.99666  0  0  0.216779  0.336901  0  3.973018  0
C  C66  1  0.00715182  0.55185215  0.16510922  1  0  0.367541  0  3.709475  0  0  0.34638  0  3.982672  0  0  0.360911  0  3.99663  0  0  0.216716  0.336857  0  3.97302  0
C  C67  1  0.49284522  0.44814373  0.66510835  1  0  0.367599  0  3.709479  0  0  0.346454  0  3.982594  0  0  0.360984  0  3.996549  0  0  0.216849  0.337022  0  3.972925  0
C  C68  1  0.10889864  0.17198176  0.22498409  1  0  -0.066588  0  3.676727  0  0  -0.104887  0  3.935564  0  0  -0.103263  0  3.955479  0  0  -0.000575  -0.105582  0  3.922229  0
C  C69  1  0.39110247  0.82801937  0.72498591  1  0  -0.066578  0  3.676794  0  0  -0.104874  0  3.935621  0  0  -0.10325  0  3.955537  0  0  -0.000559  -0.105524  0  3.922268  0
C  C70  1  0.89110173  0.67197985  0.27501563  1  0  -0.066547  0  3.676866  0  0  -0.104831  0  3.935715  0  0  -0.103207  0  3.955631  0  0  -0.000717  -0.105658  0  3.922386  0
C  C71  1  0.60889678  0.32801879  0.77501557  1  0  -0.06664  0  3.676835  0  0  -0.104938  0  3.935668  0  0  -0.103312  0  3.955582  0  0  -0.000542  -0.105559  0  3.922342  0
C  C72  1  0.26306729  0.12287184  0.59724659  1  0  -0.000875  0  3.815266  0  0  -0.032166  0  4.092938  0  0  -0.030865  0  4.112472  0  0  -0.007607  -0.032907  0  4.079368  0
C  C73  1  0.23693555  0.87712521  0.09724683  1  0  -0.000849  0  3.815119  0  0  -0.032134  0  4.092805  0  0  -0.030834  0  4.112339  0  0  -0.007603  -0.032895  0  4.079306  0
C  C74  1  0.73693053  0.62287163  0.90275365  1  0  -0.000933  0  3.815301  0  0  -0.032206  0  4.092985  0  0  -0.030905  0  4.11252  0  0  -0.007696  -0.033052  0  4.079515  0
C  C75  1  0.76306406  0.37713001  0.40274867  1  0  -0.000866  0  3.815165  0  0  -0.032138  0  4.092847  0  0  -0.030836  0  4.112384  0  0  -0.007674  -0.032919  0  4.07938  0
C  C76  1  0.05190571  0.68285322  0.60190095  1  0  -0.058992  0  3.893437  0  0  -0.081157  0  4.157053  0  0  -0.080964  0  4.177216  0  0  -0.039958  -0.081253  0  4.143276  0
C  C77  1  0.44809492  0.31714702  0.10190111  1  0  -0.058973  0  3.893462  0  0  -0.081138  0  4.157068  0  0  -0.080946  0  4.177231  0  0  -0.039922  -0.081192  0  4.143237  0
C  C78  1  0.94809330  0.18285299  0.89809857  1  0  -0.058978  0  3.89345  0  0  -0.081145  0  4.157064  0  0  -0.08095  0  4.177224  0  0  -0.039955  -0.081213  0  4.143252  0
C  C79  1  0.55190350  0.81714760  0.39809988  1  0  -0.058997  0  3.893452  0  0  -0.081167  0  4.157083  0  0  -0.080975  0  4.177245  0  0  -0.039918  -0.081175  0  4.143243  0
C  C80  1  0.00915746  0.64128881  0.74359749  1  0  0.177931  0  3.846384  0  0  0.137792  0  4.121468  0  0  0.147964  0  4.134539  0  0  0.097788  0.130781  0  4.112114  0
C  C81  1  0.49084356  0.35871122  0.24359754  1  0  0.177957  0  3.846328  0  0  0.137819  0  4.121414  0  0  0.147992  0  4.134484  0  0  0.097979  0.130952  0  4.112126  0
C  C82  1  0.99084148  0.14128779  0.75640274  1  0  0.177874  0  3.846446  0  0  0.137732  0  4.121534  0  0  0.147904  0  4.134603  0  0  0.097868  0.130823  0  4.112303  0
C  C83  1  0.50915821  0.85871087  0.25640410  1  0  0.177982  0  3.846332  0  0  0.137848  0  4.121413  0  0  0.148017  0  4.134485  0  0  0.097987  0.130969  0  4.11217  0
C  C84  1  0.21217711  0.25672815  0.47979164  1  0  0.374503  0  3.692039  0  0  0.357432  0  3.957777  0  0  0.372189  0  3.971373  0  0  0.216659  0.347597  0  3.948157  0
C  C85  1  0.28782384  0.74327047  0.97979099  1  0  0.374322  0  3.692198  0  0  0.357301  0  3.957831  0  0  0.372055  0  3.971428  0  0  0.216618  0.347518  0  3.948136  0
C  C86  1  0.78782449  0.75672752  0.02020734  1  0  0.374469  0  3.692033  0  0  0.357339  0  3.957833  0  0  0.372094  0  3.97143  0  0  0.216523  0.347484  0  3.948155  0
C  C87  1  0.71217746  0.24327469  0.52020850  1  0  0.374682  0  3.691927  0  0  0.35753  0  3.957728  0  0  0.372285  0  3.971326  0  0  0.216724  0.347711  0  3.948074  0
C  C88  1  0.29137297  0.04098566  0.52186756  1  0  -0.076278  0  3.725963  0  0  -0.118665  0  3.992345  0  0  -0.117894  0  4.013145  0  0  -0.0057  -0.118976  0  3.978246  0
C  C89  1  0.20862915  0.95901470  0.02186849  1  0  -0.07637  0  3.725921  0  0  -0.118802  0  3.992311  0  0  -0.118031  0  4.013109  0  0  -0.005638  -0.118985  0  3.978147  0
C  C90  1  0.70862690  0.54098424  0.97813272  1  0  -0.076277  0  3.725903  0  0  -0.118698  0  3.992262  0  0  -0.117932  0  4.013063  0  0  -0.005715  -0.11898  0  3.978145  0
C  C91  1  0.79137169  0.45901730  0.47813037  1  0  -0.076283  0  3.725849  0  0  -0.118716  0  3.992206  0  0  -0.117951  0  4.013011  0  0  -0.00558  -0.118929  0  3.978079  0
C  C92  1  0.16784094  0.37785954  0.42066010  1  0  -0.389492  0  3.715699  0  0  -0.47379  0  3.958127  0  0  -0.477261  0  3.964479  0  0  -0.230799  -0.471169  0  3.953441  0
C  C93  1  0.33215921  0.62213917  0.92066011  1  0  -0.389428  0  3.715735  0  0  -0.473754  0  3.958163  0  0  -0.477222  0  3.964517  0  0  -0.230843  -0.471218  0  3.953478  0
C  C94  1  0.83216086  0.87785996  0.07933881  1  0  -0.389504  0  3.715659  0  0  -0.473777  0  3.958079  0  0  -0.477247  0  3.96443  0  0  -0.230816  -0.471163  0  3.9534  0
C  C95  1  0.66784298  0.12214323  0.57933876  1  0  -0.389634  0  3.715672  0  0  -0.473958  0  3.958155  0  0  -0.477431  0  3.964505  0  0  -0.230906  -0.471369  0  3.953455  0
C  C96  1  0.26678031  0.08001744  0.35291541  1  0  0.113665  0  3.592629  0  0  0.044541  0  3.827396  0  0  0.054708  0  3.835508  0  0  0.067395  0.037612  0  3.822359  0
C  C97  1  0.23321908  0.91998243  0.85291612  1  0  0.113694  0  3.592584  0  0  0.04459  0  3.827267  0  0  0.054761  0  3.835373  0  0  0.067355  0.037584  0  3.822246  0
C  C98  1  0.73321772  0.58001867  0.14708435  1  0  0.113554  0  3.592708  0  0  0.044514  0  3.827355  0  0  0.054688  0  3.835455  0  0  0.067382  0.037595  0  3.822319  0
C  C99  1  0.76678032  0.41998228  0.64708393  1  0  0.113686  0  3.592591  0  0  0.044568  0  3.8273  0  0  0.054734  0  3.835414  0  0  0.067411  0.037659  0  3.822219  0
C  C100  1  0.96177470  0.16577848  0.20710176  1  0  0.010664  0  3.799906  0  0  -0.019555  0  4.072061  0  0  -0.018665  0  4.091737  0  0  -0.005242  -0.020387  0  4.058805  0
C  C101  1  0.53822523  0.83422025  0.70710153  1  0  0.010554  0  3.79994  0  0  -0.019653  0  4.0721  0  0  -0.018761  0  4.091772  0  0  -0.005306  -0.020517  0  4.058851  0
C  C102  1  0.03822457  0.66577841  0.29289796  1  0  0.010675  0  3.799924  0  0  -0.019542  0  4.072066  0  0  -0.018651  0  4.091743  0  0  -0.005196  -0.02034  0  4.058826  0
C  C103  1  0.46177512  0.33422048  0.79289789  1  0  0.010657  0  3.799959  0  0  -0.01955  0  4.072114  0  0  -0.018658  0  4.091786  0  0  -0.005368  -0.020485  0  4.058923  0
C  C104  1  0.96433029  0.97706549  0.42246109  1  0  -0.385861  0  3.715347  0  0  -0.47024  0  3.958949  0  0  -0.473508  0  3.965543  0  0  -0.225993  -0.468023  0  3.954553  0
C  C105  1  0.53567077  0.02293613  0.92245930  1  0  -0.385953  0  3.715458  0  0  -0.470339  0  3.959039  0  0  -0.473607  0  3.965632  0  0  -0.226033  -0.468111  0  3.95464  0
C  C106  1  0.03566949  0.47706536  0.07754185  1  0  -0.38595  0  3.715386  0  0  -0.470332  0  3.95899  0  0  -0.473601  0  3.965583  0  0  -0.226004  -0.468042  0  3.954564  0
C  C107  1  0.46432798  0.52293491  0.57754031  1  0  -0.385933  0  3.715316  0  0  -0.470293  0  3.958912  0  0  -0.473561  0  3.965504  0  0  -0.226002  -0.468065  0  3.954575  0
C  C108  1  0.96272029  0.79043541  0.63592254  1  0  -0.051744  0  3.863138  0  0  -0.076061  0  4.122613  0  0  -0.076014  0  4.144322  0  0  -0.037123  -0.075569  0  4.107394  0
C  C109  1  0.53728217  0.20956450  0.13592151  1  0  -0.051839  0  3.863163  0  0  -0.076107  0  4.122637  0  0  -0.076073  0  4.144362  0  0  -0.037088  -0.075535  0  4.107398  0
C  C110  1  0.03727999  0.29043487  0.86407828  1  0  -0.051746  0  3.863143  0  0  -0.076039  0  4.122621  0  0  -0.075996  0  4.144337  0  0  -0.037117  -0.07553  0  4.107379  0
C  C111  1  0.46271935  0.70956499  0.36407681  1  0  -0.051712  0  3.863193  0  0  -0.076031  0  4.122672  0  0  -0.075987  0  4.144387  0  0  -0.037088  -0.075518  0  4.107465  0
N  N112  1  0.21293292  0.25612082  0.57074924  1  0  -0.488493  0  3.081094  0  0  -0.442064  0  3.351879  0  0  -0.456012  0  3.365199  0  0  -0.407051  -0.432535  0  3.342734  0
N  N113  1  0.28706895  0.74387734  0.07074809  1  0  -0.488404  0  3.081139  0  0  -0.442002  0  3.351899  0  0  -0.455955  0  3.365228  0  0  -0.407048  -0.432507  0  3.342765  0
N  N114  1  0.78706730  0.75612065  0.92925024  1  0  -0.488443  0  3.081073  0  0  -0.441999  0  3.351864  0  0  -0.455947  0  3.365187  0  0  -0.407006  -0.432483  0  3.342735  0
N  N115  1  0.71293372  0.24388202  0.42925090  1  0  -0.488485  0  3.081124  0  0  -0.44205  0  3.351943  0  0  -0.455994  0  3.365255  0  0  -0.407052  -0.432583  0  3.34287  0
N  N116  1  0.08131449  0.58686849  0.67084351  1  0  -0.526151  0  3.198065  0  0  -0.468918  0  3.479301  0  0  -0.481979  0  3.492368  0  0  -0.461339  -0.459772  0  3.470274  0
N  N117  1  0.41868580  0.41313165  0.17084367  1  0  -0.526184  0  3.197992  0  0  -0.468956  0  3.479247  0  0  -0.482016  0  3.49231  0  0  -0.461436  -0.459884  0  3.470264  0
N  N118  1  0.91868436  0.08686725  0.82915675  1  0  -0.526158  0  3.198121  0  0  -0.468929  0  3.479367  0  0  -0.48199  0  3.492433  0  0  -0.46139  -0.459893  0  3.470446  0
N  N119  1  0.58131278  0.91313238  0.32915726  1  0  -0.526153  0  3.198072  0  0  -0.468923  0  3.479312  0  0  -0.481983  0  3.492378  0  0  -0.461459  -0.459927  0  3.470391  0
N  N120  1  0.89084887  0.09202034  0.27556730  1  0  -0.489197  0  3.119242  0  0  -0.443769  0  3.394587  0  0  -0.457245  0  3.407854  0  0  -0.41361  -0.434126  0  3.385073  0
N  N121  1  0.60915181  0.90798043  0.77556553  1  0  -0.489108  0  3.119304  0  0  -0.443686  0  3.394618  0  0  -0.457163  0  3.407889  0  0  -0.413613  -0.434052  0  3.38512  0
N  N122  1  0.10915027  0.59202155  0.22443314  1  0  -0.489185  0  3.119341  0  0  -0.443746  0  3.394668  0  0  -0.457218  0  3.407921  0  0  -0.4136  -0.434108  0  3.385208  0
N  N123  1  0.39084647  0.40797851  0.72443453  1  0  -0.489206  0  3.119304  0  0  -0.443788  0  3.39463  0  0  -0.457263  0  3.407899  0  0  -0.413762  -0.434288  0  3.385198  0
N  N124  1  0.25922738  0.12665003  0.44747074  1  0  -0.142634  0  3.507989  0  0  -0.054197  0  3.722552  0  0  -0.070453  0  3.747226  0  0  -0.245835  -0.043273  0  3.705595  0
N  N125  1  0.24077482  0.87334970  0.94747146  1  0  -0.142571  0  3.507954  0  0  -0.054079  0  3.722393  0  0  -0.070334  0  3.747065  0  0  -0.245821  -0.043173  0  3.705423  0
N  N126  1  0.74077292  0.62665035  0.05252969  1  0  -0.142553  0  3.507897  0  0  -0.054076  0  3.722389  0  0  -0.070331  0  3.747061  0  0  -0.245822  -0.043197  0  3.705426  0
N  N127  1  0.75922668  0.37335182  0.55252863  1  0  -0.142672  0  3.507974  0  0  -0.05414  0  3.722462  0  0  -0.070397  0  3.747138  0  0  -0.245885  -0.043276  0  3.705509  0
N  N128  1  0.12770539  0.09856520  0.30631156  1  0  -0.147884  0  3.518833  0  0  -0.060896  0  3.737943  0  0  -0.077037  0  3.762072  0  0  -0.24633  -0.050162  0  3.721258  0
N  N129  1  0.37229423  0.90143581  0.80631201  1  0  -0.147798  0  3.518775  0  0  -0.060835  0  3.737873  0  0  -0.076975  0  3.762002  0  0  -0.246266  -0.050072  0  3.721168  0
N  N130  1  0.87229377  0.59856445  0.19368957  1  0  -0.147821  0  3.518803  0  0  -0.060927  0  3.73798  0  0  -0.07707  0  3.762108  0  0  -0.246256  -0.050099  0  3.721197  0
N  N131  1  0.62770405  0.40143537  0.69368806  1  0  -0.147866  0  3.518844  0  0  -0.060895  0  3.73795  0  0  -0.077036  0  3.762079  0  0  -0.246477  -0.050311  0  3.721363  0
N  N132  1  0.93545349  0.76384251  0.72687335  1  0  -0.508422  0  3.175889  0  0  -0.447319  0  3.4482  0  0  -0.460458  0  3.461883  0  0  -0.45363  -0.438309  0  3.438873  0
N  N133  1  0.56454743  0.23615726  0.22687361  1  0  -0.508446  0  3.17589  0  0  -0.447342  0  3.448184  0  0  -0.460483  0  3.461868  0  0  -0.453753  -0.438468  0  3.438983  0
N  N134  1  0.06454565  0.26384215  0.77312681  1  0  -0.508437  0  3.175903  0  0  -0.447328  0  3.448191  0  0  -0.460473  0  3.461886  0  0  -0.453744  -0.438429  0  3.438931  0
N  N135  1  0.43545523  0.73615678  0.27312743  1  0  -0.508449  0  3.17593  0  0  -0.447341  0  3.448245  0  0  -0.460483  0  3.461928  0  0  -0.453783  -0.438482  0  3.439043  0
