# generated using pymatgen
data_MnH14C14S2N2O5
_symmetry_space_group_name_H-M   'P 1'
_cell_length_a   6.42166878
_cell_length_b   11.08377632
_cell_length_c   11.89276040
_cell_angle_alpha   85.87977646
_cell_angle_beta   74.32907965
_cell_angle_gamma   73.13337329
_symmetry_Int_Tables_number   1
_chemical_formula_structural   MnH14C14S2N2O5
_chemical_formula_sum   'Mn2 H28 C28 S4 N4 O10'
_cell_volume   779.93910910
_cell_formula_units_Z   2
loop_
 _symmetry_equiv_pos_site_id
 _symmetry_equiv_pos_as_xyz
  1  'x, y, z'
loop_
 _atom_site_type_symbol
 _atom_site_label
 _atom_site_symmetry_multiplicity
 _atom_site_fract_x
 _atom_site_fract_y
 _atom_site_fract_z
 _atom_site_occupancy
 _atom_site_hle17_ddec_charge
 _atom_site_hle17_ddec_spin_density
 _atom_site_hle17_ddec_sum_bond_order
 _atom_site_hle17_magmom
 _atom_site_hse06_10hf_ddec_charge
 _atom_site_hse06_10hf_ddec_spin_density
 _atom_site_hse06_10hf_ddec_sum_bond_order
 _atom_site_hse06_10hf_magmom
 _atom_site_hse06_ddec_charge
 _atom_site_hse06_ddec_spin_density
 _atom_site_hse06_ddec_sum_bond_order
 _atom_site_hse06_magmom
 _atom_site_pbe_cm5_charge
 _atom_site_pbe_ddec_charge
 _atom_site_pbe_ddec_spin_density
 _atom_site_pbe_ddec_sum_bond_order
 _atom_site_pbe_magmom
Mn  Mn0  1  0.80550606  0.25001968  0.75002967  1  1.101027  4.817882  1.735804  4.691  0.923146  4.75053  2.208176  4.558  0.985545  4.788652  2.143445  4.615  0.581343  0.873872  4.712547  2.255644  4.503
Mn  Mn1  1  0.19448801  0.74998242  0.24996232  1  1.101001  4.817865  1.735827  4.691  0.923108  4.7505  2.208198  4.558  0.985508  4.788621  2.143468  4.615  0.581332  0.873834  4.712518  2.255671  4.503
H  H2  1  0.19930864  0.27386177  0.81422469  1  0.440763  -7.1e-05  0.848703  0.002  0.407755  0.000481  0.916111  0.002  0.419376  0.000189  0.899091  0.002  0.301461  0.399419  0.000763  0.928231  0.003
H  H3  1  0.71277171  0.77398151  0.31423985  1  0.440415  -7.3e-05  0.84849  0.002  0.407493  0.000483  0.916301  0.002  0.419098  0.00019  0.899303  0.002  0.301374  0.399058  0.00076  0.928614  0.003
H  H4  1  0.80068261  0.72614333  0.18577987  1  0.440771  -7e-05  0.848698  0.002  0.40775  0.000481  0.916128  0.002  0.419372  0.00019  0.899104  0.002  0.301469  0.399413  0.000764  0.928251  0.003
H  H5  1  0.28722902  0.22601610  0.68576870  1  0.440322  -7.2e-05  0.84855  0.002  0.407392  0.000484  0.916434  0.002  0.418999  0.00019  0.899434  0.002  0.301299  0.398958  0.00076  0.928748  0.003
H  H6  1  0.82477747  0.00695992  0.44715720  1  0.151483  -0.000393  0.957458  0.0  0.162047  -0.000308  1.019795  0.0  0.165668  -0.00038  1.017873  0.0  0.111917  0.159371  -0.000239  1.021418  0.0
H  H7  1  0.72208573  0.50681600  0.94702596  1  0.151864  -0.000397  0.956131  0.0  0.162233  -0.00033  1.019031  0.0  0.16583  -0.000393  1.017101  0.0  0.111898  0.159552  -0.000249  1.020636  0.0
H  H8  1  0.17521638  0.99301782  0.55284559  1  0.151428  -0.000389  0.957561  0.0  0.16194  -0.000308  1.019879  0.0  0.165572  -0.00038  1.017942  0.0  0.111867  0.159263  -0.000239  1.021502  0.0
H  H9  1  0.27792795  0.49319008  0.05298157  1  0.151764  -0.000392  0.956243  0.0  0.162141  -0.00033  1.019185  0.0  0.165741  -0.000393  1.017252  0.0  0.111916  0.159466  -0.000249  1.020772  0.0
H  H10  1  0.88751872  0.13464634  0.36225854  1  0.116774  -1.7e-05  0.9647  0.0  0.127182  0.000117  1.030867  0.0  0.128466  3.5e-05  1.032026  0.0  0.099622  0.126364  0.000228  1.030127  0.0
H  H11  1  0.61603853  0.63453873  0.86224006  1  0.116818  -7e-06  0.963603  0.0  0.127252  0.000138  1.030035  0.0  0.128497  4.8e-05  1.031181  0.0  0.099841  0.126427  0.000249  1.029312  0.0
H  H12  1  0.11247761  0.86533238  0.63774772  1  0.116933  -1.4e-05  0.964506  0.0  0.12725  0.000116  1.030659  0.0  0.128487  3.5e-05  1.031866  0.0  0.099607  0.126436  0.000228  1.029917  0.0
H  H13  1  0.38398841  0.36546340  0.13775464  1  0.116765  -2e-06  0.963507  0.0  0.127276  0.000138  1.029942  0.0  0.128524  4.8e-05  1.031088  0.0  0.099805  0.126449  0.000249  1.029212  0.0
H  H14  1  0.75513567  0.32898768  0.33980543  1  0.101972  0.000171  0.98495  0.0  0.110703  0.000185  1.050754  0.0  0.113524  0.000126  1.050667  0.0  0.100947  0.10864  0.000243  1.051128  0.0
H  H15  1  0.57560980  0.82926753  0.83979526  1  0.100688  0.000157  0.983524  0.0  0.109921  0.000166  1.049477  0.0  0.112807  0.000115  1.049231  0.0  0.100734  0.107705  0.000235  1.050079  0.0
H  H16  1  0.24486324  0.67101664  0.66021124  1  0.101959  0.00017  0.985203  0.0  0.110745  0.000185  1.050947  0.0  0.113566  0.000126  1.050851  0.0  0.100992  0.108682  0.000243  1.051321  0.0
H  H17  1  0.42440113  0.17074121  0.16019918  1  0.100636  0.000157  0.98349  0.0  0.10993  0.000166  1.049387  0.0  0.112809  0.000115  1.049149  0.0  0.100744  0.107704  0.000235  1.050018  0.0
H  H18  1  0.62128884  0.55030167  0.28303779  1  0.081059  4.1e-05  0.962934  0.0  0.085525  0.000417  1.035065  0.0  0.088787  0.000245  1.031389  0.0  0.115457  0.083219  0.000586  1.037591  0.001
H  H19  1  0.54465270  0.05069120  0.78332506  1  0.080738  3.7e-05  0.960456  0.0  0.085551  0.000416  1.032235  0.0  0.088802  0.000246  1.028563  0.0  0.115037  0.083098  0.000581  1.035015  0.001
H  H20  1  0.37868500  0.44969696  0.71697606  1  0.080979  3.6e-05  0.962804  0.0  0.085513  0.000418  1.03491  0.0  0.08878  0.000245  1.031226  0.0  0.115416  0.0832  0.000587  1.03744  0.001
H  H21  1  0.45535682  0.94930910  0.21667339  1  0.080779  3.8e-05  0.960387  0.0  0.085574  0.000416  1.032182  0.0  0.088823  0.000246  1.028513  0.0  0.115035  0.083125  0.000581  1.034956  0.001
H  H22  1  0.96246857  0.53583660  0.35152405  1  0.075866  -4.9e-05  0.946214  0.0  0.084842  0.000343  1.010741  0.0  0.087307  0.000187  1.008387  0.0  0.115607  0.083072  0.000483  1.012395  0.0
H  H23  1  0.14983192  0.03579732  0.85153893  1  0.076695  -6.1e-05  0.94636  0.0  0.08573  0.000307  1.010544  0.0  0.088249  0.000163  1.008137  0.0  0.116008  0.083829  0.000475  1.012357  0.0
H  H24  1  0.03752680  0.46415613  0.64847135  1  0.075914  -4.8e-05  0.946141  0.0  0.084857  0.000343  1.010679  0.0  0.08734  0.000188  1.008306  0.0  0.115612  0.083087  0.000484  1.01233  0.0
H  H25  1  0.85016106  0.96421154  0.14846525  1  0.076745  -5.7e-05  0.946386  0.0  0.085767  0.000306  1.010585  0.0  0.088286  0.000163  1.008177  0.0  0.115979  0.083863  0.000474  1.012404  0.0
H  H26  1  0.06683204  0.31051005  0.41497471  1  0.120492  -6.5e-05  0.970436  0.0  0.128112  -6.7e-05  1.033755  0.0  0.132145  -0.000147  1.03219  0.0  0.103617  0.125109  3.5e-05  1.035246  0.0
H  H27  1  0.20772198  0.81025600  0.91460048  1  0.12118  -6.5e-05  0.970069  0.0  0.129081  -5.8e-05  1.033014  0.0  0.133244  -0.000142  1.031261  0.0  0.104177  0.125984  4.8e-05  1.034631  0.0
H  H28  1  0.93316915  0.68948927  0.58502124  1  0.120567  -6.6e-05  0.970326  0.0  0.128188  -6.7e-05  1.03365  0.0  0.132224  -0.000147  1.032086  0.0  0.103643  0.125184  3.5e-05  1.03514  0.0
H  H29  1  0.79228229  0.18975191  0.08540261  1  0.121198  -6.1e-05  0.970147  0.0  0.129157  -5.8e-05  1.033024  0.0  0.133309  -0.000142  1.031302  0.0  0.104201  0.126057  4.8e-05  1.034632  0.0
C  C30  1  0.76324643  0.17097101  0.54860315  1  0.693206  0.00281  3.871011  0.001  0.644829  0.006062  4.168662  0.003  0.677726  0.004768  4.16411  0.003  0.201903  0.622288  0.00722  4.170627  0.004
C  C31  1  0.51776001  0.67074746  0.04864275  1  0.693009  0.002781  3.866419  0.001  0.645064  0.00602  4.163502  0.003  0.677914  0.004743  4.158903  0.003  0.202161  0.622662  0.007207  4.165307  0.004
C  C32  1  0.23676668  0.82901424  0.45139765  1  0.693147  0.002811  3.871193  0.001  0.644772  0.006061  4.16871  0.003  0.677669  0.004769  4.164151  0.003  0.201893  0.622243  0.007219  4.170677  0.004
C  C33  1  0.48223755  0.32925470  0.95135379  1  0.693038  0.002801  3.865964  0.001  0.645026  0.006018  4.16322  0.003  0.67788  0.004747  4.158621  0.003  0.202161  0.622621  0.007208  4.165016  0.004
C  C34  1  0.76486344  0.11016263  0.43748607  1  -0.333623  -0.001038  3.664997  -0.001  -0.363776  -0.000139  3.916332  0.0  -0.368541  -0.00055  3.921184  0.0  -0.15984  -0.360675  0.000324  3.91306  0.0
C  C35  1  0.68809659  0.61003939  0.93741910  1  -0.332982  -0.001036  3.662527  -0.001  -0.363501  -9.9e-05  3.914215  0.0  -0.368135  -0.000531  3.918915  0.0  -0.160243  -0.360489  0.000343  3.911168  0.0
C  C36  1  0.23512096  0.88981512  0.56251806  1  -0.333847  -0.001057  3.66506  -0.001  -0.363758  -0.000138  3.916165  0.0  -0.368496  -0.000554  3.921049  0.0  -0.159773  -0.360647  0.000324  3.912857  0.0
C  C37  1  0.31191961  0.38996751  0.06257906  1  -0.332712  -0.001077  3.662292  -0.001  -0.363391  -9.3e-05  3.914169  0.0  -0.368038  -0.000537  3.918884  0.0  -0.160212  -0.360376  0.000343  3.911126  0.0
C  C38  1  0.42166175  0.29808140  0.37934440  1  0.085171  0.002579  3.781952  0.002  0.100196  0.003645  4.037345  0.003  0.108629  0.003274  4.056313  0.003  0.007751  0.094375  0.004252  4.024518  0.004
C  C39  1  0.90081103  0.79813030  0.87906132  1  0.086281  0.002507  3.784523  0.002  0.101117  0.003579  4.040245  0.003  0.109558  0.003232  4.059249  0.003  0.008381  0.095429  0.004142  4.027528  0.004
C  C40  1  0.57832995  0.70191235  0.62065735  1  0.085155  0.002573  3.781661  0.002  0.100166  0.003644  4.037119  0.003  0.108583  0.003275  4.056114  0.003  0.00776  0.094346  0.00425  4.024296  0.004
C  C41  1  0.09921148  0.20187564  0.12093588  1  0.086526  0.002523  3.784187  0.002  0.101478  0.003577  4.039811  0.003  0.109922  0.003235  4.058805  0.003  0.008546  0.095793  0.004142  4.027085  0.004
C  C42  1  0.57689692  0.36945845  0.34520340  1  -0.185884  -0.002118  3.746323  -0.001  -0.203107  -0.001374  3.994979  -0.001  -0.212104  -0.002055  4.016195  -0.001  -0.09965  -0.197495  -0.000623  3.981181  0.0
C  C43  1  0.70819681  0.86957155  0.84504092  1  -0.18398  -0.001901  3.744483  -0.001  -0.201959  -0.001108  3.993412  0.0  -0.211018  -0.001817  4.014669  -0.001  -0.099766  -0.196185  -0.000573  3.979628  0.0
C  C44  1  0.42308733  0.63054472  0.65479782  1  -0.185899  -0.00211  3.74611  -0.001  -0.203181  -0.001373  3.994803  -0.001  -0.212168  -0.002056  4.016016  -0.001  -0.099755  -0.197566  -0.000622  3.981  0.0
C  C45  1  0.29182086  0.13042488  0.15494975  1  -0.184107  -0.001908  3.744507  -0.001  -0.202163  -0.001105  3.993446  0.0  -0.211216  -0.001821  4.014707  -0.001  -0.099892  -0.19639  -0.000573  3.979652  0.0
C  C46  1  0.50290774  0.49429816  0.31324335  1  0.136653  0.003351  3.716955  0.003  0.106254  0.005165  3.970321  0.005  0.115293  0.004528  3.986465  0.004  0.044095  0.100045  0.005702  3.95947  0.005
C  C47  1  0.68913706  0.99448531  0.81322061  1  0.136473  0.003303  3.71463  0.003  0.105929  0.005134  3.96839  0.005  0.114955  0.004509  3.984582  0.004  0.044817  0.099896  0.005714  3.957378  0.005
C  C48  1  0.49709193  0.50569942  0.68676304  1  0.136783  0.00336  3.716592  0.003  0.106356  0.005163  3.969952  0.005  0.115395  0.00453  3.986095  0.004  0.044251  0.100152  0.005702  3.959099  0.005
C  C49  1  0.31086302  0.00551501  0.18677918  1  0.136511  0.00331  3.714644  0.003  0.105959  0.005133  3.968415  0.005  0.114986  0.004512  3.984606  0.004  0.04483  0.099923  0.005715  3.957404  0.005
C  C50  1  0.13653719  0.48546335  0.34984829  1  0.130359  0.003438  3.72927  0.003  0.100986  0.005098  3.984208  0.004  0.109276  0.004434  4.001719  0.004  0.044919  0.095538  0.005673  3.971868  0.005
C  C51  1  0.02789213  0.98544881  0.84974005  1  0.131482  0.003324  3.729032  0.003  0.101942  0.004922  3.983689  0.004  0.110136  0.004302  4.001257  0.004  0.045242  0.096517  0.005623  3.971609  0.005
C  C52  1  0.86344785  0.51453687  0.65014396  1  0.130221  0.003434  3.729795  0.003  0.100946  0.005094  3.984689  0.004  0.109219  0.004433  4.002201  0.004  0.044898  0.095499  0.00567  3.972345  0.005
C  C53  1  0.97210088  0.01455988  0.15025130  1  0.131323  0.003331  3.728798  0.003  0.101775  0.004923  3.983486  0.004  0.109968  0.004302  4.001057  0.004  0.045135  0.09635  0.005624  3.971408  0.005
C  C54  1  0.19487038  0.36010291  0.38281397  1  -0.1788  -0.002032  3.716633  -0.001  -0.196937  -0.001313  3.969475  -0.001  -0.205546  -0.002026  3.98848  -0.001  -0.095036  -0.191129  -0.000779  3.956844  0.0
C  C55  1  0.06210071  0.86006392  0.88251876  1  -0.181368  -0.002039  3.718247  -0.001  -0.199473  -0.001402  3.971081  -0.001  -0.208187  -0.002094  3.990076  -0.001  -0.09639  -0.193961  -0.000762  3.958756  0.0
C  C56  1  0.80512387  0.63989081  0.61718526  1  -0.178788  -0.00203  3.716615  -0.001  -0.196934  -0.001311  3.96942  -0.001  -0.205545  -0.002029  3.988444  -0.001  -0.095027  -0.191127  -0.000778  3.956795  0.0
C  C57  1  0.93789855  0.13995344  0.11748620  1  -0.181451  -0.002074  3.718213  -0.001  -0.199683  -0.001401  3.971146  -0.001  -0.208403  -0.002097  3.990138  -0.001  -0.096455  -0.194156  -0.000762  3.9588  0.0
S  S58  1  0.49227192  0.13793852  0.41196104  1  0.080845  0.001179  2.471996  0.001  0.07817  0.00272  2.814894  0.002  0.073691  0.001815  2.81514  0.002  0.046203  0.081713  0.004103  2.814667  0.003
S  S59  1  0.95830323  0.63798292  0.91162292  1  0.08087  0.00131  2.473732  0.001  0.078423  0.002966  2.817076  0.002  0.07387  0.001983  2.817281  0.002  0.046629  0.081696  0.004228  2.816809  0.003
S  S60  1  0.50770055  0.86205813  0.58804552  1  0.080849  0.001184  2.472046  0.001  0.078102  0.002719  2.81486  0.002  0.073627  0.001814  2.815104  0.002  0.046172  0.081641  0.004102  2.814626  0.003
S  S61  1  0.04170236  0.36203065  0.08838085  1  0.080742  0.001311  2.473478  0.001  0.078313  0.002966  2.81683  0.002  0.073768  0.001983  2.81704  0.002  0.046592  0.08159  0.004228  2.816564  0.003
N  N62  1  0.28687532  0.55294558  0.31385543  1  -0.346325  0.024031  3.232993  0.011  -0.274474  0.02639  3.502876  0.009  -0.294529  0.023253  3.517936  0.007  -0.330825  -0.259729  0.029354  3.492096  0.012
N  N63  1  0.84589359  0.05304044  0.81386016  1  -0.34682  0.024059  3.235385  0.011  -0.274424  0.026342  3.504982  0.009  -0.294502  0.023257  3.52009  0.007  -0.33074  -0.259906  0.029212  3.49423  0.011
N  N64  1  0.71311872  0.44706133  0.68614385  1  -0.346312  0.024033  3.23355  0.011  -0.274555  0.026395  3.503486  0.009  -0.294607  0.023257  3.518547  0.007  -0.330899  -0.259807  0.029358  3.492698  0.012
N  N65  1  0.15410564  0.94696454  0.18613492  1  -0.346755  0.024045  3.235205  0.011  -0.274293  0.02634  3.504733  0.009  -0.29437  0.023252  3.519841  0.007  -0.33061  -0.25978  0.02921  3.49399  0.011
O  O66  1  0.58290044  0.20787057  0.62913308  1  -0.66479  0.019695  2.046171  0.014  -0.601389  0.02634  2.289858  0.02  -0.631288  0.022728  2.281833  0.016  -0.305507  -0.579489  0.029996  2.294499  0.023
O  O67  1  0.58077346  0.70734502  0.12924362  1  -0.664187  0.019566  2.044246  0.014  -0.600778  0.026153  2.287598  0.02  -0.63067  0.022591  2.279573  0.016  -0.305546  -0.578694  0.029904  2.291705  0.023
O  O68  1  0.41712664  0.79212137  0.37087463  1  -0.664821  0.019687  2.046177  0.014  -0.601452  0.026331  2.28987  0.02  -0.631347  0.022722  2.281844  0.016  -0.305589  -0.579555  0.029987  2.294506  0.023
O  O69  1  0.41921240  0.29265537  0.87076061  1  -0.664212  0.01956  2.044228  0.014  -0.600801  0.026151  2.287636  0.02  -0.630704  0.022589  2.27963  0.016  -0.305549  -0.57871  0.029901  2.291735  0.023
O  O70  1  0.95222769  0.17832851  0.55825051  1  -0.640639  0.024885  1.974745  0.018  -0.576798  0.031164  2.216667  0.022  -0.607192  0.02758  2.209182  0.019  -0.310891  -0.554452  0.034629  2.220919  0.025
O  O71  1  0.31167859  0.67831142  0.05824372  1  -0.641997  0.024967  1.973676  0.018  -0.578131  0.031277  2.215376  0.022  -0.608477  0.027652  2.207785  0.019  -0.310939  -0.555516  0.034703  2.219459  0.025
O  O72  1  0.04779213  0.82165654  0.44173567  1  -0.640464  0.024887  1.974641  0.018  -0.576692  0.031169  2.216646  0.022  -0.60708  0.027584  2.209155  0.019  -0.310806  -0.554348  0.034635  2.220864  0.025
O  O73  1  0.68832972  0.32169243  0.94173805  1  -0.642015  0.024968  1.97327  0.018  -0.578085  0.03128  2.214977  0.022  -0.608414  0.027655  2.207369  0.019  -0.310911  -0.555513  0.034709  2.219166  0.025
O  O74  1  0.14719504  0.24970897  0.75012435  1  -0.830682  0.029313  1.865259  0.017  -0.764555  0.03965  2.071428  0.024  -0.78803  0.035305  2.032824  0.02  -0.565691  -0.746972  0.043673  2.098571  0.027
O  O75  1  0.85279483  0.75030739  0.24987596  1  -0.83078  0.029315  1.86523  0.017  -0.764675  0.039653  2.071388  0.024  -0.788148  0.035307  2.032785  0.02  -0.565755  -0.747089  0.043676  2.098537  0.027
