# generated using pymatgen
data_GaCuH8C8(N2F3)2
_symmetry_space_group_name_H-M   'P 1'
_cell_length_a   7.58813392
_cell_length_b   9.78649844
_cell_length_c   9.78653318
_cell_angle_alpha   89.99975015
_cell_angle_beta   90.00011604
_cell_angle_gamma   90.00004630
_symmetry_Int_Tables_number   1
_chemical_formula_structural   GaCuH8C8(N2F3)2
_chemical_formula_sum   'Ga2 Cu2 H16 C16 N8 F12'
_cell_volume   726.76029252
_cell_formula_units_Z   2
loop_
 _symmetry_equiv_pos_site_id
 _symmetry_equiv_pos_as_xyz
  1  'x, y, z'
loop_
 _atom_site_type_symbol
 _atom_site_label
 _atom_site_symmetry_multiplicity
 _atom_site_fract_x
 _atom_site_fract_y
 _atom_site_fract_z
 _atom_site_occupancy
 _atom_site_pbe_bader_charge
 _atom_site_pbe_bader_spin_density
 _atom_site_pbe_cm5_charge
 _atom_site_pbe_ddec_charge
 _atom_site_pbe_ddec_spin_density
 _atom_site_pbe_ddec_sum_bond_order
 _atom_site_pbe_magmom
Ga  Ga0  1  0.50000000  0.25000048  0.25000069  1  1.906339  0.00949  0.445526  1.496326  0.011333  2.969001  0.015
Ga  Ga1  1  0.50000051  0.75000043  0.75000001  1  1.905343  -0.00955  0.445446  1.495546  -0.011384  2.970945  -0.015
Cu  Cu2  1  0.99999908  0.25000048  0.25000069  1  1.293872  0.84204  0.903318  0.885599  1.160408  2.626561  0.833
Cu  Cu3  1  0.99999959  0.75000043  0.75000001  1  1.288873  -0.842189  0.906108  0.883915  -1.160751  2.636551  -0.834
H  H4  1  0.25923789  0.14689509  0.03356858  1  0.267568  0.001615  0.132903  0.138111  0.000776  1.017428  0.002
H  H5  1  0.25923660  0.35310690  0.46643279  1  0.267684  0.001614  0.132883  0.138099  0.000776  1.017435  0.002
H  H6  1  0.25923720  0.46643176  0.14689574  1  0.2675  0.001614  0.132886  0.138091  0.000775  1.017435  0.002
H  H7  1  0.25923597  0.03356920  0.35310461  1  0.26752  0.001614  0.132899  0.138108  0.000776  1.017459  0.002
H  H8  1  0.74076361  0.35310368  0.03356960  1  0.267504  0.001614  0.132887  0.138097  0.000775  1.017483  0.002
H  H9  1  0.74076321  0.14689627  0.46643075  1  0.267495  0.001614  0.132888  0.138092  0.000775  1.017453  0.002
H  H10  1  0.74076357  0.03356806  0.14689267  1  0.267692  0.001614  0.132899  0.138119  0.000776  1.017475  0.002
H  H11  1  0.74076324  0.46643189  0.35310563  1  0.26757  0.001614  0.132898  0.138109  0.000775  1.017445  0.002
H  H12  1  0.74080742  0.85264294  0.96603668  1  0.255156  -0.001613  0.132731  0.137563  -0.000764  1.018568  -0.002
H  H13  1  0.74080607  0.64735689  0.53396335  1  0.255108  -0.001613  0.132727  0.13755  -0.000764  1.018572  -0.002
H  H14  1  0.74080811  0.53396050  0.85264514  1  0.255195  -0.001613  0.132728  0.137575  -0.000764  1.018501  -0.002
H  H15  1  0.74080670  0.96603831  0.64735488  1  0.255121  -0.001613  0.132716  0.137554  -0.000764  1.018512  -0.002
H  H16  1  0.25919340  0.64735501  0.96603770  1  0.255115  -0.001613  0.132722  0.137564  -0.000764  1.018501  -0.002
H  H17  1  0.25919117  0.85264482  0.53396232  1  0.255168  -0.001613  0.132706  0.137562  -0.000764  1.018561  -0.002
H  H18  1  0.25919344  0.96603843  0.85264412  1  0.255154  -0.001613  0.132721  0.137558  -0.000764  1.018534  -0.002
H  H19  1  0.25919114  0.53396242  0.64735794  1  0.255191  -0.001613  0.132726  0.137566  -0.000764  1.018584  -0.002
C  C20  1  0.14244095  0.08206604  0.01871960  1  0.414444  -0.01072  0.083789  0.079126  -0.006571  3.790682  -0.008
C  C21  1  0.14243987  0.41793492  0.48128075  1  0.414341  -0.01072  0.083842  0.07921  -0.006571  3.79066  -0.008
C  C22  1  0.14244153  0.48128005  0.08206686  1  0.414474  -0.010721  0.083797  0.079119  -0.006571  3.790645  -0.008
C  C23  1  0.14243929  0.01872091  0.41793349  1  0.414518  -0.010721  0.083786  0.079137  -0.006571  3.790714  -0.008
C  C24  1  0.85756047  0.41793285  0.01872062  1  0.4145  -0.010721  0.083796  0.079132  -0.006571  3.790711  -0.008
C  C25  1  0.85755869  0.08206709  0.48127870  1  0.414485  -0.010721  0.083787  0.079125  -0.006571  3.790672  -0.008
C  C26  1  0.85756022  0.01871931  0.08206481  1  0.414349  -0.01072  0.083825  0.079161  -0.006571  3.790699  -0.008
C  C27  1  0.85755894  0.48128063  0.41793452  1  0.414451  -0.010721  0.083808  0.079143  -0.006571  3.790678  -0.008
C  C28  1  0.85755164  0.91753431  0.98090507  1  0.518672  0.010804  0.084652  0.080021  0.00662  3.791085  0.008
C  C29  1  0.85755140  0.58246551  0.51909495  1  0.518717  0.010804  0.084706  0.080092  0.00662  3.791154  0.008
C  C30  1  0.85755238  0.51909280  0.91753636  1  0.518696  0.010803  0.084729  0.08009  0.00662  3.791197  0.008
C  C31  1  0.85755067  0.98090703  0.58246367  1  0.518756  0.010803  0.084756  0.080121  0.00662  3.791115  0.008
C  C32  1  0.14244926  0.58246350  0.98090711  1  0.518749  0.010803  0.084732  0.080091  0.00662  3.79109  0.008
C  C33  1  0.14244708  0.91753633  0.51909393  1  0.5187  0.010803  0.084725  0.080037  0.00662  3.791109  0.008
C  C34  1  0.14244951  0.98090557  0.91753534  1  0.518672  0.010804  0.084727  0.080094  0.00662  3.791182  0.008
C  C35  1  0.14244815  0.51909426  0.58246571  1  0.518635  0.010803  0.084679  0.080003  0.00662  3.791155  0.008
N  N36  1  0.00000036  0.09820937  0.09820842  1  -1.204538  0.135474  -0.297838  -0.184565  0.094757  3.564555  0.117
N  N37  1  0.99999963  0.40179058  0.40179090  1  -1.204552  0.135469  -0.29787  -0.18462  0.094753  3.564594  0.117
N  N38  1  0.00000068  0.40178884  0.09821149  1  -1.204571  0.135468  -0.297872  -0.18456  0.094753  3.564621  0.117
N  N39  1  0.99999932  0.09821009  0.40178886  1  -1.204594  0.13547  -0.297862  -0.184563  0.094754  3.564671  0.117
N  N40  1  0.00000066  0.90144106  0.90143975  1  -1.192446  -0.135475  -0.298158  -0.184021  -0.094719  3.567902  -0.117
N  N41  1  0.99999904  0.59855877  0.59856028  1  -1.192447  -0.135476  -0.298152  -0.18399  -0.094719  3.567879  -0.117
N  N42  1  0.00000034  0.59855847  0.90144077  1  -1.192479  -0.135477  -0.298156  -0.184035  -0.09472  3.567944  -0.117
N  N43  1  0.99999935  0.90144136  0.59855925  1  -1.192462  -0.135476  -0.298158  -0.184009  -0.094719  3.567874  -0.117
F  F44  1  0.24317005  0.25000048  0.25000375  1  -0.686311  0.099056  -0.276056  -0.529163  0.067171  1.409511  0.095
F  F45  1  0.75682994  0.25000048  0.24999864  1  -0.686324  0.099056  -0.276069  -0.52919  0.067171  1.409524  0.095
F  F46  1  0.75673029  0.75000043  0.75000103  1  -0.686217  -0.099417  -0.27565  -0.528622  -0.067384  1.410611  -0.096
F  F47  1  0.24327072  0.74999940  0.75000001  1  -0.686203  -0.099418  -0.275651  -0.528522  -0.067384  1.410562  -0.096
F  F48  1  0.49999624  0.44340776  0.25000069  1  -0.713801  0.014635  -0.335849  -0.581557  0.009471  0.888741  0.013
F  F49  1  0.49999848  0.05659219  0.25000069  1  -0.713807  0.014636  -0.335842  -0.581553  0.009472  0.888744  0.013
F  F50  1  0.50000577  0.24999964  0.44340727  1  -0.713798  0.014636  -0.335849  -0.581553  0.009472  0.888761  0.013
F  F51  1  0.50000213  0.25000030  0.05659307  1  -0.713785  0.014635  -0.335851  -0.581564  0.009471  0.888771  0.013
F  F52  1  0.49999240  0.55659724  0.75000103  1  -0.713239  -0.014566  -0.335638  -0.581074  -0.009423  0.889149  -0.013
F  F53  1  0.49999148  0.94340259  0.74999899  1  -0.713241  -0.014565  -0.335643  -0.581085  -0.009422  0.889166  -0.013
F  F54  1  0.50000923  0.75000025  0.55659853  1  -0.713241  -0.014565  -0.335642  -0.581077  -0.009422  0.889163  -0.013
F  F55  1  0.50001024  0.74999958  0.94340251  1  -0.71325  -0.014565  -0.335646  -0.58108  -0.009422  0.88915  -0.013
