# generated using pymatgen
data_ZnH13C27NO10F
_symmetry_space_group_name_H-M   'P 1'
_cell_length_a   15.98331539
_cell_length_b   16.52739909
_cell_length_c   17.96812244
_cell_angle_alpha   89.62490603
_cell_angle_beta   89.44280783
_cell_angle_gamma   89.81997422
_symmetry_Int_Tables_number   1
_chemical_formula_structural   ZnH13C27NO10F
_chemical_formula_sum   'Zn2 H26 C54 N2 O20 F2'
_cell_volume   4746.15787932
_cell_formula_units_Z   2
loop_
 _symmetry_equiv_pos_site_id
 _symmetry_equiv_pos_as_xyz
  1  'x, y, z'
loop_
 _atom_site_type_symbol
 _atom_site_label
 _atom_site_symmetry_multiplicity
 _atom_site_fract_x
 _atom_site_fract_y
 _atom_site_fract_z
 _atom_site_occupancy
 _atom_site_pbe_bader_charge
 _atom_site_pbe_bader_spin_density
 _atom_site_pbe_cm5_charge
 _atom_site_pbe_ddec_charge
 _atom_site_pbe_ddec_spin_density
 _atom_site_pbe_ddec_sum_bond_order
 _atom_site_pbe_magmom
Zn  Zn0  1  0.50089863  0.41752570  0.50300471  1  1.294364  0  0.67652  0.821978  0  2.44547  0
Zn  Zn1  1  0.50350622  0.58700083  0.50260601  1  1.297357  0  0.674387  0.821266  0  2.404815  0
H  H2  1  0.38341497  0.29361145  0.44514818  1  0.159629  0  0.142679  0.127998  0  0.961517  0
H  H3  1  0.94245704  0.56606069  0.59771433  1  0.104215  0  0.109578  0.130372  0  0.973366  0
H  H4  1  0.61502512  0.45499636  0.88295453  1  0.102996  0  0.111287  0.107705  0  0.995286  0
H  H5  1  0.35085604  0.50634582  0.87774257  1  0.072966  0  0.112164  0.109473  0  0.994151  0
H  H6  1  0.34913550  0.50410886  0.13102384  1  0.095054  0  0.112989  0.110266  0  0.992005  0
H  H7  1  0.61416096  0.45589285  0.12284225  1  0.077797  0  0.110308  0.106493  0  0.997954  0
H  H8  1  0.27784370  0.53055072  0.23571243  1  0.064966  0  0.102086  0.032667  0  0.962057  0
H  H9  1  0.69557661  0.45152162  0.22424175  1  0.045393  0  0.097823  0.024978  0  0.962281  0
H  H10  1  0.35222555  0.06601832  0.43375523  1  0.046035  0  0.100116  0.032359  0  0.984548  0
H  H11  1  0.40617277  0.93903084  0.37934632  1  0.027162  0  0.100528  0.033151  0  0.984888  0
H  H12  1  0.00910046  0.42300464  0.32717485  1  0.14049  0  0.116205  0.070397  0  0.971778  0
H  H13  1  0.42807444  0.71123978  0.40532174  1  0.181962  0  0.139884  0.123621  0  0.968927  0
H  H14  1  0.16279034  0.57987671  0.38189684  1  0.130544  0  0.1162  0.070541  0  1.002707  0
H  H15  1  0.13207948  0.64440800  0.53581496  1  0.095835  0  0.115806  0.058548  0  0.96024  0
H  H16  1  0.04167665  0.28902215  0.47566257  1  0.089726  0  0.11114  0.050471  0  0.949164  0
H  H17  1  0.14105914  0.39118225  0.60774020  1  0.118832  0  0.119919  0.067554  0  0.946607  0
H  H18  1  0.16609880  0.54078550  0.62840424  1  0.125264  0  0.108715  0.052204  0  1.019596  0
H  H19  1  0.69655670  0.44918779  0.78130552  1  0.023349  0  0.09748  0.024687  0  0.963241  0
H  H20  1  0.28143368  0.53541122  0.77527166  1  0.015601  0  0.098883  0.026506  0  0.96494  0
H  H21  1  0.61165904  0.28465010  0.55268388  1  0.150526  0  0.138201  0.117448  0  0.958888  0
H  H22  1  0.57754496  0.72019954  0.59232340  1  0.141273  0  0.139665  0.117459  0  0.951019  0
H  H23  1  0.61269437  0.13223230  0.55283132  1  0.105797  0  0.123712  0.134464  0  0.969355  0
H  H24  1  0.57699258  0.87246953  0.59151117  1  0.098554  0  0.124067  0.134911  0  0.968794  0
H  H25  1  0.92315740  0.62520019  0.46124496  1  0.122454  0  0.117167  0.085108  0  0.961262  0
H  H26  1  0.94234553  0.37024923  0.51116438  1  0.073227  0  0.105952  0.060063  0  0.985664  0
H  H27  1  0.92342325  0.46183916  0.61226082  1  0.098246  0  0.110004  0.1308  0  0.973658  0
C  C28  1  0.49517030  0.50523928  0.35725126  1  1.65127  0  0.217392  0.593889  0  4.24155  0
C  C29  1  0.41464371  0.50643288  0.77166071  1  0.010212  0  -0.013581  -0.013477  0  3.986407  0
C  C30  1  0.49151461  0.49763420  0.73296307  1  -0.021355  0  0.029494  -8e-06  0  3.783903  0
C  C31  1  0.48234340  0.47975628  0.89122757  1  0.077676  0  0.000747  0.139683  0  4.134579  0
C  C32  1  0.47905782  0.47431176  0.96977918  1  -0.071274  0  -0.046442  -0.110194  0  4.120851  0
C  C33  1  0.34107484  0.50329020  0.50288523  1  1.715417  0  0.228028  0.675026  0  4.232848  0
C  C34  1  0.47862072  0.47411667  0.03767396  1  -0.308114  0  -0.041321  -0.095874  0  4.116562  0
C  C35  1  0.40930836  0.49731351  0.15871204  1  -0.039799  0  -0.056865  -0.122369  0  3.885263  0
C  C36  1  0.55723423  0.47038928  0.15414360  1  -0.077751  0  -0.058928  -0.125045  0  3.897332  0
C  C37  1  0.41280731  0.50723700  0.23593034  1  -0.006644  0  -0.011002  -0.009692  0  3.98112  0
C  C38  1  0.56196746  0.48051217  0.23112281  1  0.03457  0  -0.012926  -0.010361  0  3.990648  0
C  C39  1  0.95556827  0.50548825  0.57568734  1  -0.06186  0  -0.151938  -0.247921  0  3.842476  0
C  C40  1  0.48968336  0.49933402  0.27348202  1  0.011568  0  0.032058  -0.002411  0  3.789228  0
C  C41  1  0.48122024  0.47946515  0.11616760  1  0.114256  0  -0.000727  0.133976  0  4.136797  0
C  C42  1  0.42859865  0.17146815  0.46375715  1  0.03621  0  -0.001693  -0.065895  0  3.919503  0
C  C43  1  0.45518833  0.83336840  0.44054569  1  0.009959  0  -0.001711  -0.06985  0  3.923542  0
C  C44  1  0.43333511  0.25577626  0.46773685  1  0.527756  0  0.091733  0.113513  0  3.818233  0
C  C45  1  0.45979253  0.74906997  0.44576403  1  0.524885  0  0.090439  0.114198  0  3.823254  0
C  C46  1  0.56065966  0.24980778  0.52898315  1  0.527481  0  0.075841  0.120656  0  3.89009  0
C  C47  1  0.54387050  0.75486325  0.55026433  1  0.403545  0  0.078421  0.123512  0  3.887729  0
C  C48  1  0.56099637  0.16594518  0.52851457  1  -0.041307  0  -0.064438  -0.163674  0  3.906149  0
C  C49  1  0.54321425  0.83876665  0.54956357  1  0.104296  0  -0.063276  -0.163516  0  3.903223  0
C  C50  1  0.04984996  0.48866566  0.57605366  1  -0.04896  0  -0.017218  -0.044702  0  3.74343  0
C  C51  1  0.49383962  0.12486268  0.49559092  1  0.09761  0  0.031209  0.145282  0  4.075443  0
C  C52  1  0.49784968  0.87996657  0.49407604  1  0.122129  0  0.032004  0.148455  0  4.075406  0
C  C53  1  0.49712962  0.50352737  0.64903323  1  1.651263  0  0.214171  0.592506  0  4.241698  0
C  C54  1  0.49355469  0.03929531  0.49423782  1  -0.1975  0  -0.019336  -0.083235  0  4.082534  0
C  C55  1  0.49553757  0.96552843  0.49316389  1  -0.174298  0  -0.020633  -0.085604  0  4.08229  0
C  C56  1  0.66325562  0.49740157  0.50289621  1  1.694372  0  0.23159  0.689658  0  4.210288  0
C  C57  1  0.04737169  0.42109257  0.44780689  1  -0.050171  0  -0.02036  -0.121494  0  3.729616  0
C  C58  1  0.04942293  0.57580655  0.45866200  1  -0.061315  0  -0.02072  -0.121594  0  3.738015  0
C  C59  1  0.95439771  0.56796612  0.44728633  1  0.495602  0  0.03396  0.140052  0  3.780297  0
C  C60  1  0.95325861  0.41562651  0.46694620  1  0.498703  0  0.02775  0.127441  0  3.824827  0
C  C61  1  0.82939776  0.49818725  0.49841264  1  -0.495022  0  -0.033179  -0.041359  0  4.019504  0
C  C62  1  0.75361068  0.49730740  0.50139975  1  0.253774  0  -0.033649  -0.156851  0  3.943954  0
C  C63  1  0.08569971  0.49502585  0.49284781  1  0.181456  0  0.028107  0.095974  0  3.79504  0
C  C64  1  0.92002763  0.49770787  0.49587390  1  0.135346  0  -0.002267  0.061617  0  3.92109  0
C  C65  1  0.33243386  0.52674432  0.27402008  1  0.932997  0  0.108181  0.277812  0  3.949158  0
C  C66  1  0.64608581  0.47155584  0.26472415  1  0.954888  0  0.10273  0.26797  0  3.972055  0
C  C67  1  0.35605765  0.13314535  0.42703596  1  0.970069  0  0.104929  0.274187  0  3.970907  0
C  C68  1  0.40677681  0.87148062  0.37948374  1  0.987183  0  0.105987  0.27844  0  3.969831  0
C  C69  1  0.06405078  0.43169341  0.36304666  1  0.953267  0  0.110272  0.277839  0  3.850757  0
C  C70  1  0.09832999  0.60465182  0.38706295  1  0.968691  0  0.10891  0.275666  0  3.848765  0
C  C71  1  0.06873678  0.64728745  0.51042501  1  0.93356  0  0.109385  0.281218  0  3.885857  0
C  C72  1  0.17582317  0.49641976  0.49329781  1  -0.53115  0  -0.043943  -0.108533  0  4.137006  0
C  C73  1  0.08841467  0.33818951  0.46589278  1  0.936548  0  0.10824  0.268665  0  3.893356  0
C  C74  1  0.07289135  0.40483946  0.60807267  1  0.915628  0  0.108683  0.270917  0  3.87405  0
C  C75  1  0.09658029  0.54411159  0.63129099  1  0.913927  0  0.101571  0.249721  0  3.890589  0
C  C76  1  0.64808499  0.47050611  0.74100709  1  0.986038  0  0.100735  0.268622  0  3.97828  0
C  C77  1  0.33358105  0.52262199  0.73495436  1  0.986679  0  0.103356  0.272462  0  3.968967  0
C  C78  1  0.25094844  0.50340443  0.49919925  1  0.249867  0  -0.014503  -0.113715  0  3.914167  0
C  C79  1  0.55833067  0.46972321  0.85220151  1  0.031825  0  -0.059207  -0.123946  0  3.890055  0
C  C80  1  0.41097181  0.49832380  0.84928255  1  -0.034062  0  -0.058856  -0.125755  0  3.887298  0
C  C81  1  0.56352048  0.47939727  0.77493915  1  -0.021928  0  -0.013747  -0.014247  0  3.992065  0
N  N82  1  0.49753106  0.29360256  0.49968005  1  -1.24019  0  -0.308403  -0.184071  0  3.495578  0
N  N83  1  0.50273728  0.71106349  0.49926741  1  -1.247697  0  -0.306817  -0.180624  0  3.492527  0
O  O84  1  0.49252494  0.43699352  0.38985858  1  -1.145102  0  -0.310583  -0.53963  0  2.325437  0
O  O85  1  0.66301131  0.48461248  0.32956443  1  -1.050951  0  -0.231622  -0.301637  0  2.168579  0
O  O86  1  0.30383407  0.17079938  0.39163814  1  -1.036685  0  -0.241618  -0.318033  0  2.081765  0
O  O87  1  0.36998482  0.83314911  0.33207654  1  -1.034948  0  -0.245941  -0.324333  0  2.072597  0
O  O88  1  0.13346986  0.44643978  0.33821985  1  -1.060281  0  -0.225694  -0.302618  0  2.168262  0
O  O89  1  0.06908360  0.65372962  0.34418674  1  -1.042351  0  -0.238246  -0.301579  0  2.115635  0
O  O90  1  0.02202606  0.70436639  0.52048726  1  -1.04535  0  -0.235855  -0.30913  0  2.107819  0
O  O91  1  0.16307976  0.32561311  0.46763704  1  -1.02403  0  -0.219519  -0.283568  0  2.159647  0
O  O92  1  0.02182213  0.35705401  0.63320279  1  -1.06899  0  -0.244148  -0.324095  0  2.11947  0
O  O93  1  0.05972673  0.58406104  0.67800676  1  -1.053885  0  -0.244572  -0.310392  0  2.110579  0
O  O94  1  0.66663240  0.48499460  0.67624136  1  -1.062184  0  -0.238229  -0.313152  0  2.167818  0
O  O95  1  0.50214083  0.57440906  0.38593102  1  -1.146969  0  -0.305993  -0.535703  0  2.311451  0
O  O96  1  0.32055794  0.52180524  0.66799664  1  -1.064285  0  -0.236932  -0.318853  0  2.190215  0
O  O97  1  0.37412832  0.43343360  0.50507743  1  -1.138432  0  -0.299592  -0.520769  0  2.285398  0
O  O98  1  0.37726644  0.57152771  0.50346942  1  -1.137248  0  -0.306726  -0.535441  0  2.299806  0
O  O99  1  0.49706544  0.43545964  0.61700663  1  -1.151653  0  -0.311658  -0.540461  0  2.317909  0
O  O100  1  0.50119330  0.57332436  0.62009062  1  -1.156572  0  -0.31053  -0.541731  0  2.29033  0
O  O101  1  0.62747650  0.42865184  0.50294315  1  -1.140316  0  -0.30803  -0.541889  0  2.281422  0
O  O102  1  0.62806459  0.56653728  0.50372923  1  -1.129958  0  -0.30761  -0.533904  0  2.279642  0
O  O103  1  0.32350043  0.53853751  0.34063272  1  -1.041509  0  -0.230658  -0.309453  0  2.193083  0
F  F104  1  0.90857361  0.38734778  0.40530602  1  -0.620403  0  -0.130758  -0.178755  0  1.286641  0
F  F105  1  0.93617454  0.55120035  0.37234265  1  -0.617638  0  -0.127187  -0.171302  0  1.290549  0
