# generated using pymatgen
data_Zn2H26C19(N3O4)2
_symmetry_space_group_name_H-M   'P 1'
_cell_length_a   9.93839248
_cell_length_b   16.98823544
_cell_length_c   16.98896223
_cell_angle_alpha   116.28290824
_cell_angle_beta   101.23633886
_cell_angle_gamma   101.25853079
_symmetry_Int_Tables_number   1
_chemical_formula_structural   Zn2H26C19(N3O4)2
_chemical_formula_sum   'Zn6 H78 C57 N18 O24'
_cell_volume   2389.77547614
_cell_formula_units_Z   3
loop_
 _symmetry_equiv_pos_site_id
 _symmetry_equiv_pos_as_xyz
  1  'x, y, z'
loop_
 _atom_site_type_symbol
 _atom_site_label
 _atom_site_symmetry_multiplicity
 _atom_site_fract_x
 _atom_site_fract_y
 _atom_site_fract_z
 _atom_site_occupancy
 _atom_site_pbe_bader_charge
 _atom_site_pbe_bader_spin_density
 _atom_site_pbe_cm5_charge
 _atom_site_pbe_ddec_charge
 _atom_site_pbe_ddec_spin_density
 _atom_site_pbe_ddec_sum_bond_order
 _atom_site_pbe_magmom
Zn  Zn0  1  0.63840952  0.68376484  0.30685840  1  1.253871  0  0.730341  0.75066  0  2.474022  0
Zn  Zn1  1  0.33148707  0.69299892  0.37673124  1  1.255671  0  0.729616  0.749139  0  2.474336  0
Zn  Zn2  1  0.95458556  0.62315121  0.31628400  1  1.254205  0  0.730413  0.750965  0  2.474738  0
Zn  Zn3  1  0.12314795  0.30748405  0.68427476  1  1.251885  0  0.719142  0.745005  0  2.46245  0
Zn  Zn4  1  0.43909755  0.31576572  0.62334627  1  1.251202  0  0.719116  0.745902  0  2.462119  0
Zn  Zn5  1  0.81579037  0.37672231  0.69252781  1  1.253576  0  0.719114  0.745493  0  2.46143  0
H  H6  1  0.38021823  0.37316050  0.02222529  1  0.540494  0  0.302084  0.281094  0  1.021219  0
H  H7  1  0.35823369  0.97781439  0.35093695  1  0.530973  0  0.303452  0.284104  0  1.017436  0
H  H8  1  0.00744963  0.64896893  0.62672910  1  0.526189  0  0.302547  0.282071  0  1.019226  0
H  H9  1  0.86869566  0.36771953  0.97829559  1  0.526178  0  0.30808  0.286107  0  0.992023  0
H  H10  1  0.89077208  0.02171009  0.38950875  1  0.51682  0  0.307798  0.282616  0  0.994711  0
H  H11  1  0.50131116  0.61053012  0.63221935  1  0.528141  0  0.30796  0.28445  0  0.993072  0
H  H12  1  0.45492406  0.38736526  0.15890509  1  0.064862  0  0.126275  0.086206  0  0.937321  0
H  H13  1  0.29625938  0.84114583  0.22851921  1  0.045212  0  0.126014  0.086258  0  0.937738  0
H  H14  1  0.06813823  0.77156054  0.61267682  1  0.064161  0  0.125237  0.085375  0  0.937102  0
H  H15  1  0.00016908  0.23164807  0.86996073  1  0.093173  0  0.119343  0.084041  0  0.959643  0
H  H16  1  0.13068258  0.13018176  0.36189188  1  0.098681  0  0.119631  0.083983  0  0.95866  0
H  H17  1  0.76887523  0.63812228  0.76818234  1  0.075116  0  0.120712  0.086303  0  0.959138  0
H  H18  1  0.34761833  0.53683976  0.17829022  1  0.15941  0  0.119131  0.117004  0  1.050798  0
H  H19  1  0.16970583  0.82175003  0.35894584  1  0.180995  0  0.119093  0.116008  0  1.051992  0
H  H20  1  0.81075449  0.64112564  0.46278326  1  0.158951  0  0.11989  0.117703  0  1.049767  0
H  H21  1  0.65381576  0.36287308  0.82176456  1  0.150434  0  0.117067  0.10797  0  1.062454  0
H  H22  1  0.83218413  0.17832713  0.54111715  1  0.164516  0  0.116595  0.107563  0  1.063003  0
H  H23  1  0.29105259  0.45875925  0.63707800  1  0.15494  0  0.116727  0.107627  0  1.062833  0
H  H24  1  0.24654144  0.32559428  0.87893706  1  0.168405  0  0.119908  0.115522  0  1.066136  0
H  H25  1  0.36777475  0.12112349  0.44664390  1  0.156259  0  0.120499  0.116441  0  1.066818  0
H  H26  1  0.92144998  0.55351564  0.67464440  1  0.164531  0  0.121244  0.117841  0  1.06728  0
H  H27  1  0.88251415  0.45165496  0.12356758  1  0.164955  0  0.121677  0.112404  0  1.072939  0
H  H28  1  0.75933149  0.87638520  0.32789266  1  0.176256  0  0.122453  0.113782  0  1.071915  0
H  H29  1  0.43125964  0.67194147  0.54835048  1  0.178372  0  0.122075  0.113803  0  1.070194  0
H  H30  1  0.76575897  0.16822625  0.88443481  1  0.031407  0  0.099652  0.14194  0  0.974541  0
H  H31  1  0.88179540  0.11577443  0.28409979  1  0.039466  0  0.099274  0.141215  0  0.975198  0
H  H32  1  0.59794001  0.71601339  0.83163677  1  0.030644  0  0.099259  0.141145  0  0.975069  0
H  H33  1  0.73651524  0.14299946  0.76773723  1  0.064364  0  0.09143  0.125156  0  1.051598  0
H  H34  1  0.96924824  0.23244505  0.37564669  1  0.025115  0  0.091063  0.124478  0  1.051593  0
H  H35  1  0.59374665  0.62446388  0.85679129  1  0.033796  0  0.091355  0.124254  0  1.052543  0
H  H36  1  0.68552259  0.23467881  0.84512683  1  0.050007  0  0.092667  0.128733  0  1.033067  0
H  H37  1  0.84087504  0.15492801  0.38984934  1  0.051622  0  0.092279  0.128256  0  1.035402  0
H  H38  1  0.45117667  0.61028366  0.76512186  1  0.026396  0  0.091786  0.127176  0  1.034882  0
H  H39  1  0.54720109  0.25514823  0.09361168  1  0.041861  0  0.088163  0.123629  0  0.995282  0
H  H40  1  0.45349504  0.90650497  0.16147261  1  0.004679  0  0.088127  0.124129  0  0.995438  0
H  H41  1  0.29270857  0.83836885  0.74483471  1  0.040323  0  0.088437  0.124837  0  0.995439  0
H  H42  1  0.65268764  0.33870994  0.21123333  1  0.082255  0  0.092739  0.139922  0  1.04222  0
H  H43  1  0.44157291  0.78889767  0.12740309  1  0.091738  0  0.092535  0.140476  0  1.041552  0
H  H44  1  0.31454705  0.87251894  0.66130261  1  0.103476  0  0.092437  0.139944  0  1.042161  0
H  H45  1  0.72033104  0.33151632  0.11907084  1  0.039704  0  0.088241  0.126164  0  1.029549  0
H  H46  1  0.60135845  0.88114870  0.21227148  1  0.042146  0  0.088154  0.126131  0  1.029981  0
H  H47  1  0.38939876  0.78753424  0.66842076  1  0.066402  0  0.087672  0.125158  0  1.030498  0
H  H48  1  0.59462857  0.61926148  0.10689018  1  0.060283  0  0.087697  0.095491  0  1.022188  0
H  H49  1  0.48774776  0.89301434  0.51248195  1  0.071945  0  0.08779  0.095152  0  1.021995  0
H  H50  1  0.97526132  0.48765268  0.38083123  1  0.057684  0  0.087529  0.094171  0  1.022516  0
H  H51  1  0.61410048  0.71374887  0.08744210  1  -0.005175  0  0.090335  0.089898  0  0.985726  0
H  H52  1  0.52677817  0.91277578  0.62651737  1  -0.003997  0  0.090447  0.089938  0  0.985644  0
H  H53  1  0.90001591  0.37370201  0.28643094  1  0.001975  0  0.090093  0.088651  0  0.9858  0
H  H54  1  0.24106666  0.58720924  0.99650936  1  0.626979  0  0.300356  0.332926  0  0.95577  0
H  H55  1  0.24462346  0.00354558  0.59073781  1  0.607819  0  0.300613  0.332792  0  0.957117  0
H  H56  1  0.65351750  0.40931194  0.41285531  1  0.602005  0  0.299332  0.330713  0  0.95733  0
H  H57  1  0.00096528  0.69572331  0.02707213  1  0.004582  0  0.085835  0.037163  0  0.981521  0
H  H58  1  0.97387872  0.97283496  0.66844099  1  0.003672  0  0.085521  0.036631  0  0.982143  0
H  H59  1  0.30507753  0.33131662  0.30435080  1  -0.026505  0  0.086024  0.037146  0  0.980777  0
H  H60  1  0.08717347  0.67613255  0.11576310  1  0.048324  0  0.100365  0.072289  0  0.965044  0
H  H61  1  0.97129272  0.88417654  0.56013088  1  0.054416  0  0.100289  0.072276  0  0.964311  0
H  H62  1  0.41065584  0.43960416  0.32378244  1  0.037006  0  0.100775  0.072773  0  0.96432  0
H  H63  1  0.91430473  0.52973819  0.93495246  1  0.587005  0  0.30874  0.343079  0  0.926969  0
H  H64  1  0.97951713  0.06507709  0.59465116  1  0.591392  0  0.309129  0.344718  0  0.927196  0
H  H65  1  0.38466683  0.40523375  0.47029995  1  0.591785  0  0.30841  0.341611  0  0.929518  0
H  H66  1  0.42939045  0.60429211  0.92592418  1  0.007253  0  0.081494  0.03506  0  1.001744  0
H  H67  1  0.50354317  0.07425005  0.67815836  1  0.004616  0  0.08172  0.034548  0  1.00304  0
H  H68  1  0.82507120  0.32186082  0.39620661  1  0.011733  0  0.081783  0.03536  0  1.002568  0
H  H69  1  0.41013156  0.51505902  0.95526487  1  -0.008384  0  0.082313  0.037217  0  1.030659  0
H  H70  1  0.45476743  0.04458346  0.55951781  1  0.026783  0  0.082043  0.037169  0  1.030601  0
H  H71  1  0.89475599  0.44052366  0.48514399  1  0.026216  0  0.082138  0.037628  0  1.030229  0
H  H72  1  0.67877426  0.53912503  0.96216406  1  0.03284  0  0.081061  0.07069  0  1.02569  0
H  H73  1  0.71659643  0.03784260  0.57684908  1  0.027462  0  0.08082  0.071058  0  1.025734  0
H  H74  1  0.13952246  0.42301073  0.46094978  1  0.02771  0  0.080791  0.070545  0  1.026576  0
H  H75  1  0.72948763  0.64897307  0.97053640  1  -0.021546  0  0.080755  0.065259  0  1.020211  0
H  H76  1  0.75908333  0.02950820  0.67832096  1  -0.024472  0  0.080654  0.06506  0  1.021623  0
H  H77  1  0.08015946  0.32153413  0.35113211  1  0.02104  0  0.080503  0.064695  0  1.022271  0
H  H78  1  0.84738727  0.59877886  0.11616876  1  0.023734  0  0.085354  0.084963  0  1.016575  0
H  H79  1  0.73119998  0.88388280  0.48248986  1  0.018166  0  0.085384  0.084926  0  1.015191  0
H  H80  1  0.24832888  0.51729354  0.40113708  1  -0.011639  0  0.085297  0.084873  0  1.016224  0
H  H81  1  0.87452731  0.71484294  0.14275310  1  0.029488  0  0.089628  0.089541  0  0.999907  0
H  H82  1  0.73171929  0.85721443  0.57191872  1  0.022112  0  0.089159  0.089419  0  1.000906  0
H  H83  1  0.15928863  0.42777982  0.28513028  1  0.021196  0  0.089141  0.08956  0  1.000993  0
C  C84  1  0.10769298  0.46128506  0.11307932  1  0.004545  0  -0.03953  -0.145435  0  4.071121  0
C  C85  1  0.99500756  0.88693115  0.34831717  1  -0.004197  0  -0.040041  -0.144256  0  4.069676  0
C  C86  1  0.64661232  0.65163091  0.53850998  1  0.043844  0  -0.038795  -0.141154  0  4.068493  0
C  C87  1  0.48247214  0.35156534  0.88900637  1  -0.03269  0  -0.040916  -0.152522  0  4.059345  0
C  C88  1  0.59365098  0.11108714  0.46252280  1  -0.029359  0  -0.039007  -0.148197  0  4.05583  0
C  C89  1  0.13131442  0.53748979  0.64858568  1  0.008862  0  -0.040614  -0.15207  0  4.05569  0
C  C90  1  0.56461237  0.37413607  0.98270791  1  1.425266  0  0.239797  0.498817  0  4.156172  0
C  C91  1  0.58213914  0.01739064  0.39137357  1  1.405725  0  0.240147  0.499642  0  4.154388  0
C  C92  1  0.19097567  0.60861509  0.62599311  1  1.411834  0  0.241704  0.503621  0  4.154258  0
C  C93  1  0.92572448  0.29948077  0.79895441  1  1.566917  0  0.236646  0.601168  0  4.057474  0
C  C94  1  0.12714876  0.20108385  0.50069219  1  1.564222  0  0.235747  0.599789  0  4.059796  0
C  C95  1  0.62646729  0.49932070  0.70039018  1  1.561646  0  0.236271  0.602539  0  4.062739  0
C  C96  1  0.54920323  0.39470618  0.13453596  1  0.380886  0  0.021785  0.086024  0  3.85746  0
C  C97  1  0.41490120  0.86553227  0.26013539  1  0.368121  0  0.022285  0.085831  0  3.858599  0
C  C98  1  0.15502584  0.73983364  0.60530944  1  0.386096  0  0.022358  0.08506  0  3.858205  0
C  C99  1  0.08880828  0.38628987  0.02088976  1  1.392992  0  0.241116  0.505168  0  4.169373  0
C  C100  1  0.06832635  0.97914583  0.36551749  1  1.385504  0  0.241438  0.504301  0  4.164341  0
C  C101  1  0.70275177  0.63440807  0.61348554  1  1.378157  0  0.240192  0.502555  0  4.170869  0
C  C102  1  0.91777378  0.26611606  0.86914799  1  0.376078  0  0.015514  0.071088  0  3.891587  0
C  C103  1  0.04906083  0.13091849  0.39715065  1  0.373185  0  0.01528  0.070636  0  3.891137  0
C  C104  1  0.65198444  0.60286104  0.73371571  1  0.385802  0  0.015006  0.066625  0  3.895265  0
C  C105  1  0.23759844  0.52806852  0.18083004  1  0.404344  0  0.024752  0.004067  0  3.921934  0
C  C106  1  0.05712212  0.81919696  0.34750135  1  0.419932  0  0.024859  0.004555  0  3.922557  0
C  C107  1  0.70958238  0.65251781  0.47163312  1  0.408218  0  0.02385  0.000845  0  3.922484  0
C  C108  1  0.54162028  0.35064284  0.82007355  1  0.417436  0  0.020196  -0.005806  0  3.960854  0
C  C109  1  0.72169047  0.18000835  0.53056419  1  0.417804  0  0.019992  -0.008475  0  3.960647  0
C  C110  1  0.19118592  0.46938661  0.64940301  1  0.402301  0  0.019941  -0.007339  0  3.958973  0
C  C111  1  0.33332643  0.33097769  0.84941908  1  0.413574  0  0.02063  -0.00942  0  3.949999  0
C  C112  1  0.48406910  0.15064722  0.48154744  1  0.433447  0  0.01966  -0.010544  0  3.951104  0
C  C113  1  0.00276757  0.51855924  0.66923515  1  0.389883  0  0.020184  -0.010323  0  3.951944  0
C  C114  1  0.99926736  0.48382070  0.15220432  1  0.425066  0  0.023144  -0.007223  0  3.95479  0
C  C115  1  0.84741284  0.84776971  0.33157364  1  0.418699  0  0.022997  -0.010118  0  3.954604  0
C  C116  1  0.51571177  0.66831951  0.51607879  1  0.388838  0  0.022248  -0.010937  0  3.953433  0
C  C117  1  0.64090977  0.49765524  0.20035787  1  1.573723  0  0.239541  0.588541  0  4.081241  0
C  C118  1  0.44088306  0.79967357  0.29720878  1  1.576057  0  0.238099  0.585799  0  4.08082  0
C  C119  1  0.14369608  0.70272586  0.50235069  1  1.581618  0  0.238623  0.58797  0  4.079941  0
C  C120  1  0.76672677  0.19877796  0.83948525  1  -0.075846  0  -0.238603  -0.408768  0  3.906978  0
C  C121  1  0.92771498  0.16064487  0.35959094  1  -0.046281  0  -0.237139  -0.406518  0  3.908655  0
C  C122  1  0.56829307  0.64050793  0.80105025  1  -0.009448  0  -0.238154  -0.405622  0  3.90872  0
C  C123  1  0.62299792  0.32579387  0.13992852  1  -0.079068  0  -0.250872  -0.41909  0  3.941973  0
C  C124  1  0.48315691  0.86021270  0.18577896  1  -0.045198  0  -0.251308  -0.42073  0  3.943218  0
C  C125  1  0.29778896  0.81409608  0.67418588  1  -0.129626  0  -0.250523  -0.419152  0  3.944106  0
C  C126  1  0.59185280  0.63816832  0.05271763  1  -0.001507  0  -0.173457  -0.17926  0  3.912642  0
C  C127  1  0.53918002  0.94733676  0.58549999  1  -0.016172  0  -0.173912  -0.178983  0  3.911547  0
C  C128  1  0.95345661  0.41458056  0.36199076  1  -0.01088  0  -0.171628  -0.173518  0  3.910179  0
C  C129  1  0.99034698  0.64812622  0.05535013  1  0.433929  0  -0.078299  0.085214  0  3.944709  0
C  C130  1  0.93498013  0.94461872  0.59259877  1  0.461083  0  -0.077946  0.086492  0  3.942753  0
C  C131  1  0.34195580  0.40720608  0.35187579  1  0.493981  0  -0.077954  0.085555  0  3.942194  0
C  C132  1  0.43824962  0.59071567  0.98441073  1  0.474995  0  -0.08223  0.094618  0  3.939495  0
C  C133  1  0.45387289  0.01562611  0.60619322  1  0.442399  0  -0.082277  0.09437  0  3.938622  0
C  C134  1  0.84732946  0.39382914  0.40952651  1  0.438942  0  -0.08386  0.090339  0  3.940042  0
C  C135  1  0.71205143  0.61419116  0.01093087  1  -0.016919  0  -0.17033  -0.139871  0  3.944885  0
C  C136  1  0.70116270  0.98910062  0.60317879  1  -0.005855  0  -0.170032  -0.140229  0  3.94713  0
C  C137  1  0.09759305  0.39670546  0.38589840  1  -0.051986  0  -0.170522  -0.140507  0  3.94665  0
C  C138  1  0.85570549  0.64431793  0.08597813  1  -0.020128  0  -0.174361  -0.198253  0  3.955366  0
C  C139  1  0.76972463  0.91403184  0.55821064  1  -0.029495  0  -0.174487  -0.199023  0  3.955582  0
C  C140  1  0.21107482  0.44157076  0.35566101  1  0.014989  0  -0.173956  -0.198605  0  3.956071  0
N  N141  1  0.20729872  0.58617921  0.25491048  1  -0.792214  0  -0.278404  -0.208285  0  3.623281  0
N  N142  1  0.95263213  0.74509717  0.33146199  1  -0.811801  0  -0.279036  -0.210723  0  3.624989  0
N  N143  1  0.62115585  0.66854734  0.41358180  1  -0.798018  0  -0.27788  -0.207165  0  3.624778  0
N  N144  1  0.43506984  0.33126511  0.74524616  1  -0.807704  0  -0.280829  -0.208796  0  3.612953  0
N  N145  1  0.68993850  0.25479821  0.58605226  1  -0.822237  0  -0.280483  -0.205835  0  3.613382  0
N  N146  1  0.10391731  0.41395159  0.66878441  1  -0.815415  0  -0.279262  -0.204124  0  3.61045  0
N  N147  1  0.06052604  0.55831541  0.23688090  1  -0.81731  0  -0.285967  -0.199462  0  3.651283  0
N  N148  1  0.82389221  0.76309040  0.32142828  1  -0.819488  0  -0.286007  -0.196891  0  3.649471  0
N  N149  1  0.50237930  0.67849536  0.44156485  1  -0.822028  0  -0.287105  -0.199886  0  3.652134  0
N  N150  1  0.48732492  0.37698936  0.04057179  1  -1.270644  0  -0.413431  -0.38152  0  3.507756  0
N  N151  1  0.44699256  0.95948796  0.33639518  1  -1.238273  0  -0.415637  -0.386335  0  3.506544  0
N  N152  1  0.11080111  0.66357983  0.62303648  1  -1.239928  0  -0.415505  -0.385184  0  3.507403  0
N  N153  1  0.95145228  0.34293417  0.96158952  1  -1.254932  0  -0.416243  -0.381383  0  3.529329  0
N  N154  1  0.99028118  0.03844404  0.38147529  1  -1.243022  0  -0.416288  -0.377116  0  3.527407  0
N  N155  1  0.60885341  0.61852650  0.65692221  1  -1.248751  0  -0.41571  -0.3769  0  3.53164  0
N  N156  1  0.30684630  0.31942710  0.76391889  1  -0.806906  0  -0.283388  -0.192386  0  3.629485  0
N  N157  1  0.54305534  0.23611859  0.55554380  1  -0.817894  0  -0.284844  -0.196431  0  3.634788  0
N  N158  1  0.98765115  0.44454970  0.68071460  1  -0.809905  0  -0.285106  -0.196838  0  3.633638  0
O  O159  1  0.57552394  0.55548609  0.20086232  1  -1.1851  0  -0.31217  -0.53388  0  2.422159  0
O  O160  1  0.37491661  0.79902490  0.35447518  1  -1.182837  0  -0.31042  -0.529145  0  2.417721  0
O  O161  1  0.02044117  0.64538984  0.44453874  1  -1.191095  0  -0.31047  -0.531052  0  2.418643  0
O  O162  1  0.86562837  0.36032469  0.80280698  1  -1.178896  0  -0.304963  -0.510428  0  2.35354  0
O  O163  1  0.06318985  0.19720249  0.55767924  1  -1.178272  0  -0.306461  -0.511862  0  2.354663  0
O  O164  1  0.50561263  0.44232072  0.63944634  1  -1.177673  0  -0.305855  -0.512108  0  2.355182  0
O  O165  1  0.98769918  0.26213538  0.73968335  1  -1.202408  0  -0.322261  -0.545351  0  2.343785  0
O  O166  1  0.24835686  0.26040568  0.52260706  1  -1.203661  0  -0.319555  -0.542112  0  2.344339  0
O  O167  1  0.72560740  0.47739056  0.73789430  1  -1.202212  0  -0.320177  -0.543223  0  2.345388  0
O  O168  1  0.76847730  0.51797020  0.25061062  1  -1.187421  0  -0.297992  -0.497888  0  2.388221  0
O  O169  1  0.51832044  0.74952023  0.26728102  1  -1.181088  0  -0.298115  -0.498139  0  2.389211  0
O  O170  1  0.25092995  0.73270138  0.48203530  1  -1.186451  0  -0.297964  -0.497753  0  2.389474  0
O  O171  1  0.69923597  0.39017868  0.00612313  1  -1.189021  0  -0.30406  -0.515503  0  2.184316  0
O  O172  1  0.69335261  0.99400520  0.38396311  1  -1.182257  0  -0.304062  -0.515124  0  2.181952  0
O  O173  1  0.30961286  0.61604311  0.61004622  1  -1.185743  0  -0.304606  -0.517317  0  2.184663  0
O  O174  1  0.19266712  0.36168471  0.99747417  1  -1.193679  0  -0.312022  -0.529857  0  2.202516  0
O  O175  1  0.19561182  0.00258340  0.36431339  1  -1.196666  0  -0.311661  -0.52936  0  2.201692  0
O  O176  1  0.83123641  0.63552926  0.63801041  1  -1.191621  0  -0.311519  -0.529687  0  2.201732  0
O  O177  1  0.34156065  0.62550193  0.03352614  1  -1.145433  0  -0.418247  -0.494942  0  2.248897  0
O  O178  1  0.30811759  0.96655521  0.59205332  1  -1.12945  0  -0.417485  -0.492992  0  2.24848  0
O  O179  1  0.71570508  0.40789653  0.37452108  1  -1.124215  0  -0.416577  -0.491163  0  2.248458  0
O  O180  1  0.99848110  0.56024342  0.99048713  1  -1.10358  0  -0.414259  -0.495088  0  2.235999  0
O  O181  1  0.00808184  0.00951124  0.56961688  1  -1.115937  0  -0.414609  -0.497342  0  2.235702  0
O  O182  1  0.43811693  0.43036286  0.43975948  1  -1.114436  0  -0.414443  -0.493876  0  2.237557  0
