# generated using pymatgen
data_DyAg3H6C14N2O11
_symmetry_space_group_name_H-M   'P 1'
_cell_length_a   8.13670324
_cell_length_b   13.83464775
_cell_length_c   14.56714197
_cell_angle_alpha   90.00012025
_cell_angle_beta   89.99991900
_cell_angle_gamma   90.00009984
_symmetry_Int_Tables_number   1
_chemical_formula_structural   DyAg3H6C14N2O11
_chemical_formula_sum   'Dy4 Ag12 H24 C56 N8 O44'
_cell_volume   1639.80020154
_cell_formula_units_Z   4
loop_
 _symmetry_equiv_pos_site_id
 _symmetry_equiv_pos_as_xyz
  1  'x, y, z'
loop_
 _atom_site_type_symbol
 _atom_site_label
 _atom_site_symmetry_multiplicity
 _atom_site_fract_x
 _atom_site_fract_y
 _atom_site_fract_z
 _atom_site_occupancy
 _atom_site_hle17_bader_spin_density
 _atom_site_hle17_ddec_charge
 _atom_site_hle17_ddec_spin_density
 _atom_site_hle17_ddec_sum_bond_order
 _atom_site_hle17_magmom
 _atom_site_hse06_10hf_bader_spin_density
 _atom_site_hse06_10hf_ddec_charge
 _atom_site_hse06_10hf_ddec_spin_density
 _atom_site_hse06_10hf_ddec_sum_bond_order
 _atom_site_hse06_10hf_magmom
 _atom_site_hse06_bader_spin_density
 _atom_site_hse06_ddec_charge
 _atom_site_hse06_ddec_spin_density
 _atom_site_hse06_ddec_sum_bond_order
 _atom_site_hse06_magmom
 _atom_site_pbe_bader_spin_density
 _atom_site_pbe_cm5_charge
 _atom_site_pbe_ddec_charge
 _atom_site_pbe_ddec_spin_density
 _atom_site_pbe_ddec_sum_bond_order
 _atom_site_pbe_magmom
Dy  Dy0  1  0.97381412  0.75000035  0.24999998  1  0  2.162663  0  1.704955  0  0  1.980392  0  2.210611  0  0  2.032425  0  2.167981  0  0  1.493846  1.941271  0  2.243488  0
Dy  Dy1  1  0.52618380  0.74999996  0.74999872  1  0  2.162678  0  1.704932  0  0  1.980466  0  2.210516  0  0  2.032503  0  2.167879  0  0  1.493848  1.941343  0  2.243397  0
Dy  Dy2  1  0.02618448  0.25000070  0.74999911  1  0  2.162683  0  1.704955  0  0  1.980444  0  2.210574  0  0  2.032477  0  2.16794  0  0  1.493838  1.941319  0  2.243455  0
Dy  Dy3  1  0.47381481  0.25000038  0.25000037  1  0  2.162669  0  1.704949  0  0  1.980437  0  2.210567  0  0  2.03247  0  2.167937  0  0  1.493859  1.941315  0  2.243446  0
Ag  Ag4  1  0.55250262  0.82440943  0.01433423  1  0  0.676678  0  1.263903  0  0  0.563151  0  1.697114  0  0  0.602371  0  1.632399  0  0  0.44822  0.534723  0  1.742906  0
Ag  Ag5  1  0.94749921  0.82441433  0.98566599  1  0  0.676684  0  1.263906  0  0  0.563163  0  1.69714  0  0  0.602383  0  1.632423  0  0  0.448216  0.534735  0  1.742933  0
Ag  Ag6  1  0.94749958  0.67558963  0.51433454  1  0  0.676688  0  1.263906  0  0  0.563161  0  1.697125  0  0  0.602379  0  1.63241  0  0  0.448226  0.534732  0  1.742916  0
Ag  Ag7  1  0.55250057  0.67559012  0.48566332  1  0  0.676705  0  1.263886  0  0  0.563185  0  1.697099  0  0  0.602403  0  1.632385  0  0  0.448238  0.534759  0  1.742892  0
Ag  Ag8  1  0.44749967  0.17559018  0.98566486  1  0  0.676691  0  1.263903  0  0  0.56317  0  1.697121  0  0  0.602389  0  1.632406  0  0  0.448231  0.534745  0  1.742914  0
Ag  Ag9  1  0.05250062  0.17558890  0.01433447  1  0  0.676664  0  1.263923  0  0  0.56313  0  1.697138  0  0  0.60235  0  1.632423  0  0  0.448215  0.534701  0  1.742931  0
Ag  Ag10  1  0.05250148  0.32441070  0.48566523  1  0  0.67669  0  1.263888  0  0  0.563169  0  1.697106  0  0  0.602387  0  1.632391  0  0  0.448225  0.53474  0  1.742898  0
Ag  Ag11  1  0.44749926  0.32440949  0.51433508  1  0  0.67669  0  1.263901  0  0  0.563176  0  1.697111  0  0  0.602394  0  1.632395  0  0  0.44823  0.53475  0  1.742904  0
Ag  Ag12  1  0.24999826  0.55622373  0.49999901  1  0  0.648189  0  1.31282  0  0  0.537601  0  1.750106  0  0  0.573811  0  1.689538  0  0  0.434142  0.511531  0  1.792899  0
Ag  Ag13  1  0.24999946  0.94377624  0.00000084  1  0  0.648171  0  1.31284  0  0  0.537582  0  1.750127  0  0  0.573791  0  1.689561  0  0  0.434137  0.511515  0  1.79292  0
Ag  Ag14  1  0.74999789  0.44377516  0.50000145  1  0  0.648184  0  1.312835  0  0  0.53759  0  1.750137  0  0  0.573798  0  1.689571  0  0  0.434143  0.511523  0  1.792932  0
Ag  Ag15  1  0.74999423  0.05622338  0.99999825  1  0  0.648174  0  1.312846  0  0  0.53758  0  1.750151  0  0  0.57379  0  1.689583  0  0  0.434146  0.511512  0  1.792947  0
H  H16  1  0.22633716  0.73116516  0.05563955  1  0  0.440396  0  0.856874  0  0  0.409622  0  0.918713  0  0  0.420726  0  0.902873  0  0  0.294228  0.401734  0  0.92993  0
H  H17  1  0.27366356  0.73116545  0.94436019  1  0  0.4404  0  0.856868  0  0  0.40963  0  0.918698  0  0  0.420735  0  0.902858  0  0  0.294229  0.401743  0  0.929915  0
H  H18  1  0.27366411  0.76883493  0.55563950  1  0  0.440402  0  0.856873  0  0  0.409625  0  0.918718  0  0  0.420731  0  0.902875  0  0  0.294229  0.401738  0  0.929935  0
H  H19  1  0.22633672  0.76883406  0.44435963  1  0  0.440381  0  0.856902  0  0  0.40961  0  0.918736  0  0  0.420715  0  0.902894  0  0  0.294226  0.401722  0  0.929953  0
H  H20  1  0.77366390  0.26883517  0.94436022  1  0  0.440382  0  0.856895  0  0  0.409608  0  0.918734  0  0  0.420713  0  0.902893  0  0  0.29422  0.401721  0  0.929951  0
H  H21  1  0.72633627  0.26883417  0.05563958  1  0  0.440413  0  0.856853  0  0  0.409644  0  0.918684  0  0  0.42075  0  0.902842  0  0  0.294241  0.401757  0  0.9299  0
H  H22  1  0.72633573  0.23116613  0.44436027  1  0  0.440414  0  0.856854  0  0  0.40964  0  0.918691  0  0  0.420745  0  0.90285  0  0  0.294239  0.401753  0  0.929907  0
H  H23  1  0.77366434  0.23116555  0.55563946  1  0  0.440414  0  0.856851  0  0  0.409636  0  0.918694  0  0  0.420741  0  0.902853  0  0  0.29424  0.401748  0  0.929912  0
H  H24  1  0.61505931  0.47481335  0.06772388  1  0  0.143101  0  0.922335  0  0  0.150963  0  0.984841  0  0  0.155536  0  0.982427  0  0  0.116537  0.147674  0  0.98678  0
H  H25  1  0.88494517  0.47481733  0.93227290  1  0  0.143094  0  0.922336  0  0  0.150991  0  0.984796  0  0  0.155564  0  0.982381  0  0  0.116561  0.147699  0  0.986733  0
H  H26  1  0.88494496  0.02518423  0.56772600  1  0  0.143105  0  0.922328  0  0  0.150955  0  0.984855  0  0  0.155527  0  0.982444  0  0  0.11654  0.147668  0  0.986794  0
H  H27  1  0.61505818  0.02518611  0.43227606  1  0  0.143097  0  0.922309  0  0  0.150964  0  0.984817  0  0  0.155537  0  0.982403  0  0  0.116535  0.147675  0  0.986756  0
H  H28  1  0.38494544  0.52518482  0.93227384  1  0  0.143106  0  0.922289  0  0  0.150956  0  0.98481  0  0  0.155528  0  0.982397  0  0  0.116545  0.147668  0  0.986749  0
H  H29  1  0.11505835  0.52518373  0.06772550  1  0  0.14313  0  0.922284  0  0  0.15098  0  0.98481  0  0  0.155552  0  0.982398  0  0  0.116553  0.147692  0  0.986748  0
H  H30  1  0.11505856  0.97481466  0.43227515  1  0  0.143123  0  0.92232  0  0  0.150999  0  0.984807  0  0  0.155572  0  0.982392  0  0  0.116544  0.147709  0  0.986745  0
H  H31  1  0.38494657  0.97481495  0.56772714  1  0  0.143092  0  0.922353  0  0  0.150966  0  0.984838  0  0  0.155537  0  0.982428  0  0  0.116548  0.147676  0  0.986777  0
H  H32  1  0.89979825  0.35362887  0.29144083  1  0  0.137486  0  0.921607  0  0  0.145794  0  0.985873  0  0  0.150696  0  0.981801  0  0  0.116638  0.142167  0  0.989124  0
H  H33  1  0.60020095  0.35362990  0.70855846  1  0  0.137532  0  0.92159  0  0  0.145832  0  0.985844  0  0  0.150734  0  0.981774  0  0  0.116651  0.142201  0  0.9891  0
H  H34  1  0.60020177  0.14637137  0.79144067  1  0  0.137489  0  0.921617  0  0  0.145799  0  0.985872  0  0  0.1507  0  0.981802  0  0  0.116636  0.142162  0  0.989137  0
H  H35  1  0.89979804  0.14637305  0.20856026  1  0  0.137511  0  0.921538  0  0  0.145814  0  0.985805  0  0  0.150714  0  0.98174  0  0  0.116646  0.14219  0  0.989053  0
H  H36  1  0.10020159  0.64637147  0.70855895  1  0  0.1375  0  0.921615  0  0  0.145802  0  0.985875  0  0  0.150704  0  0.981804  0  0  0.116636  0.142175  0  0.989126  0
H  H37  1  0.39980011  0.64637188  0.29144063  1  0  0.137518  0  0.92156  0  0  0.145822  0  0.985825  0  0  0.150722  0  0.98176  0  0  0.116654  0.142194  0  0.989077  0
H  H38  1  0.39979806  0.85362824  0.20855910  1  0  0.13752  0  0.921516  0  0  0.145821  0  0.985791  0  0  0.150723  0  0.98172  0  0  0.116654  0.142191  0  0.989048  0
H  H39  1  0.10020179  0.85362873  0.79144089  1  0  0.137486  0  0.921616  0  0  0.145799  0  0.985874  0  0  0.1507  0  0.981804  0  0  0.116637  0.142161  0  0.989139  0
C  C40  1  0.69949177  0.66433832  0.10740580  1  0  0.635773  0  3.905086  0  0  0.586459  0  4.189247  0  0  0.620611  0  4.182764  0  0  0.208791  0.563182  0  4.192555  0
C  C41  1  0.80050344  0.66434213  0.89259204  1  0  0.63597  0  3.904762  0  0  0.586628  0  4.188936  0  0  0.62078  0  4.182451  0  0  0.20887  0.56335  0  4.192247  0
C  C42  1  0.80050651  0.83566023  0.60740655  1  0  0.63582  0  3.904913  0  0  0.586434  0  4.189152  0  0  0.620587  0  4.18267  0  0  0.208757  0.563158  0  4.192461  0
C  C43  1  0.69949166  0.83566139  0.39259369  1  0  0.635692  0  3.905127  0  0  0.586368  0  4.1893  0  0  0.620521  0  4.182818  0  0  0.208768  0.563092  0  4.192609  0
C  C44  1  0.30050683  0.33566057  0.89259191  1  0  0.635861  0  3.904676  0  0  0.586477  0  4.188949  0  0  0.62063  0  4.182466  0  0  0.208823  0.5632  0  4.19226  0
C  C45  1  0.19949394  0.33566038  0.10740705  1  0  0.635779  0  3.904811  0  0  0.586442  0  4.189009  0  0  0.620596  0  4.182526  0  0  0.208772  0.563166  0  4.192315  0
C  C46  1  0.19949209  0.16433938  0.39259460  1  0  0.635712  0  3.90505  0  0  0.586429  0  4.189196  0  0  0.620583  0  4.182711  0  0  0.208782  0.563152  0  4.192507  0
C  C47  1  0.30050694  0.16433822  0.60740608  1  0  0.635752  0  3.905035  0  0  0.58637  0  4.189273  0  0  0.620523  0  4.182791  0  0  0.208734  0.563093  0  4.192581  0
C  C48  1  0.75787517  0.57229196  0.15082189  1  0  0.141805  0  3.782467  0  0  0.144804  0  4.030728  0  0  0.148448  0  4.047997  0  0  0.114045  0.142359  0  4.019059  0
C  C49  1  0.74212713  0.57229562  0.84917577  1  0  0.141819  0  3.782603  0  0  0.14486  0  4.030816  0  0  0.14851  0  4.048074  0  0  0.114087  0.142415  0  4.019148  0
C  C50  1  0.74212668  0.92770669  0.65082356  1  0  0.141815  0  3.782548  0  0  0.144905  0  4.030712  0  0  0.148548  0  4.047983  0  0  0.114084  0.14246  0  4.019045  0
C  C51  1  0.75787545  0.92770781  0.34917756  1  0  0.141931  0  3.782361  0  0  0.144943  0  4.03062  0  0  0.148588  0  4.047885  0  0  0.114093  0.142498  0  4.018953  0
C  C52  1  0.24212589  0.42770693  0.84917582  1  0  0.141896  0  3.782392  0  0  0.144909  0  4.030677  0  0  0.148549  0  4.047954  0  0  0.114125  0.142464  0  4.01901  0
C  C53  1  0.25787639  0.42770689  0.15082332  1  0  0.141908  0  3.782387  0  0  0.1449  0  4.030674  0  0  0.148539  0  4.047953  0  0  0.114109  0.142455  0  4.019005  0
C  C54  1  0.25787438  0.07229220  0.34917828  1  0  0.141977  0  3.782253  0  0  0.144917  0  4.030592  0  0  0.14856  0  4.04786  0  0  0.11407  0.142473  0  4.018924  0
C  C55  1  0.24212684  0.07229253  0.65082359  1  0  0.14185  0  3.782529  0  0  0.144937  0  4.030696  0  0  0.148581  0  4.047966  0  0  0.114087  0.142493  0  4.01903  0
C  C56  1  0.70177250  0.48174243  0.12431353  1  0  -0.210795  0  3.594448  0  0  -0.24334  0  3.851249  0  0  -0.251337  0  3.867704  0  0  -0.082383  -0.238302  0  3.840539  0
C  C57  1  0.79823077  0.48174621  0.87568395  1  0  -0.21075  0  3.594552  0  0  -0.243313  0  3.851331  0  0  -0.251315  0  3.867789  0  0  -0.082362  -0.23827  0  3.840615  0
C  C58  1  0.79823162  0.01825599  0.62431571  1  0  -0.210825  0  3.594567  0  0  -0.243402  0  3.851361  0  0  -0.251399  0  3.867821  0  0  -0.082394  -0.238367  0  3.840654  0
C  C59  1  0.70176903  0.01825711  0.37568496  1  0  -0.210827  0  3.594389  0  0  -0.243443  0  3.851172  0  0  -0.251433  0  3.867635  0  0  -0.082421  -0.238405  0  3.840461  0
C  C60  1  0.29823225  0.51825646  0.87568349  1  0  -0.210808  0  3.594514  0  0  -0.243342  0  3.851317  0  0  -0.251338  0  3.867778  0  0  -0.082376  -0.238306  0  3.840606  0
C  C61  1  0.20176906  0.51825630  0.12431720  1  0  -0.210817  0  3.594464  0  0  -0.243388  0  3.851247  0  0  -0.251382  0  3.867711  0  0  -0.082398  -0.238352  0  3.840537  0
C  C62  1  0.20177067  0.98174218  0.37568543  1  0  -0.210871  0  3.594431  0  0  -0.243448  0  3.851224  0  0  -0.25144  0  3.867686  0  0  -0.082427  -0.238408  0  3.840511  0
C  C63  1  0.29823325  0.98174250  0.62431687  1  0  -0.210837  0  3.594551  0  0  -0.243459  0  3.851283  0  0  -0.251453  0  3.867746  0  0  -0.082429  -0.238422  0  3.840574  0
C  C64  1  0.74833294  0.39926987  0.17586988  1  0  0.42134  0  3.859556  0  0  0.408218  0  4.121248  0  0  0.426782  0  4.131582  0  0  0.102576  0.395703  0  4.113776  0
C  C65  1  0.75166763  0.39927276  0.82412881  1  0  0.42134  0  3.859608  0  0  0.408145  0  4.121393  0  0  0.426709  0  4.131733  0  0  0.102472  0.395631  0  4.113924  0
C  C66  1  0.75166860  0.10072867  0.67587088  1  0  0.421399  0  3.859529  0  0  0.408284  0  4.121202  0  0  0.426839  0  4.131549  0  0  0.102576  0.395768  0  4.113733  0
C  C67  1  0.74833231  0.10072972  0.32412927  1  0  0.421291  0  3.859514  0  0  0.408318  0  4.12099  0  0  0.426856  0  4.131357  0  0  0.102618  0.395806  0  4.113518  0
C  C68  1  0.25166935  0.60072902  0.82412853  1  0  0.42135  0  3.859625  0  0  0.40822  0  4.121303  0  0  0.426777  0  4.131648  0  0  0.102543  0.395705  0  4.113832  0
C  C69  1  0.24833221  0.60072902  0.17587233  1  0  0.421242  0  3.859731  0  0  0.40822  0  4.12127  0  0  0.426767  0  4.131625  0  0  0.102545  0.395704  0  4.113801  0
C  C70  1  0.24833246  0.89927022  0.32412889  1  0  0.421298  0  3.859568  0  0  0.408285  0  4.121094  0  0  0.426829  0  4.131455  0  0  0.102614  0.395773  0  4.113622  0
C  C71  1  0.25166875  0.89927061  0.67587188  1  0  0.421227  0  3.85965  0  0  0.408245  0  4.121135  0  0  0.42679  0  4.1315  0  0  0.102566  0.395733  0  4.113664  0
C  C72  1  0.86016440  0.41455627  0.24948690  1  0  -0.207491  0  3.597071  0  0  -0.239332  0  3.851696  0  0  -0.246681  0  3.868421  0  0  -0.083785  -0.234576  0  3.840637  0
C  C73  1  0.63983498  0.41455815  0.75051182  1  0  -0.20765  0  3.597168  0  0  -0.239479  0  3.851715  0  0  -0.24683  0  3.868436  0  0  -0.083813  -0.234725  0  3.840668  0
C  C74  1  0.63983818  0.08544244  0.74948933  1  0  -0.207622  0  3.597155  0  0  -0.239509  0  3.851709  0  0  -0.246859  0  3.868432  0  0  -0.083856  -0.234742  0  3.840656  0
C  C75  1  0.86015899  0.08544344  0.25051010  1  0  -0.207631  0  3.597057  0  0  -0.23952  0  3.851644  0  0  -0.246863  0  3.868379  0  0  -0.083873  -0.234765  0  3.840582  0
C  C76  1  0.13983666  0.58544335  0.75051219  1  0  -0.207604  0  3.597223  0  0  -0.239462  0  3.851769  0  0  -0.246811  0  3.868494  0  0  -0.083831  -0.234703  0  3.840707  0
C  C77  1  0.36016485  0.58544291  0.24948932  1  0  -0.207561  0  3.597148  0  0  -0.239476  0  3.8517  0  0  -0.24682  0  3.868423  0  0  -0.08383  -0.234716  0  3.840638  0
C  C78  1  0.36016165  0.91455718  0.25051113  1  0  -0.207631  0  3.597036  0  0  -0.239519  0  3.851641  0  0  -0.246861  0  3.86837  0  0  -0.08387  -0.234761  0  3.840586  0
C  C79  1  0.13983838  0.91455762  0.74948967  1  0  -0.207536  0  3.597147  0  0  -0.239485  0  3.851686  0  0  -0.246832  0  3.868415  0  0  -0.083838  -0.234719  0  3.840629  0
C  C80  1  0.91040230  0.50795154  0.26972498  1  0  0.118483  0  3.811212  0  0  0.126482  0  4.053816  0  0  0.127193  0  4.074873  0  0  0.102846  0.126115  0  4.03948  0
C  C81  1  0.58959858  0.50795333  0.73027324  1  0  0.118532  0  3.811283  0  0  0.126673  0  4.053647  0  0  0.127392  0  4.074694  0  0  0.102881  0.126306  0  4.039317  0
C  C82  1  0.58960417  0.99204665  0.76972964  1  0  0.118574  0  3.811173  0  0  0.126748  0  4.053513  0  0  0.127472  0  4.074552  0  0  0.10292  0.126381  0  4.039179  0
C  C83  1  0.91039570  0.99204839  0.23027229  1  0  0.11859  0  3.811163  0  0  0.126633  0  4.0537  0  0  0.127343  0  4.074756  0  0  0.102912  0.126266  0  4.03937  0
C  C84  1  0.08959753  0.49204808  0.73027342  1  0  0.118495  0  3.811304  0  0  0.126637  0  4.053672  0  0  0.127355  0  4.07472  0  0  0.102885  0.126269  0  4.039344  0
C  C85  1  0.41040125  0.49204773  0.26972791  1  0  0.118467  0  3.811301  0  0  0.126613  0  4.053685  0  0  0.127331  0  4.074734  0  0  0.102841  0.126246  0  4.039352  0
C  C86  1  0.41039689  0.00795224  0.23027219  1  0  0.118643  0  3.81116  0  0  0.126689  0  4.053668  0  0  0.127402  0  4.074721  0  0  0.102913  0.126323  0  4.039336  0
C  C87  1  0.08960413  0.00795340  0.76972955  1  0  0.118598  0  3.811188  0  0  0.12678  0  4.053536  0  0  0.127502  0  4.074574  0  0  0.102952  0.126414  0  4.039202  0
C  C88  1  0.01983517  0.53372053  0.34831799  1  0  0.628132  0  3.892989  0  0  0.574613  0  4.176264  0  0  0.61027  0  4.169999  0  0  0.210157  0.550093  0  4.179652  0
C  C89  1  0.48016496  0.53372110  0.65167999  1  0  0.62818  0  3.892984  0  0  0.574612  0  4.176272  0  0  0.610266  0  4.170008  0  0  0.210165  0.550089  0  4.179657  0
C  C90  1  0.48016904  0.96627732  0.84832160  1  0  0.628126  0  3.892815  0  0  0.57456  0  4.176105  0  0  0.610213  0  4.16984  0  0  0.21013  0.55004  0  4.179494  0
C  C91  1  0.01983114  0.96627921  0.15168067  1  0  0.628139  0  3.892954  0  0  0.574612  0  4.17623  0  0  0.610271  0  4.169965  0  0  0.210153  0.55009  0  4.179619  0
C  C92  1  0.98016466  0.46627981  0.65168041  1  0  0.628158  0  3.892931  0  0  0.574606  0  4.176188  0  0  0.610261  0  4.169923  0  0  0.210182  0.550085  0  4.179579  0
C  C93  1  0.51983487  0.46627852  0.34832047  1  0  0.628191  0  3.893016  0  0  0.574631  0  4.176293  0  0  0.610287  0  4.170029  0  0  0.210176  0.550108  0  4.179676  0
C  C94  1  0.51983079  0.03372157  0.15168023  1  0  0.628103  0  3.892991  0  0  0.574602  0  4.176211  0  0  0.610259  0  4.169947  0  0  0.210146  0.550078  0  4.179595  0
C  C95  1  0.98016869  0.03372257  0.84832048  1  0  0.628137  0  3.892817  0  0  0.574562  0  4.176105  0  0  0.610216  0  4.16984  0  0  0.210128  0.55004  0  4.179494  0
N  N96  1  0.86086768  0.58612909  0.22173008  1  0  -0.473584  0  3.30889  0  0  -0.427052  0  3.561727  0  0  -0.442763  0  3.58305  0  0  -0.41498  -0.416197  0  3.547118  0
N  N97  1  0.63913344  0.58613176  0.77826830  1  0  -0.473714  0  3.309016  0  0  -0.427266  0  3.561834  0  0  -0.442988  0  3.583165  0  0  -0.415069  -0.416407  0  3.547224  0
N  N98  1  0.63913768  0.91386971  0.72173317  1  0  -0.473666  0  3.308969  0  0  -0.427237  0  3.561766  0  0  -0.442958  0  3.583096  0  0  -0.415047  -0.416379  0  3.547155  0
N  N99  1  0.86086318  0.91387078  0.27826792  1  0  -0.473673  0  3.308881  0  0  -0.427172  0  3.561737  0  0  -0.442888  0  3.583069  0  0  -0.415038  -0.416315  0  3.547126  0
N  N100  1  0.13913215  0.41386980  0.77826764  1  0  -0.473683  0  3.308953  0  0  -0.427215  0  3.561779  0  0  -0.442931  0  3.583109  0  0  -0.415056  -0.416357  0  3.547167  0
N  N101  1  0.36086885  0.41387002  0.22173148  1  0  -0.473658  0  3.308933  0  0  -0.427186  0  3.561756  0  0  -0.4429  0  3.583085  0  0  -0.415026  -0.416327  0  3.547142  0
N  N102  1  0.36086338  0.08612990  0.27826798  1  0  -0.473701  0  3.308815  0  0  -0.427185  0  3.561688  0  0  -0.442901  0  3.583021  0  0  -0.415009  -0.416326  0  3.547075  0
N  N103  1  0.13913788  0.08613028  0.72173323  1  0  -0.473682  0  3.308925  0  0  -0.427248  0  3.561719  0  0  -0.442966  0  3.583047  0  0  -0.415049  -0.416389  0  3.547108  0
O  O104  1  0.77238132  0.74271262  0.13361072  1  0  -0.764114  0  2.097785  0  0  -0.698459  0  2.369213  0  0  -0.728535  0  2.357272  0  0  -0.400193  -0.676752  0  2.37647  0
O  O105  1  0.72761780  0.74271630  0.86638660  1  0  -0.764146  0  2.097631  0  0  -0.698488  0  2.36907  0  0  -0.728563  0  2.357128  0  0  -0.400213  -0.676783  0  2.376331  0
O  O106  1  0.72761812  0.75728599  0.63361000  1  0  -0.76411  0  2.097687  0  0  -0.698458  0  2.369167  0  0  -0.728533  0  2.357225  0  0  -0.400204  -0.676752  0  2.376428  0
O  O107  1  0.77237982  0.75728644  0.36638803  1  0  -0.764104  0  2.09777  0  0  -0.698454  0  2.369213  0  0  -0.728528  0  2.357269  0  0  -0.400201  -0.676749  0  2.376474  0
O  O108  1  0.22761974  0.25728482  0.86638837  1  0  -0.764141  0  2.097615  0  0  -0.698473  0  2.369084  0  0  -0.728546  0  2.357139  0  0  -0.400204  -0.676768  0  2.376347  0
O  O109  1  0.27238203  0.25728548  0.13361112  1  0  -0.764112  0  2.09763  0  0  -0.698462  0  2.369092  0  0  -0.728533  0  2.357141  0  0  -0.400196  -0.676757  0  2.376352  0
O  O110  1  0.27238172  0.24271363  0.36638978  1  0  -0.764131  0  2.097779  0  0  -0.698481  0  2.369186  0  0  -0.728554  0  2.357237  0  0  -0.400211  -0.676775  0  2.376447  0
O  O111  1  0.22761755  0.24271318  0.63361037  1  0  -0.764118  0  2.097718  0  0  -0.698459  0  2.369197  0  0  -0.728535  0  2.357254  0  0  -0.400194  -0.676752  0  2.376454  0
O  O112  1  0.58299256  0.66180253  0.05086147  1  0  -0.568299  0  1.998436  0  0  -0.504153  0  2.239881  0  0  -0.534032  0  2.232261  0  0  -0.301718  -0.483096  0  2.244416  0
O  O113  1  0.91700263  0.66180803  0.94913843  1  0  -0.568391  0  1.998222  0  0  -0.504281  0  2.239762  0  0  -0.534164  0  2.232144  0  0  -0.301749  -0.483222  0  2.244297  0
O  O114  1  0.91700831  0.83819662  0.55086144  1  0  -0.568303  0  1.998353  0  0  -0.504138  0  2.239842  0  0  -0.53402  0  2.232225  0  0  -0.301664  -0.483081  0  2.244378  0
O  O115  1  0.58299355  0.83819633  0.44913812  1  0  -0.56825  0  1.9985  0  0  -0.504102  0  2.239951  0  0  -0.533982  0  2.232333  0  0  -0.301691  -0.483045  0  2.244486  0
O  O116  1  0.41700727  0.33819636  0.94913693  1  0  -0.568321  0  1.99823  0  0  -0.504161  0  2.239733  0  0  -0.534042  0  2.232113  0  0  -0.301737  -0.483103  0  2.244269  0
O  O117  1  0.08299474  0.33819664  0.05086203  1  0  -0.568298  0  1.99834  0  0  -0.504136  0  2.239798  0  0  -0.534016  0  2.232178  0  0  -0.301695  -0.483079  0  2.244332  0
O  O118  1  0.08299152  0.16180300  0.44913833  1  0  -0.568286  0  1.998452  0  0  -0.504156  0  2.239906  0  0  -0.534037  0  2.232285  0  0  -0.301696  -0.483099  0  2.244443  0
O  O119  1  0.41700873  0.16180183  0.55086234  1  0  -0.568222  0  1.998436  0  0  -0.504072  0  2.239917  0  0  -0.533953  0  2.232299  0  0  -0.301631  -0.483015  0  2.244452  0
O  O120  1  0.68380055  0.31379167  0.15989620  1  0  -0.732015  0  2.053093  0  0  -0.667104  0  2.302855  0  0  -0.691543  0  2.293592  0  0  -0.421732  -0.649247  0  2.308306  0
O  O121  1  0.81619976  0.31379466  0.84010370  1  0  -0.731988  0  2.053101  0  0  -0.667068  0  2.302921  0  0  -0.691492  0  2.293622  0  0  -0.421665  -0.649199  0  2.308338  0
O  O122  1  0.81619979  0.18620683  0.65989595  1  0  -0.732031  0  2.053141  0  0  -0.667104  0  2.302898  0  0  -0.691529  0  2.293612  0  0  -0.421698  -0.649251  0  2.308356  0
O  O123  1  0.68380014  0.18620785  0.34010369  1  0  -0.731994  0  2.053137  0  0  -0.66712  0  2.30284  0  0  -0.69154  0  2.293563  0  0  -0.421726  -0.649259  0  2.308274  0
O  O124  1  0.31620051  0.68620722  0.84010358  1  0  -0.732031  0  2.053143  0  0  -0.667116  0  2.30291  0  0  -0.691542  0  2.293624  0  0  -0.421713  -0.649259  0  2.308355  0
O  O125  1  0.18379885  0.68620639  0.15989745  1  0  -0.731986  0  2.053284  0  0  -0.66706  0  2.302926  0  0  -0.691495  0  2.293676  0  0  -0.421678  -0.649204  0  2.308372  0
O  O126  1  0.18380250  0.81379206  0.34010383  1  0  -0.731968  0  2.053146  0  0  -0.667094  0  2.302878  0  0  -0.691517  0  2.293604  0  0  -0.421718  -0.649235  0  2.308317  0
O  O127  1  0.31619724  0.81379248  0.65989608  1  0  -0.731936  0  2.053165  0  0  -0.667085  0  2.302893  0  0  -0.691503  0  2.2936  0  0  -0.4217  -0.649225  0  2.308332  0
O  O128  1  0.08063727  0.46904170  0.40046677  1  0  -0.652048  0  2.206386  0  0  -0.571872  0  2.506354  0  0  -0.606441  0  2.491169  0  0  -0.321341  -0.547473  0  2.515976  0
O  O129  1  0.41936143  0.46904137  0.59953245  1  0  -0.652047  0  2.206396  0  0  -0.571868  0  2.506367  0  0  -0.606435  0  2.49118  0  0  -0.321336  -0.547475  0  2.516007  0
O  O130  1  0.41936409  0.03095682  0.90046957  1  0  -0.652005  0  2.206408  0  0  -0.571821  0  2.506374  0  0  -0.606389  0  2.491188  0  0  -0.32132  -0.547429  0  2.516013  0
O  O131  1  0.08063577  0.03095721  0.09953085  1  0  -0.652017  0  2.20639  0  0  -0.571838  0  2.506359  0  0  -0.606408  0  2.491174  0  0  -0.321325  -0.547438  0  2.515983  0
O  O132  1  0.91936133  0.53095864  0.59953163  1  0  -0.65204  0  2.206336  0  0  -0.571862  0  2.506296  0  0  -0.60643  0  2.491108  0  0  -0.321336  -0.547468  0  2.51593  0
O  O133  1  0.58063717  0.53095680  0.40047007  1  0  -0.652028  0  2.206419  0  0  -0.571852  0  2.506397  0  0  -0.60642  0  2.49121  0  0  -0.321338  -0.54746  0  2.516041  0
O  O134  1  0.58063328  0.96904279  0.09953158  1  0  -0.652023  0  2.2064  0  0  -0.571857  0  2.506355  0  0  -0.606427  0  2.491172  0  0  -0.321287  -0.547466  0  2.516003  0
O  O135  1  0.91936406  0.96904385  0.90046893  1  0  -0.652001  0  2.206378  0  0  -0.571827  0  2.50638  0  0  -0.606397  0  2.491198  0  0  -0.321303  -0.547431  0  2.516017  0
O  O136  1  0.04851275  0.62397439  0.35996963  1  0  -0.703894  0  2.170286  0  0  -0.625556  0  2.43452  0  0  -0.656649  0  2.425824  0  0  -0.362529  -0.603401  0  2.439686  0
O  O137  1  0.45148519  0.62397490  0.64002990  1  0  -0.70393  0  2.170217  0  0  -0.625603  0  2.434478  0  0  -0.656697  0  2.425784  0  0  -0.362561  -0.603461  0  2.439676  0
O  O138  1  0.45148406  0.87602421  0.85997034  1  0  -0.703911  0  2.170149  0  0  -0.625595  0  2.434419  0  0  -0.656689  0  2.425724  0  0  -0.362519  -0.603444  0  2.439598  0
O  O139  1  0.04851340  0.87602610  0.14002901  1  0  -0.703897  0  2.170268  0  0  -0.625576  0  2.434528  0  0  -0.656669  0  2.425832  0  0  -0.362531  -0.60343  0  2.439717  0
O  O140  1  0.95148462  0.37602595  0.64002945  1  0  -0.703895  0  2.170245  0  0  -0.625574  0  2.434499  0  0  -0.656668  0  2.425804  0  0  -0.36257  -0.603423  0  2.439679  0
O  O141  1  0.54851096  0.37602471  0.35997125  1  0  -0.703946  0  2.170284  0  0  -0.625631  0  2.434563  0  0  -0.656723  0  2.425866  0  0  -0.362565  -0.603492  0  2.43977  0
O  O142  1  0.54851454  0.12397468  0.14002943  1  0  -0.703884  0  2.170214  0  0  -0.625576  0  2.434474  0  0  -0.656669  0  2.425778  0  0  -0.362574  -0.603436  0  2.439679  0
O  O143  1  0.95148520  0.12397568  0.85997008  1  0  -0.703919  0  2.17011  0  0  -0.625586  0  2.434368  0  0  -0.656681  0  2.425672  0  0  -0.362554  -0.60344  0  2.439555  0
O  O144  1  0.25000163  0.77160021  0.99999985  1  0  -0.872726  0  2.03253  0  0  -0.784423  0  2.266638  0  0  -0.815496  0  2.227973  0  0  -0.578754  -0.762154  0  2.293247  0
O  O145  1  0.25000097  0.72839942  0.49999918  1  0  -0.872743  0  2.032566  0  0  -0.784441  0  2.266699  0  0  -0.815517  0  2.228034  0  0  -0.578755  -0.76217  0  2.293303  0
O  O146  1  0.75000186  0.22839907  0.99999979  1  0  -0.872752  0  2.032583  0  0  -0.784447  0  2.266695  0  0  -0.81552  0  2.228031  0  0  -0.578759  -0.762176  0  2.2933  0
O  O147  1  0.75000132  0.27160091  0.49999990  1  0  -0.872768  0  2.032536  0  0  -0.78447  0  2.266676  0  0  -0.815544  0  2.228011  0  0  -0.578776  -0.7622  0  2.293284  0
