# generated using pymatgen
data_Zn2H21C36Br3N10
_symmetry_space_group_name_H-M   'P 1'
_cell_length_a   18.77676617
_cell_length_b   19.41992499
_cell_length_c   21.30384858
_cell_angle_alpha   102.87468933
_cell_angle_beta   110.29220623
_cell_angle_gamma   113.68109018
_symmetry_Int_Tables_number   1
_chemical_formula_structural   Zn2H21C36Br3N10
_chemical_formula_sum   'Zn4 H42 C72 Br6 N20'
_cell_volume   6050.71721851
_cell_formula_units_Z   2
loop_
 _symmetry_equiv_pos_site_id
 _symmetry_equiv_pos_as_xyz
  1  'x, y, z'
loop_
 _atom_site_type_symbol
 _atom_site_label
 _atom_site_symmetry_multiplicity
 _atom_site_fract_x
 _atom_site_fract_y
 _atom_site_fract_z
 _atom_site_occupancy
 _atom_site_pbe_bader_charge
 _atom_site_pbe_bader_spin_density
 _atom_site_pbe_cm5_charge
 _atom_site_pbe_ddec_charge
 _atom_site_pbe_ddec_spin_density
 _atom_site_pbe_ddec_sum_bond_order
 _atom_site_pbe_magmom
Zn  Zn0  1  0.87644375  0.86830744  0.46437479  1  1.202672  0  0.728647  0.633603  0  2.407732  0
Zn  Zn1  1  0.12628431  0.10004436  0.50031507  1  1.198904  0  0.730449  0.62903  0  2.443393  0
Zn  Zn2  1  0.09782633  0.96334380  0.57062449  1  1.191127  0  0.7464  0.614922  0  2.440716  0
Zn  Zn3  1  0.90848789  0.99202981  0.38341637  1  1.189907  0  0.745875  0.611961  0  2.459228  0
H  H4  1  0.29953118  0.07974628  0.73145528  1  0.054886  0  0.118091  0.106156  0  0.997892  0
H  H5  1  0.70137637  0.96580065  0.30897217  1  0.073467  0  0.116675  0.103323  0  0.999513  0
H  H6  1  0.32746594  0.24924647  0.62713394  1  0.094097  0  0.111215  0.095976  0  1.026075  0
H  H7  1  0.66319929  0.79462324  0.41138617  1  0.104182  0  0.109997  0.095549  0  1.025388  0
H  H8  1  0.84370848  0.08704524  0.46458238  1  0.137797  0  0.118723  0.108764  0  1.007715  0
H  H9  1  0.12664128  0.07090080  0.71625224  1  0.086482  0  0.11871  0.105376  0  1.011456  0
H  H10  1  0.87926341  0.72183682  0.36076381  1  0.098764  0  0.111307  0.099321  0  1.030208  0
H  H11  1  0.14458132  0.00781769  0.36364369  1  0.074665  0  0.109041  0.096313  0  1.041573  0
H  H12  1  0.91075815  0.02954354  0.24231740  1  0.110056  0  0.121225  0.108188  0  0.990238  0
H  H13  1  0.90327805  0.87570632  0.24057133  1  0.098916  0  0.116385  0.101767  0  1.007564  0
H  H14  1  0.13130892  0.84031040  0.46980246  1  0.10054  0  0.106128  0.094579  0  1.037377  0
H  H15  1  0.40771269  0.91376336  0.25087913  1  0.063766  0  0.100707  0.099196  0  1.003626  0
H  H16  1  0.54641111  0.92211711  0.26312868  1  0.036415  0  0.097721  0.09702  0  1.003713  0
H  H17  1  0.53689624  0.79056398  0.40147850  1  0.041101  0  0.097799  0.099057  0  1.004857  0
H  H18  1  0.39868711  0.78235682  0.38897965  1  0.06484  0  0.10094  0.101604  0  1.002018  0
H  H19  1  0.24695505  0.73209070  0.31869926  1  0.06009  0  0.102827  0.115362  0  1.004875  0
H  H20  1  0.36854595  0.97820393  0.32848400  1  0.057218  0  0.100849  0.101119  0  1.005233  0
H  H21  1  0.06516777  0.47661135  0.66270560  1  0.064922  0  0.099904  0.106254  0  0.99091  0
H  H22  1  0.07478191  0.35323838  0.66135649  1  0.0697  0  0.093168  0.09889  0  1.019355  0
H  H23  1  0.84864617  0.20840182  0.44200776  1  0.029542  0  0.097108  0.095262  0  1.008629  0
H  H24  1  0.83599487  0.33092157  0.44568168  1  0.052893  0  0.100566  0.101507  0  0.997852  0
H  H25  1  0.82443183  0.45053620  0.54119296  1  0.069586  0  0.105304  0.108431  0  0.987427  0
H  H26  1  0.82433010  0.57561920  0.53319580  1  0.058912  0  0.092583  0.098211  0  1.026804  0
H  H27  1  0.08117073  0.66935923  0.54399732  1  0.093141  0  0.099123  0.110757  0  1.014022  0
H  H28  1  0.42046450  0.20768095  0.84918757  1  0.034683  0  0.097683  0.097352  0  1.00195  0
H  H29  1  0.55999909  0.32840308  0.95837035  1  0.100673  0  0.103491  0.104696  0  1.014347  0
H  H30  1  0.47983194  0.32382464  0.70857769  1  0.057203  0  0.098715  0.100978  0  1.000827  0
H  H31  1  0.82089075  0.75175922  0.13114476  1  0.025953  0  0.098893  0.098765  0  1.001784  0
H  H32  1  0.95090707  0.08959794  0.05213605  1  0.100534  0  0.106058  0.108667  0  1.009911  0
H  H33  1  0.86341880  0.94407655  0.84181647  1  0.060395  0  0.107236  0.110748  0  0.989026  0
H  H34  1  0.85065117  0.92501464  0.71848145  1  0.060653  0  0.084408  0.087916  0  1.066723  0
H  H35  1  0.13776625  0.13820180  0.94626041  1  0.110837  0  0.105233  0.108056  0  1.008403  0
H  H36  1  0.19625026  0.09370900  0.14328479  1  0.075771  0  0.106832  0.111391  0  0.987077  0
H  H37  1  0.12441957  0.12544310  0.82349243  1  0.064081  0  0.101042  0.102558  0  0.999381  0
H  H38  1  0.10577113  0.80462484  0.60498448  1  0.074931  0  0.122358  0.113688  0  0.984771  0
H  H39  1  0.26625832  0.00155295  0.36378148  1  0.060467  0  0.097434  0.096283  0  1.016537  0
H  H40  1  0.78346318  0.49079153  0.15093955  1  0.065205  0  0.104784  0.10795  0  0.99397  0
H  H41  1  0.86847245  0.62123828  0.26502737  1  0.045873  0  0.096299  0.100254  0  1.007851  0
H  H42  1  0.74024745  0.62193326  0.01817183  1  0.102838  0  0.103417  0.104074  0  1.017248  0
H  H43  1  0.61652964  0.44614387  0.81888375  1  0.083777  0  0.105514  0.108504  0  0.993514  0
H  H44  1  0.94860977  0.10566698  0.17064391  1  0.026302  0  0.100337  0.100418  0  0.999205  0
H  H45  1  0.19136074  0.10331602  0.26024398  1  0.066775  0  0.089071  0.09267  0  1.034884  0
C  C46  1  0.90963288  0.96439953  0.61656907  1  0.443292  0  0.081908  0.139734  0  3.969416  0
C  C47  1  0.06067137  0.20518186  0.55990292  1  0.388878  0  0.07892  0.138643  0  3.984836  0
C  C48  1  0.29237409  0.11180462  0.69606008  1  0.478465  0  0.006094  -0.056536  0  3.990486  0
C  C49  1  0.70599373  0.92637691  0.33728303  1  0.381492  0  0.004972  -0.056972  0  3.995391  0
C  C50  1  0.30747407  0.19753623  0.64223806  1  0.455583  0  0.006388  -0.051803  0  4.01161  0
C  C51  1  0.68659417  0.83938783  0.38963728  1  0.407318  0  0.00351  -0.054876  0  4.014213  0
C  C52  1  0.91598481  0.11861143  0.49308473  1  0.363461  0  0.008847  -0.03821  0  3.956648  0
C  C53  1  0.05582588  0.03501893  0.67665867  1  0.388504  0  0.011871  -0.037154  0  3.958542  0
C  C54  1  0.98254370  0.01054879  0.68936603  1  0.062457  0  -0.034019  -0.081501  0  4.042372  0
C  C55  1  0.97945949  0.20284504  0.53984385  1  0.072462  0  -0.03465  -0.080076  0  4.04955  0
C  C56  1  0.35272222  0.19160576  0.70704949  1  -0.03691  0  -0.037022  -0.040568  0  4.083039  0
C  C57  1  0.64204330  0.87203612  0.35043728  1  0.042466  0  -0.038041  -0.041931  0  4.084566  0
C  C58  1  0.88850526  0.77001022  0.34102911  1  0.397875  0  0.010111  -0.036495  0  3.944773  0
C  C59  1  0.13792530  0.97366234  0.39728832  1  0.412717  0  0.00652  -0.043022  0  3.955915  0
C  C60  1  0.03777200  0.78766869  0.57060187  1  0.486829  0  0.01122  -0.043589  0  3.985487  0
C  C61  1  0.97805943  0.06390857  0.28871213  1  0.358258  0  0.012471  -0.041968  0  3.991835  0
C  C62  1  0.12210181  0.13447603  0.36335817  1  0.387747  0  0.077346  0.128581  0  4.013752  0
C  C63  1  0.89319506  0.72647817  0.50230672  1  0.399067  0  0.075309  0.124724  0  4.022803  0
C  C64  1  0.89929051  0.84796372  0.27916058  1  0.41693  0  0.011929  -0.040588  0  3.951103  0
C  C65  1  0.13036315  0.88748804  0.45084417  1  0.416125  0  0.006374  -0.041528  0  3.961086  0
C  C66  1  0.88130452  0.76809049  0.27249937  1  0.025605  0  -0.032558  -0.039149  0  4.057007  0
C  C67  1  0.15232343  0.90798265  0.39798265  1  0.037523  0  -0.036577  -0.028883  0  4.053105  0
C  C68  1  0.95901603  0.70950061  0.53693011  1  0.007281  0  -0.037466  -0.08387  0  4.068827  0
C  C69  1  0.05937179  0.10325717  0.28859766  1  0.074063  0  -0.036638  -0.086938  0  4.074985  0
C  C70  1  0.43602956  0.88675430  0.28421682  1  -0.065686  0  -0.094144  -0.129824  0  4.011356  0
C  C71  1  0.51451355  0.89136200  0.29114954  1  0.008364  0  -0.097511  -0.137096  0  4.002083  0
C  C72  1  0.55411486  0.85858622  0.33463708  1  -0.021534  0  -0.011265  0.086865  0  4.047422  0
C  C73  1  0.50834795  0.81657388  0.36707564  1  -0.022124  0  -0.096721  -0.133369  0  3.996942  0
C  C74  1  0.42970108  0.81145350  0.35974249  1  -0.075241  0  -0.092413  -0.123948  0  4.001512  0
C  C75  1  0.39296265  0.84851009  0.31991039  1  -0.019062  0  -0.012702  0.059076  0  4.010879  0
C  C76  1  0.25215163  0.79187444  0.32876987  1  0.055128  0  -0.099452  -0.190093  0  3.985033  0
C  C77  1  0.19291311  0.80521924  0.34705587  1  -0.157621  0  -0.016583  0.073259  0  3.927364  0
C  C78  1  0.19781489  0.88195947  0.36341314  1  0.04072  0  -0.012126  0.038468  0  4.015356  0
C  C79  1  0.26000476  0.94118060  0.35177683  1  -0.005973  0  -0.091714  -0.114109  0  3.99272  0
C  C80  1  0.31822097  0.92824492  0.33217102  1  -0.07398  0  -0.095734  -0.135223  0  4.011292  0
C  C81  1  0.31871373  0.85462020  0.32405300  1  0.012585  0  -0.009549  0.078638  0  4.015762  0
C  C82  1  0.01696089  0.41736061  0.61453587  1  -0.010423  0  -0.095492  -0.125347  0  4.012615  0
C  C83  1  0.02275780  0.34791012  0.61349949  1  -0.035341  0  -0.098247  -0.131792  0  3.994173  0
C  C84  1  0.96456209  0.27210527  0.55033718  1  0.022789  0  -0.011134  0.096063  0  4.029904  0
C  C85  1  0.89485545  0.26656500  0.49159158  1  -0.057032  0  -0.095872  -0.128982  0  3.990485  0
C  C86  1  0.88797479  0.33562726  0.49332916  1  -0.027113  0  -0.093966  -0.130276  0  4.010251  0
C  C87  1  0.95163445  0.41308436  0.55346934  1  -0.024399  0  -0.018345  0.062425  0  4.034512  0
C  C88  1  0.88095209  0.49907530  0.54204848  1  -0.072285  0  -0.088378  -0.112823  0  3.994598  0
C  C89  1  0.88069912  0.56936485  0.53731014  1  0.024405  0  -0.100295  -0.141332  0  3.996046  0
C  C90  1  0.95347299  0.63290625  0.53928369  1  -0.041144  0  -0.010772  0.110665  0  4.046335  0
C  C91  1  0.02527951  0.62283928  0.54524826  1  -0.011908  0  -0.102194  -0.192946  0  3.979179  0
C  C92  1  0.02482597  0.55269277  0.55076231  1  -0.118139  0  -0.015365  0.077734  0  3.944432  0
C  C93  1  0.95304293  0.48882323  0.54976113  1  0.039578  0  -0.01363  0.018961  0  3.994896  0
C  C94  1  0.84873387  0.69602548  0.20701583  1  -0.015146  0  -0.00256  0.097577  0  4.024557  0
C  C95  1  0.81509904  0.69528060  0.13616118  1  -0.036427  0  -0.092765  -0.125837  0  3.985582  0
C  C96  1  0.76960045  0.62306739  0.07265394  1  -0.036243  0  -0.08673  -0.133514  0  3.964446  0
C  C97  1  0.75530916  0.54787849  0.07764029  1  0.351219  0  0.078167  0.160314  0  4.058028  0
C  C98  1  0.79358619  0.54900280  0.14774372  1  0.010413  0  -0.08374  -0.134358  0  3.97955  0
C  C99  1  0.84033946  0.62194176  0.21117165  1  -0.031408  0  -0.098142  -0.138343  0  4.000246  0
C  C100  1  0.54214066  0.32596925  0.90315024  1  -0.006568  0  -0.087564  -0.134211  0  3.959121  0
C  C101  1  0.46454532  0.25870481  0.84181633  1  -0.033987  0  -0.094504  -0.130626  0  3.994374  0
C  C102  1  0.59688462  0.39497455  0.89537846  1  0.378861  0  0.080436  0.162865  0  4.061769  0
C  C103  1  0.43893854  0.25709936  0.77063488  1  -0.022121  0  -0.007227  0.091102  0  4.035722  0
C  C104  1  0.49676005  0.32452013  0.76320785  1  -0.011391  0  -0.097646  -0.133815  0  3.995716  0
C  C105  1  0.57361090  0.39262919  0.82437993  1  -0.092559  0  -0.085339  -0.13833  0  3.986909  0
C  C106  1  0.98662112  0.02332669  0.76112326  1  -0.024775  0  -0.003655  0.107132  0  4.011354  0
C  C107  1  0.06732604  0.08388899  0.82687586  1  -0.039119  0  -0.092464  -0.128446  0  3.977744  0
C  C108  1  0.07543765  0.09193724  0.89570258  1  -0.049279  0  -0.084775  -0.134462  0  3.96727  0
C  C109  1  0.00158481  0.04075434  0.90119199  1  0.342652  0  0.080967  0.161304  0  4.074762  0
C  C110  1  0.92024245  0.98255592  0.83654533  1  -0.00925  0  -0.082138  -0.129189  0  3.971288  0
C  C111  1  0.91335857  0.97291927  0.76777766  1  0.012081  0  -0.100338  -0.132571  0  3.989638  0
C  C112  1  0.00285432  0.09259481  0.09830478  1  -0.07918  0  -0.086943  -0.137283  0  3.977703  0
C  C113  1  0.00171586  0.10073810  0.16408901  1  0.016867  0  -0.093467  -0.127926  0  3.993413  0
C  C114  1  0.07268370  0.08888674  0.09028534  1  0.354368  0  0.081881  0.16449  0  4.064757  0
C  C115  1  0.06870817  0.10368128  0.22344399  1  0.028056  0  -0.009585  0.099209  0  4.034851  0
C  C116  1  0.13929784  0.10180861  0.21537941  1  -0.058081  0  -0.099531  -0.134453  0  3.992249  0
C  C117  1  0.14211921  0.09591620  0.15008437  1  -0.022585  0  -0.083133  -0.131672  0  3.962002  0
Br  Br118  1  0.78654764  0.91326550  0.58330244  1  -0.03822  0  0.064497  -0.037586  0  1.471327  0
Br  Br119  1  0.24746889  0.19737335  0.41178881  1  -0.022242  0  0.051733  -0.052127  0  1.403304  0
Br  Br120  1  0.76909348  0.65531546  0.44113927  1  -0.035647  0  0.0508  -0.051771  0  1.404112  0
Br  Br121  1  0.17788588  0.29706481  0.61669536  1  -0.030386  0  0.057129  -0.043119  0  1.446186  0
Br  Br122  1  0.10381006  0.71354544  0.34928345  1  -0.090134  0  0.011606  -0.088441  0  1.38357  0
Br  Br123  1  0.12397626  0.54394461  0.55458549  1  -0.083066  0  -0.000646  -0.097731  0  1.353515  0
N  N124  1  0.93739240  0.96070990  0.56620337  1  -0.804709  0  -0.278068  -0.227993  0  3.569033  0
N  N125  1  0.04636118  0.12960824  0.52711100  1  -0.774779  0  -0.282855  -0.228928  0  3.59138  0
N  N126  1  0.21786233  0.07387862  0.63018135  1  -0.810768  0  -0.26874  -0.175488  0  3.53457  0
N  N127  1  0.78201178  0.92621992  0.36674107  1  -0.788143  0  -0.271459  -0.174744  0  3.550212  0
N  N128  1  0.22746801  0.12780615  0.59707418  1  -0.814403  0  -0.275169  -0.17728  0  3.573432  0
N  N129  1  0.76987240  0.87217446  0.39961857  1  -0.803375  0  -0.273363  -0.179127  0  3.558987  0
N  N130  1  0.95640761  0.07573984  0.48536561  1  -0.789378  0  -0.284249  -0.182939  0  3.579276  0
N  N131  1  0.02839490  0.00453063  0.60378873  1  -0.753501  0  -0.279345  -0.17037  0  3.576077  0
N  N132  1  0.90738786  0.84423661  0.38365058  1  -0.806399  0  -0.282776  -0.19035  0  3.616019  0
N  N133  1  0.11126570  0.99128358  0.44657529  1  -0.796417  0  -0.283424  -0.189714  0  3.61591  0
N  N134  1  0.01985916  0.84496785  0.55717026  1  -0.79583  0  -0.264932  -0.156723  0  3.524816  0
N  N135  1  0.99166204  0.07076675  0.35664566  1  -0.794262  0  -0.268961  -0.161078  0  3.525914  0
N  N136  1  0.08212488  0.11540678  0.40374296  1  -0.771776  0  -0.27152  -0.226911  0  3.511327  0
N  N137  1  0.92925107  0.80659594  0.51410725  1  -0.759801  0  -0.269673  -0.225588  0  3.520329  0
N  N138  1  0.91419167  0.89211306  0.34559771  1  -0.788135  0  -0.283609  -0.175903  0  3.639472  0
N  N139  1  0.10695042  0.93835235  0.47944793  1  -0.796792  0  -0.28658  -0.1749  0  3.650167  0
N  N140  1  0.69666767  0.46940825  0.01748017  1  -0.50291  0  -0.16122  -0.152033  0  3.301919  0
N  N141  1  0.66878964  0.47088598  0.95448945  1  -0.516133  0  -0.162565  -0.154471  0  3.312594  0
N  N142  1  0.00121118  0.04509227  0.96770493  1  -0.495802  0  -0.156384  -0.144911  0  3.322004  0
N  N143  1  0.07708318  0.07988519  0.02439617  1  -0.490991  0  -0.15891  -0.152219  0  3.273487  0
