# generated using pymatgen
data_DyH8C7N2O9
_symmetry_space_group_name_H-M   'P 1'
_cell_length_a   7.40870407
_cell_length_b   12.46174577
_cell_length_c   13.01900000
_cell_angle_alpha   90.00000000
_cell_angle_beta   90.00000000
_cell_angle_gamma   94.13928069
_symmetry_Int_Tables_number   1
_chemical_formula_structural   DyH8C7N2O9
_chemical_formula_sum   'Dy4 H32 C28 N8 O36'
_cell_volume   1198.84886959
_cell_formula_units_Z   4
loop_
 _symmetry_equiv_pos_site_id
 _symmetry_equiv_pos_as_xyz
  1  'x, y, z'
loop_
 _atom_site_type_symbol
 _atom_site_label
 _atom_site_symmetry_multiplicity
 _atom_site_fract_x
 _atom_site_fract_y
 _atom_site_fract_z
 _atom_site_occupancy
 _atom_site_hle17_bader_spin_density
 _atom_site_hle17_ddec_charge
 _atom_site_hle17_ddec_spin_density
 _atom_site_hle17_ddec_sum_bond_order
 _atom_site_hle17_magmom
 _atom_site_hse06_10hf_bader_spin_density
 _atom_site_hse06_10hf_ddec_charge
 _atom_site_hse06_10hf_ddec_spin_density
 _atom_site_hse06_10hf_ddec_sum_bond_order
 _atom_site_hse06_10hf_magmom
 _atom_site_hse06_bader_spin_density
 _atom_site_hse06_ddec_charge
 _atom_site_hse06_ddec_spin_density
 _atom_site_hse06_ddec_sum_bond_order
 _atom_site_hse06_magmom
 _atom_site_pbe_bader_charge
 _atom_site_pbe_bader_spin_density
 _atom_site_pbe_cm5_charge
 _atom_site_pbe_ddec_charge
 _atom_site_pbe_ddec_spin_density
 _atom_site_pbe_ddec_sum_bond_order
 _atom_site_pbe_magmom
Dy  Dy0  1  0.90193206  0.83113290  0.83195484  1  0  2.183419  0  1.634056  0  0  2.010512  0  2.131471  0  0  2.058913  0  2.091693  0  2.164853  0  1.478834  1.974539  0  2.161446  0
Dy  Dy1  1  0.59806512  0.66886553  0.33196098  1  0  2.183484  0  1.63397  0  0  2.0106  0  2.131336  0  0  2.059001  0  2.091558  0  2.164716  0  1.478804  1.974632  0  2.161306  0
Dy  Dy2  1  0.09806645  0.16886552  0.16803825  1  0  2.183482  0  1.633968  0  0  2.010596  0  2.131329  0  0  2.058991  0  2.091558  0  2.164774  0  1.478886  1.974631  0  2.161291  0
Dy  Dy3  1  0.40192953  0.33113449  0.66804440  1  0  2.183415  0  1.634046  0  0  2.010541  0  2.131397  0  0  2.05894  0  2.091621  0  2.164851  0  1.478904  1.974572  0  2.161366  0
H  H4  1  0.66986356  0.78934675  0.07651279  1  0  0.104232  0  0.913936  0  0  0.107367  0  0.976266  0  0  0.111294  0  0.971309  0  0.19599  0  0.148511  0.104422  0  0.979937  0
H  H5  1  0.83013352  0.71065087  0.57651202  1  0  0.104212  0  0.913885  0  0  0.107317  0  0.976254  0  0  0.111243  0  0.971302  0  0.196001  0  0.148505  0.104372  0  0.979923  0
H  H6  1  0.33013254  0.21065408  0.92348491  1  0  0.104208  0  0.913968  0  0  0.107328  0  0.976316  0  0  0.111256  0  0.97136  0  0.195995  0  0.148483  0.104383  0  0.979987  0
H  H7  1  0.16988494  0.28934513  0.42348030  1  0  0.104333  0  0.914005  0  0  0.107381  0  0.976378  0  0  0.111306  0  0.971426  0  0.195995  0  0.148527  0.104436  0  0.98005  0
H  H8  1  0.76642658  0.41849462  0.98547277  1  0  0.14175  0  0.950792  0  0  0.147378  0  1.015965  0  0  0.152537  0  1.012551  0  0.161409  0  0.119619  0.143628  0  1.018613  0
H  H9  1  0.73358543  0.08150861  0.48547661  1  0  0.141738  0  0.950763  0  0  0.14739  0  1.015907  0  0  0.152548  0  1.012497  0  0.161197  0  0.119627  0.143603  0  1.018599  0
H  H10  1  0.23360404  0.58151264  0.01453184  1  0  0.141802  0  0.950746  0  0  0.147434  0  1.015895  0  0  0.152593  0  1.012493  0  0.16135  0  0.119664  0.143647  0  1.018575  0
H  H11  1  0.26640787  0.91849142  0.51453261  1  0  0.141732  0  0.950848  0  0  0.147378  0  1.015987  0  0  0.152531  0  1.012594  0  0.161483  0  0.119629  0.143619  0  1.018633  0
H  H12  1  0.20733377  0.70457085  0.90748675  1  0  0.417613  0  0.898445  0  0  0.385901  0  0.964338  0  0  0.396936  0  0.948328  0  0.643548  0  0.290823  0.378176  0  0.975516  0
H  H13  1  0.29266250  0.79542677  0.40748521  1  0  0.417594  0  0.898461  0  0  0.385871  0  0.964373  0  0  0.396913  0  0.948353  0  0.643541  0  0.290821  0.378145  0  0.975558  0
H  H14  1  0.79267486  0.29543320  0.09251325  1  0  0.417532  0  0.898562  0  0  0.38582  0  0.964455  0  0  0.396861  0  0.948437  0  0.64358  0  0.290779  0.378108  0  0.975633  0
H  H15  1  0.70731835  0.20457084  0.59251325  1  0  0.417538  0  0.898582  0  0  0.385795  0  0.964529  0  0  0.396835  0  0.94851  0  0.643611  0  0.290762  0.378081  0  0.975708  0
H  H16  1  0.18888491  0.81352844  0.96478071  1  0  0.433144  0  0.840956  0  0  0.415356  0  0.889144  0  0  0.424622  0  0.875594  0  0.62781  0  0.315379  0.408783  0  0.898796  0
H  H17  1  0.31110511  0.68647320  0.46478608  1  0  0.433054  0  0.84101  0  0  0.415266  0  0.889254  0  0  0.424533  0  0.875703  0  0.627758  0  0.315346  0.408694  0  0.898905  0
H  H18  1  0.81111418  0.18647480  0.03521929  1  0  0.433187  0  0.840961  0  0  0.415398  0  0.889101  0  0  0.424665  0  0.87555  0  0.627831  0  0.315373  0.408827  0  0.89875  0
H  H19  1  0.68888453  0.31353004  0.53522083  1  0  0.433194  0  0.840854  0  0  0.415407  0  0.889063  0  0  0.424673  0  0.875513  0  0.627801  0  0.315417  0.408835  0  0.898713  0
H  H20  1  0.24710082  0.86890834  0.70655888  1  0  0.437583  0  0.86386  0  0  0.406463  0  0.927327  0  0  0.41715  0  0.911775  0  0.649919  0  0.298434  0.398971  0  0.938221  0
H  H21  1  0.25289796  0.63108768  0.20656348  1  0  0.437734  0  0.86368  0  0  0.406638  0  0.927101  0  0  0.417323  0  0.911552  0  0.649565  0  0.298502  0.399148  0  0.93799  0
H  H22  1  0.75290018  0.13108847  0.29344266  1  0  0.43768  0  0.86375  0  0  0.406576  0  0.927183  0  0  0.417261  0  0.911634  0  0.649899  0  0.298474  0.399086  0  0.938071  0
H  H23  1  0.74709475  0.36890752  0.79344727  1  0  0.437668  0  0.86373  0  0  0.406534  0  0.927227  0  0  0.41722  0  0.911676  0  0.649902  0  0.298458  0.399038  0  0.938128  0
H  H24  1  0.22285991  0.74412436  0.73594977  1  0  0.435359  0  0.853004  0  0  0.408033  0  0.908997  0  0  0.418953  0  0.892753  0  0.633657  0  0.307709  0.400269  0  0.920572  0
H  H25  1  0.27714437  0.75587246  0.23595207  1  0  0.435458  0  0.852855  0  0  0.408131  0  0.908846  0  0  0.419055  0  0.892595  0  0.633686  0  0.30776  0.400367  0  0.920421  0
H  H26  1  0.77713965  0.25587164  0.26405407  1  0  0.435428  0  0.852894  0  0  0.408106  0  0.908877  0  0  0.419026  0  0.892632  0  0.63368  0  0.307739  0.400344  0  0.920448  0
H  H27  1  0.72286194  0.24412354  0.76405331  1  0  0.435363  0  0.85301  0  0  0.40804  0  0.908995  0  0  0.418963  0  0.892745  0  0.633734  0  0.30771  0.400275  0  0.92057  0
H  H28  1  0.52180476  0.88913081  0.77782702  1  0  0.46002  0  0.820953  0  0  0.429531  0  0.881649  0  0  0.440681  0  0.865136  0  0.665841  0  0.311702  0.42158  0  0.893436  0
H  H29  1  0.97819280  0.61087083  0.27783240  1  0  0.46009  0  0.820866  0  0  0.42961  0  0.881561  0  0  0.440761  0  0.865043  0  0.665678  0  0.311716  0.421657  0  0.893349  0
H  H30  1  0.47819702  0.11087243  0.22217451  1  0  0.460031  0  0.820937  0  0  0.429532  0  0.881649  0  0  0.440683  0  0.865134  0  0.665863  0  0.311689  0.42158  0  0.893435  0
H  H31  1  0.02179875  0.38912597  0.72217835  1  0  0.460019  0  0.820948  0  0  0.429526  0  0.88165  0  0  0.440676  0  0.865137  0  0.66577  0  0.311703  0.421574  0  0.893436  0
H  H32  1  0.50292191  0.76366457  0.80802750  1  0  0.445751  0  0.845279  0  0  0.412924  0  0.910545  0  0  0.423681  0  0.894688  0  0.63041  0  0.30597  0.405379  0  0.921657  0
H  H33  1  0.99707585  0.73633868  0.30802750  1  0  0.445762  0  0.845251  0  0  0.412919  0  0.910535  0  0  0.423678  0  0.894677  0  0.630378  0  0.305958  0.405373  0  0.921648  0
H  H34  1  0.49707968  0.23633706  0.19197097  1  0  0.445742  0  0.845279  0  0  0.412903  0  0.910554  0  0  0.423659  0  0.894702  0  0.630384  0  0.305938  0.405359  0  0.921665  0
H  H35  1  0.00291485  0.26366215  0.69197404  1  0  0.445722  0  0.845303  0  0  0.412885  0  0.910581  0  0  0.423642  0  0.894727  0  0.630366  0  0.305912  0.405339  0  0.921695  0
C  C36  1  0.69276560  0.70628375  0.05718872  1  0  0.347672  0  3.616155  0  0  0.3037  0  3.884192  0  0  0.317761  0  3.891914  0  1.07335  0  0.210689  0.294364  0  3.878817  0
C  C37  1  0.80722936  0.79371870  0.55718872  1  0  0.347757  0  3.616167  0  0  0.303811  0  3.884197  0  0  0.31787  0  3.89192  0  1.073414  0  0.210771  0.294474  0  3.878819  0
C  C38  1  0.30723869  0.29371789  0.94280974  1  0  0.347632  0  3.616341  0  0  0.303666  0  3.884381  0  0  0.317724  0  3.892105  0  1.073325  0  0.210698  0.294331  0  3.879002  0
C  C39  1  0.19277108  0.20628454  0.44280436  1  0  0.347542  0  3.616572  0  0  0.303739  0  3.884444  0  0  0.317796  0  3.892169  0  1.073287  0  0.210816  0.294406  0  3.879066  0
C  C40  1  0.69113769  0.52914097  0.10556878  1  0  0.145686  0  3.716357  0  0  0.144324  0  3.969434  0  0  0.149091  0  3.986254  0  0.483567  0  0.133424  0.141089  0  3.958129  0
C  C41  1  0.80886363  0.97085826  0.60557262  1  0  0.145586  0  3.716677  0  0  0.144262  0  3.969685  0  0  0.149032  0  3.986507  0  0.483306  0  0.133398  0.140989  0  3.958406  0
C  C42  1  0.30887546  0.47085583  0.89442891  1  0  0.145406  0  3.716524  0  0  0.144117  0  3.969513  0  0  0.148885  0  3.98633  0  0.483304  0  0.133324  0.140854  0  3.958245  0
C  C43  1  0.19112466  0.02914498  0.39442738  1  0  0.145426  0  3.716299  0  0  0.144104  0  3.969366  0  0  0.148905  0  3.986136  0  0.483396  0  0.133316  0.140841  0  3.958106  0
C  C44  1  0.74450543  0.50094295  0.00695983  1  0  -0.15537  0  3.631409  0  0  -0.187819  0  3.885116  0  0  -0.196064  0  3.90531  0  -0.01476  0  -0.06636  -0.182576  0  3.872061  0
C  C45  1  0.75550313  0.99906030  0.50696444  1  0  -0.155434  0  3.631313  0  0  -0.187913  0  3.885066  0  0  -0.19616  0  3.90526  0  -0.014556  0  -0.066416  -0.18263  0  3.872049  0
C  C46  1  0.25551226  0.49905788  0.99303864  1  0  -0.15546  0  3.631256  0  0  -0.187872  0  3.884972  0  0  -0.196126  0  3.905164  0  -0.01464  0  -0.066397  -0.182585  0  3.871957  0
C  C47  1  0.24449451  0.00094213  0.49304171  1  0  -0.155384  0  3.631244  0  0  -0.187753  0  3.885029  0  0  -0.196013  0  3.905214  0  -0.014984  0  -0.066311  -0.182488  0  3.871998  0
C  C48  1  0.77749626  0.58463270  0.93682157  1  0  0.146654  0  3.700184  0  0  0.146355  0  3.949753  0  0  0.151057  0  3.966297  0  0.525426  0  0.13472  0.143162  0  3.938654  0
C  C49  1  0.72250546  0.91536975  0.43682310  1  0  0.146839  0  3.6997  0  0  0.146462  0  3.949409  0  0  0.151165  0  3.965949  0  0.525501  0  0.134745  0.143267  0  3.938308  0
C  C50  1  0.22250870  0.41536330  0.06317690  1  0  0.146874  0  3.699737  0  0  0.146411  0  3.949542  0  0  0.151117  0  3.966084  0  0.525428  0  0.134749  0.143227  0  3.938413  0
C  C51  1  0.27748872  0.08463752  0.56317382  1  0  0.146946  0  3.699678  0  0  0.146353  0  3.949728  0  0  0.151053  0  3.966277  0  0.525628  0  0.134702  0.143167  0  3.938613  0
C  C52  1  0.85842233  0.56792050  0.83057454  1  0  0.656694  0  3.882594  0  0  0.603332  0  4.185552  0  0  0.636926  0  4.175812  0  1.626945  0  0.22899  0.580683  0  4.191265  0
C  C53  1  0.64157350  0.93207793  0.33057762  1  0  0.656619  0  3.882418  0  0  0.603262  0  4.185424  0  0  0.636858  0  4.175684  0  1.626981  0  0.229019  0.580615  0  4.19114  0
C  C54  1  0.14156325  0.43207148  0.16942699  1  0  0.656624  0  3.882114  0  0  0.603283  0  4.185141  0  0  0.636878  0  4.175405  0  1.627216  0  0.229034  0.580633  0  4.190854  0
C  C55  1  0.35842848  0.06792692  0.66942469  1  0  0.656587  0  3.882037  0  0  0.603209  0  4.185203  0  0  0.636806  0  4.175467  0  1.627103  0  0.228956  0.580558  0  4.190916  0
C  C56  1  0.65710284  0.44937021  0.19296413  1  0  0.661992  0  3.872976  0  0  0.605353  0  4.177795  0  0  0.639116  0  4.167643  0  1.616394  0  0.233068  0.582613  0  4.183808  0
C  C57  1  0.84289490  0.05062659  0.69296951  1  0  0.661852  0  3.873316  0  0  0.605246  0  4.178095  0  0  0.639008  0  4.167946  0  1.616748  0  0.23307  0.582543  0  4.184057  0
C  C58  1  0.34289952  0.55062660  0.80702589  1  0  0.662028  0  3.872864  0  0  0.605354  0  4.177727  0  0  0.639126  0  4.167557  0  1.616607  0  0.233189  0.582606  0  4.183763  0
C  C59  1  0.15710631  0.94937183  0.30702742  1  0  0.662038  0  3.872968  0  0  0.60533  0  4.177886  0  0  0.639109  0  4.167705  0  1.616548  0  0.233132  0.582582  0  4.183924  0
C  C60  1  0.09745372  0.01007865  0.97861587  1  0  0.575721  0  3.909883  0  0  0.530614  0  4.209583  0  0  0.561747  0  4.198233  0  1.616037  0  0.217143  0.509502  0  4.216572  0
C  C61  1  0.40254166  0.48991653  0.47863738  1  0  0.576143  0  3.909312  0  0  0.531044  0  4.209069  0  0  0.562178  0  4.197716  0  1.594057  0  0.217296  0.509932  0  4.216061  0
C  C62  1  0.90254325  0.98992942  0.02136416  1  0  0.57615  0  3.909742  0  0  0.531098  0  4.209372  0  0  0.562235  0  4.19801  0  1.59397  0  0.217268  0.509982  0  4.216368  0
C  C63  1  0.59745932  0.51006901  0.52138490  1  0  0.575835  0  3.909678  0  0  0.530677  0  4.209509  0  0  0.56181  0  4.198156  0  1.616486  0  0.217072  0.509565  0  4.216499  0
N  N64  1  0.74924158  0.68683284  0.96157769  1  0  -0.402052  0  3.158615  0  0  -0.351174  0  3.418014  0  0  -0.366441  0  3.43359  0  -1.199488  0  -0.337673  -0.340853  0  3.407363  0
N  N65  1  0.75075704  0.81316639  0.46157769  1  0  -0.402183  0  3.158472  0  0  -0.351291  0  3.417908  0  0  -0.366556  0  3.433479  0  -1.199433  0  -0.337713  -0.34097  0  3.407261  0
N  N66  1  0.25075817  0.31316477  0.03842000  1  0  -0.402048  0  3.158589  0  0  -0.351122  0  3.418039  0  0  -0.366387  0  3.433612  0  -1.1994  0  -0.33766  -0.340804  0  3.407385  0
N  N67  1  0.24924330  0.18683605  0.53841693  1  0  -0.402189  0  3.15853  0  0  -0.351263  0  3.417988  0  0  -0.366526  0  3.433559  0  -1.199389  0  -0.337757  -0.340946  0  3.407336  0
N  N68  1  0.66741703  0.63180936  0.13082648  1  0  -0.406352  0  3.161304  0  0  -0.356288  0  3.421755  0  0  -0.371213  0  3.436292  0  -1.228061  0  -0.328623  -0.346179  0  3.411837  0
N  N69  1  0.83258468  0.86819309  0.63082725  1  0  -0.406309  0  3.161535  0  0  -0.356257  0  3.421961  0  0  -0.371184  0  3.436501  0  -1.22836  0  -0.32866  -0.346137  0  3.412054  0
N  N70  1  0.33259246  0.36819066  0.86917352  1  0  -0.406323  0  3.161626  0  0  -0.356273  0  3.422046  0  0  -0.371203  0  3.436588  0  -1.228403  0  -0.328682  -0.34615  0  3.412131  0
N  N71  1  0.16741325  0.13181176  0.36917428  1  0  -0.406242  0  3.16158  0  0  -0.356217  0  3.421967  0  0  -0.371155  0  3.436499  0  -1.22845  0  -0.328683  -0.346099  0  3.412056  0
O  O72  1  0.88717265  0.65195862  0.77623243  1  0  -0.678743  0  2.002435  0  0  -0.629074  0  2.252428  0  0  -0.654003  0  2.241878  0  -1.169675  0  -0.38248  -0.611568  0  2.259024  0
O  O73  1  0.61282163  0.84803820  0.27623627  1  0  -0.6787  0  2.002404  0  0  -0.629028  0  2.252384  0  0  -0.653956  0  2.241833  0  -1.169645  0  -0.382531  -0.611524  0  2.258979  0
O  O74  1  0.11281677  0.34803175  0.22376143  1  0  -0.678563  0  2.002665  0  0  -0.628877  0  2.252652  0  0  -0.653802  0  2.242102  0  -1.169874  0  -0.382473  -0.611376  0  2.259249  0
O  O75  1  0.38717881  0.15196505  0.72376450  1  0  -0.678636  0  2.002619  0  0  -0.628924  0  2.252642  0  0  -0.653852  0  2.242094  0  -1.169732  0  -0.382452  -0.61142  0  2.259238  0
O  O76  1  0.89719556  0.47386808  0.80753053  1  0  -0.61225  0  1.989897  0  0  -0.555063  0  2.209329  0  0  -0.579211  0  2.197878  0  -1.189684  0  -0.296314  -0.538243  0  2.216734  0
O  O77  1  0.60279331  0.02613354  0.30753284  1  0  -0.612223  0  1.989692  0  0  -0.555028  0  2.209093  0  0  -0.579176  0  2.197645  0  -1.189717  0  -0.296283  -0.538202  0  2.216473  0
O  O78  1  0.10278926  0.52613999  0.19246870  1  0  -0.61236  0  1.989262  0  0  -0.555188  0  2.208687  0  0  -0.579338  0  2.197241  0  -1.189714  0  -0.296342  -0.538357  0  2.216057  0
O  O79  1  0.39721020  0.97386166  0.69246716  1  0  -0.612241  0  1.989388  0  0  -0.555028  0  2.208839  0  0  -0.579177  0  2.197393  0  -1.189683  0  -0.296268  -0.538198  0  2.216219  0
O  O80  1  0.62740709  0.48832834  0.27988248  1  0  -0.655348  0  2.034474  0  0  -0.604519  0  2.278292  0  0  -0.629498  0  2.269265  0  -1.160801  0  -0.361077  -0.587059  0  2.28384  0
O  O81  1  0.87258968  0.01167167  0.77988171  1  0  -0.655211  0  2.034827  0  0  -0.60439  0  2.278624  0  0  -0.629369  0  2.2696  0  -1.160905  0  -0.361023  -0.586942  0  2.284152  0
O  O82  1  0.37258147  0.51166605  0.72011752  1  0  -0.655193  0  2.034914  0  0  -0.604357  0  2.278755  0  0  -0.629341  0  2.269729  0  -1.161035  0  -0.361059  -0.586893  0  2.284304  0
O  O83  1  0.12741365  0.98833318  0.22011522  1  0  -0.655228  0  2.034759  0  0  -0.604384  0  2.278614  0  0  -0.629366  0  2.26958  0  -1.16096  0  -0.361043  -0.58692  0  2.284166  0
O  O84  1  0.65878922  0.34923053  0.17303326  1  0  -0.642681  0  2.041935  0  0  -0.572495  0  2.255056  0  0  -0.598795  0  2.243212  0  -1.192525  0  -0.296925  -0.554359  0  2.262889  0
O  O85  1  0.84119666  0.15076867  0.67303633  1  0  -0.642678  0  2.04188  0  0  -0.572493  0  2.255001  0  0  -0.598794  0  2.243158  0  -1.192406  0  -0.296973  -0.554353  0  2.262802  0
O  O86  1  0.34120910  0.65077754  0.82696981  1  0  -0.64272  0  2.041503  0  0  -0.572542  0  2.254671  0  0  -0.598825  0  2.242804  0  -1.192106  0  -0.296963  -0.554389  0  2.262491  0
O  O87  1  0.15879017  0.84922250  0.32696597  1  0  -0.642769  0  2.041704  0  0  -0.572531  0  2.254838  0  0  -0.598858  0  2.243003  0  -1.192132  0  -0.296951  -0.554377  0  2.262662  0
O  O88  1  0.14221427  0.94998248  0.90584377  1  0  -0.656426  0  2.059187  0  0  -0.607214  0  2.294821  0  0  -0.629903  0  2.28325  0  -1.177353  0  -0.365372  -0.591313  0  2.302317  0
O  O89  1  0.35779735  0.55001916  0.40585222  1  0  -0.656709  0  2.058453  0  0  -0.607507  0  2.29411  0  0  -0.630202  0  2.282537  0  -1.178293  0  -0.365522  -0.591602  0  2.301607  0
O  O90  1  0.85779331  0.05002398  0.09413396  1  0  -0.65662  0  2.059183  0  0  -0.60744  0  2.294806  0  0  -0.630127  0  2.283226  0  -1.178699  0  -0.365485  -0.591539  0  2.302308  0
O  O91  1  0.64221099  0.44998247  0.59415316  1  0  -0.656385  0  2.059413  0  0  -0.607155  0  2.295083  0  0  -0.629842  0  2.283511  0  -1.177757  0  -0.365322  -0.591253  0  2.302579  0
O  O92  1  0.19607636  0.08457074  0.02055381  1  0  -0.649758  0  2.083592  0  0  -0.603112  0  2.330905  0  0  -0.626987  0  2.320209  0  -1.169851  0  -0.377515  -0.586326  0  2.337684  0
O  O93  1  0.30393948  0.41543732  0.52056840  1  0  -0.649754  0  2.084022  0  0  -0.603124  0  2.331362  0  0  -0.626991  0  2.320662  0  -1.170512  0  -0.377527  -0.586342  0  2.338144  0
O  O94  1  0.80392928  0.91543089  0.97942622  1  0  -0.649887  0  2.083698  0  0  -0.603293  0  2.331015  0  0  -0.627171  0  2.320313  0  -1.169874  0  -0.377549  -0.586505  0  2.337798  0
O  O95  1  0.69607735  0.58456753  0.47944005  1  0  -0.649931  0  2.083359  0  0  -0.603256  0  2.330698  0  0  -0.627135  0  2.320001  0  -1.16977  0  -0.377522  -0.586469  0  2.337479  0
O  O96  1  0.12039752  0.74541004  0.94841309  1  0  -0.89107  0  1.858213  0  0  -0.84518  0  2.033325  0  0  -0.865237  0  2.005668  0  -1.266968  0  -0.627431  -0.830793  0  2.052462  0
O  O97  1  0.37959741  0.75458759  0.44841386  1  0  -0.890963  0  1.858266  0  0  -0.845065  0  2.033407  0  0  -0.865119  0  2.005739  0  -1.266945  0  -0.627416  -0.830684  0  2.052541  0
O  O98  1  0.87960697  0.25459321  0.05158461  1  0  -0.891071  0  1.858373  0  0  -0.845183  0  2.033436  0  0  -0.865241  0  2.005769  0  -1.267045  0  -0.627404  -0.830819  0  2.052533  0
O  O99  1  0.62039030  0.24541083  0.55158538  1  0  -0.891061  0  1.85829  0  0  -0.845148  0  2.033408  0  0  -0.865205  0  2.005744  0  -1.267034  0  -0.627398  -0.830782  0  2.0525  0
O  O100  1  0.15633311  0.80795127  0.72152162  1  0  -0.911638  0  1.882051  0  0  -0.862673  0  2.072257  0  0  -0.88174  0  2.040431  0  -1.266694  0  -0.645168  -0.848991  0  2.094329  0
O  O101  1  0.34367078  0.69204233  0.22152700  1  0  -0.91191  0  1.881878  0  0  -0.862968  0  2.072099  0  0  -0.882034  0  2.040268  0  -1.266379  0  -0.645286  -0.849287  0  2.094169  0
O  O102  1  0.84366896  0.19204312  0.27847454  1  0  -0.911836  0  1.881977  0  0  -0.86289  0  2.072197  0  0  -0.881955  0  2.040369  0  -1.266682  0  -0.645224  -0.849207  0  2.094262  0
O  O103  1  0.65632809  0.30794804  0.77847991  1  0  -0.911733  0  1.88204  0  0  -0.862768  0  2.072241  0  0  -0.881836  0  2.040412  0  -1.266745  0  -0.645169  -0.849081  0  2.094315  0
O  O104  1  0.58708434  0.82857200  0.80456333  1  0  -0.931695  0  1.868894  0  0  -0.8826  0  2.066737  0  0  -0.901448  0  2.033625  0  -1.267524  0  -0.650115  -0.868977  0  2.089727  0
O  O105  1  0.91291457  0.67142965  0.30456794  1  0  -0.931747  0  1.868789  0  0  -0.882658  0  2.066623  0  0  -0.901504  0  2.033503  0  -1.267328  0  -0.650104  -0.869035  0  2.089615  0
O  O106  1  0.41291610  0.17143124  0.19544128  1  0  -0.931679  0  1.868844  0  0  -0.882568  0  2.066727  0  0  -0.901415  0  2.03361  0  -1.267469  0  -0.650027  -0.868946  0  2.089717  0
O  O107  1  0.08707978  0.32856797  0.69544435  1  0  -0.931612  0  1.868818  0  0  -0.88253  0  2.066712  0  0  -0.901377  0  2.033598  0  -1.267408  0  -0.650004  -0.868906  0  2.089705  0
