# generated using pymatgen
data_ZnH5C19Br4NO5
_symmetry_space_group_name_H-M   'P 1'
_cell_length_a   14.57227805
_cell_length_b   16.10290252
_cell_length_c   17.29551446
_cell_angle_alpha   90.90941547
_cell_angle_beta   94.95385321
_cell_angle_gamma   83.78631636
_symmetry_Int_Tables_number   1
_chemical_formula_structural   ZnH5C19Br4NO5
_chemical_formula_sum   'Zn2 H10 C38 Br8 N2 O10'
_cell_volume   4019.49430108
_cell_formula_units_Z   2
loop_
 _symmetry_equiv_pos_site_id
 _symmetry_equiv_pos_as_xyz
  1  'x, y, z'
loop_
 _atom_site_type_symbol
 _atom_site_label
 _atom_site_symmetry_multiplicity
 _atom_site_fract_x
 _atom_site_fract_y
 _atom_site_fract_z
 _atom_site_occupancy
 _atom_site_pbe_bader_charge
 _atom_site_pbe_bader_spin_density
 _atom_site_pbe_cm5_charge
 _atom_site_pbe_ddec_charge
 _atom_site_pbe_ddec_spin_density
 _atom_site_pbe_ddec_sum_bond_order
 _atom_site_pbe_magmom
Zn  Zn0  1  0.40563068  0.51484306  0.50951736  1  1.324346  0  0.688402  0.90585  0  2.397923  0
Zn  Zn1  1  0.59618180  0.48631746  0.49116347  1  1.324829  0  0.68864  0.906926  0  2.39731  0
H  H2  1  0.59031454  0.52607493  0.01238316  1  0.06974  0  0.096417  0.10425  0  1.011288  0
H  H3  1  0.40958685  0.44312276  0.98949572  1  0.06465  0  0.096538  0.106713  0  1.015832  0
H  H4  1  0.39702883  0.37938264  0.11417528  1  0.110164  0  0.108752  0.126969  0  0.987396  0
H  H5  1  0.61309537  0.59108619  0.89613302  1  0.086256  0  0.107603  0.125232  0  0.991941  0
H  H6  1  0.44263586  0.08671270  0.60800756  1  0.09114  0  0.108102  0.113022  0  0.984822  0
H  H7  1  0.55829775  0.91433154  0.38800084  1  0.075078  0  0.109255  0.113472  0  0.985808  0
H  H8  1  0.45661817  0.93162769  0.61521623  1  0.059548  0  0.111235  0.115408  0  0.980722  0
H  H9  1  0.54450063  0.06945834  0.38083739  1  0.098583  0  0.110747  0.115423  0  0.980524  0
H  H10  1  0.83447897  0.48289668  0.34520812  1  0.113416  0  0.119063  0.063231  0  0.9585  0
H  H11  1  0.16791971  0.51739885  0.65561091  1  0.077097  0  0.118228  0.062539  0  0.958912  0
C  C12  1  0.48887221  0.34165132  0.48955989  1  1.655003  0  0.213869  0.660253  0  4.264161  0
C  C13  1  0.51310960  0.65938102  0.50963277  1  1.666957  0  0.217602  0.666773  0  4.249902  0
C  C14  1  0.47571969  0.96217972  0.56407988  1  -0.014225  0  -0.079129  -0.118921  0  3.96103  0
C  C15  1  0.52535352  0.03886850  0.43194928  1  -0.088079  0  -0.078591  -0.119334  0  3.96066  0
C  C16  1  0.50842223  0.91258448  0.50210914  1  0.109536  0  0.00171  0.126084  0  4.115709  0
C  C17  1  0.49274529  0.08846216  0.49397615  1  0.135994  0  0.002129  0.128019  0  4.1149  0
C  C18  1  0.53314561  0.95241068  0.43600350  1  0.019034  0  -0.080488  -0.121677  0  3.969193  0
C  C19  1  0.46782555  0.04863410  0.55999137  1  -0.015144  0  -0.08026  -0.121592  0  3.965218  0
C  C20  1  0.51441242  0.82438333  0.50580931  1  -0.49115  0  -0.025958  -0.037595  0  4.086384  0
C  C21  1  0.48708718  0.17667139  0.49074884  1  -0.46132  0  -0.028669  -0.040295  0  4.084707  0
C  C22  1  0.48496105  0.25245830  0.48844824  1  0.141099  0  -0.05012  -0.185519  0  3.971849  0
C  C23  1  0.51686450  0.74862117  0.50901320  1  0.186437  0  -0.050181  -0.187165  0  3.964126  0
C  C24  1  0.05638413  0.49949636  0.43608028  1  -0.06676  0  0.015176  0.052327  0  3.903635  0
C  C25  1  0.94570726  0.50200440  0.56479496  1  -0.057585  0  0.014623  0.051973  0  3.90229  0
C  C26  1  0.09453196  0.50736652  0.51358958  1  0.153861  0  0.023759  -3.1e-05  0  4.029148  0
C  C27  1  0.90756314  0.49401013  0.48733592  1  0.121035  0  0.02389  0.001756  0  4.026125  0
C  C28  1  0.04129049  0.50787685  0.57838946  1  0.090556  0  0.006972  -0.015604  0  3.901844  0
C  C29  1  0.96085236  0.49322109  0.42250909  1  0.019604  0  0.00739  -0.017797  0  3.899625  0
C  C30  1  0.19090360  0.51666428  0.52537078  1  0.866766  0  0.232165  0.279726  0  3.977567  0
C  C31  1  0.81109296  0.48506510  0.47558420  1  0.912466  0  0.231667  0.280123  0  3.976609  0
C  C32  1  0.45385579  0.51486925  0.35178813  1  1.634327  0  0.204534  0.60573  0  4.218346  0
C  C33  1  0.54695946  0.48112237  0.64849429  1  1.644956  0  0.204696  0.603932  0  4.221786  0
C  C34  1  0.44167878  0.51347931  0.26408703  1  0.087856  0  -0.022381  -0.098116  0  3.938374  0
C  C35  1  0.55914750  0.47399285  0.73590154  1  0.051173  0  -0.021872  -0.097388  0  3.937385  0
C  C36  1  0.46801109  0.57870121  0.22076034  1  -0.054962  0  -0.01707  0.050299  0  3.936003  0
C  C37  1  0.52782269  0.40709361  0.77363682  1  -0.052928  0  -0.017822  0.049426  0  3.936  0
C  C38  1  0.47260818  0.57152445  0.14018120  1  -0.067359  0  -0.023583  0.008784  0  3.896242  0
C  C39  1  0.52313506  0.40746030  0.85436719  1  -0.022271  0  -0.022599  0.009295  0  3.894744  0
C  C40  1  0.45128000  0.49725754  0.10101685  1  0.041546  0  -0.00857  0.10019  0  4.003613  0
C  C41  1  0.54961527  0.47642736  0.89939974  1  0.014243  0  -0.007969  0.100357  0  4.004157  0
C  C42  1  0.41696096  0.43572247  0.14391420  1  -0.002945  0  -0.095146  -0.182293  0  3.961235  0
C  C43  1  0.58921415  0.53897643  0.86188449  1  0.004621  0  -0.095403  -0.18252  0  3.961249  0
C  C44  1  0.41274404  0.44370602  0.22367191  1  -0.096823  0  -0.016353  0.096079  0  3.977037  0
C  C45  1  0.59338279  0.53778407  0.78196110  1  -0.053948  0  -0.01583  0.09776  0  3.974156  0
C  C46  1  0.46337627  0.47709362  0.01917845  1  -0.066024  0  -0.097574  -0.12396  0  3.990228  0
C  C47  1  0.53694185  0.49232421  0.98171512  1  0.023469  0  -0.094673  -0.117934  0  3.993498  0
C  C48  1  0.91018052  0.48699548  0.34372798  1  0.970433  0  0.111056  0.274696  0  3.920491  0
C  C49  1  0.09220220  0.51332236  0.65720087  1  1.003577  0  0.113182  0.273818  0  3.919627  0
Br  Br50  1  0.49644094  0.67723695  0.27545319  1  -0.024609  0  0.030688  -0.032971  0  1.465671  0
Br  Br51  1  0.49244508  0.31594214  0.71104116  1  -0.020726  0  0.034814  -0.029139  0  1.486309  0
Br  Br52  1  0.64211062  0.62819544  0.73535484  1  -0.053454  0  0.022183  -0.052434  0  1.374856  0
Br  Br53  1  0.37150044  0.35457540  0.27805308  1  -0.05057  0  0.023454  -0.052301  0  1.384549  0
Br  Br54  1  0.48524741  0.31280175  0.90222374  1  -0.042864  0  0.023466  -0.063447  0  1.470276  0
Br  Br55  1  0.50252167  0.66437172  0.08432291  1  -0.045275  0  0.022852  -0.064257  0  1.473927  0
Br  Br56  1  0.13722426  0.49655836  0.35717656  1  0.131386  0  0.139922  0.079111  0  1.516254  0
Br  Br57  1  0.86484258  0.50585503  0.64379903  1  0.132142  0  0.136871  0.073594  0  1.524873  0
N  N58  1  0.73287337  0.47580974  0.46883713  1  -1.142051  0  -0.261053  -0.257421  0  3.075708  0
N  N59  1  0.26906541  0.52613721  0.53207118  1  -1.114664  0  -0.261576  -0.256651  0  3.07714  0
O  O60  1  0.41359677  0.38769675  0.49829540  1  -1.148729  0  -0.318447  -0.556813  0  2.290538  0
O  O61  1  0.58924333  0.61302805  0.50576992  1  -1.139338  0  -0.317969  -0.554898  0  2.280101  0
O  O62  1  0.56816938  0.36545923  0.48234210  1  -1.128343  0  -0.312045  -0.5316  0  2.266443  0
O  O63  1  0.43298334  0.63581645  0.51334235  1  -1.139694  0  -0.311435  -0.53266  0  2.261798  0
O  O64  1  0.38259536  0.52519405  0.38922772  1  -1.144169  0  -0.314485  -0.545194  0  2.315656  0
O  O65  1  0.61782528  0.46951439  0.61064407  1  -1.14915  0  -0.31339  -0.543927  0  2.315745  0
O  O66  1  0.53787439  0.50290783  0.37891782  1  -1.149611  0  -0.313246  -0.549347  0  2.333084  0
O  O67  1  0.46359635  0.50072264  0.62214755  1  -1.157117  0  -0.314297  -0.547778  0  2.327875  0
O  O68  1  0.94537394  0.48705096  0.28247321  1  -1.024173  0  -0.226353  -0.296056  0  2.135669  0
O  O69  1  0.05723444  0.51264506  0.71851254  1  -1.026865  0  -0.227114  -0.294505  0  2.135432  0
