# generated using pymatgen
data_MoH4C5NO3
_symmetry_space_group_name_H-M   'P 1'
_cell_length_a   7.41566383
_cell_length_b   7.51119347
_cell_length_c   22.43300000
_cell_angle_alpha   90.39924025
_cell_angle_beta   90.00000000
_cell_angle_gamma   90.00000000
_symmetry_Int_Tables_number   1
_chemical_formula_structural   MoH4C5NO3
_chemical_formula_sum   'Mo8 H32 C40 N8 O24'
_cell_volume   1249.49866173
_cell_formula_units_Z   8
loop_
 _symmetry_equiv_pos_site_id
 _symmetry_equiv_pos_as_xyz
  1  'x, y, z'
loop_
 _atom_site_type_symbol
 _atom_site_label
 _atom_site_symmetry_multiplicity
 _atom_site_fract_x
 _atom_site_fract_y
 _atom_site_fract_z
 _atom_site_occupancy
 _atom_site_hle17_bader_spin_density
 _atom_site_hle17_ddec_charge
 _atom_site_hle17_ddec_spin_density
 _atom_site_hle17_ddec_sum_bond_order
 _atom_site_hle17_magmom
 _atom_site_hse06_10hf_bader_spin_density
 _atom_site_hse06_10hf_ddec_charge
 _atom_site_hse06_10hf_ddec_spin_density
 _atom_site_hse06_10hf_ddec_sum_bond_order
 _atom_site_hse06_10hf_magmom
 _atom_site_hse06_bader_spin_density
 _atom_site_hse06_ddec_charge
 _atom_site_hse06_ddec_spin_density
 _atom_site_hse06_ddec_sum_bond_order
 _atom_site_hse06_magmom
 _atom_site_pbe_bader_charge
 _atom_site_pbe_bader_spin_density
 _atom_site_pbe_cm5_charge
 _atom_site_pbe_ddec_charge
 _atom_site_pbe_ddec_spin_density
 _atom_site_pbe_ddec_sum_bond_order
 _atom_site_pbe_magmom
Mo  Mo0  1  0.59842923  0.52536868  0.76453068  1  0  2.259424  0  4.084886  0  0  2.276468  0  4.601389  0  0  2.385571  0  4.562324  0  2.66469  0  1.586296  2.202561  0  4.627089  0
Mo  Mo1  1  0.09842949  0.47462851  0.73546878  1  0  2.259328  0  4.084949  0  0  2.276373  0  4.60145  0  0  2.385477  0  4.562383  0  2.66479  0  1.586279  2.202466  0  4.627154  0
Mo  Mo2  1  0.40157025  0.47462984  0.23546878  1  0  2.25937  0  4.084786  0  0  2.27641  0  4.60129  0  0  2.385505  0  4.562234  0  2.664758  0  1.586307  2.202507  0  4.626982  0
Mo  Mo3  1  0.90156999  0.52537134  0.26453024  1  0  2.259465  0  4.08479  0  0  2.276517  0  4.601292  0  0  2.385622  0  4.562218  0  2.664785  0  1.586331  2.202612  0  4.626991  0
Mo  Mo4  1  0.59308244  0.03013709  0.73545167  1  0  2.250274  0  4.091657  0  0  2.267547  0  4.608921  0  0  2.376298  0  4.569965  0  2.656333  0  1.583816  2.193902  0  4.634604  0
Mo  Mo5  1  0.09308270  0.96986010  0.76454734  1  0  2.250275  0  4.091545  0  0  2.26756  0  4.608783  0  0  2.3763  0  4.569852  0  2.656417  0  1.583821  2.193924  0  4.634447  0
Mo  Mo6  1  0.40691839  0.96986010  0.26454734  1  0  2.250188  0  4.091658  0  0  2.26744  0  4.608935  0  0  2.376182  0  4.569998  0  2.656326  0  1.583794  2.193794  0  4.63462  0
Mo  Mo7  1  0.90691678  0.03014108  0.23545168  1  0  2.25027  0  4.091584  0  0  2.267535  0  4.608866  0  0  2.376286  0  4.569914  0  2.656132  0  1.583832  2.193893  0  4.634542  0
H  H8  1  0.76592738  0.32261302  0.64453951  1  0  0.093702  0  0.93299  0  0  0.09961  0  0.997672  0  0  0.102969  0  0.994265  0  0.111872  0  0.122049  0.09708  0  1.000268  0
H  H9  1  0.26594652  0.67738816  0.85546218  1  0  0.093659  0  0.932872  0  0  0.099674  0  0.997429  0  0  0.103027  0  0.994028  0  0.111813  0  0.122086  0.097149  0  1.00003  0
H  H10  1  0.23406266  0.67738949  0.35546397  1  0  0.093736  0  0.932868  0  0  0.099609  0  0.997591  0  0  0.102962  0  0.994188  0  0.111873  0  0.122067  0.097086  0  1.000191  0
H  H11  1  0.73406105  0.32261835  0.14453685  1  0  0.093717  0  0.932987  0  0  0.099585  0  0.997703  0  0  0.102938  0  0.994302  0  0.111892  0  0.122037  0.097063  0  1.000304  0
H  H12  1  0.72140002  0.29645010  0.53590093  1  0  0.10334  0  0.963368  0  0  0.114905  0  1.020855  0  0  0.117871  0  1.020761  0  0.067309  0  0.106539  0.112828  0  1.020994  0
H  H13  1  0.22140567  0.70355241  0.96410032  1  0  0.103268  0  0.963365  0  0  0.11483  0  1.020855  0  0  0.117797  0  1.020761  0  0.067231  0  0.106519  0.112754  0  1.020992  0
H  H14  1  0.27860756  0.70356173  0.46410124  1  0  0.103392  0  0.96333  0  0  0.114979  0  1.020787  0  0  0.117946  0  1.020694  0  0.067167  0  0.106566  0.112904  0  1.020924  0
H  H15  1  0.77859786  0.29645010  0.03590004  1  0  0.103364  0  0.963323  0  0  0.114939  0  1.020812  0  0  0.117906  0  1.020718  0  0.067252  0  0.106535  0.112863  0  1.02095  0
H  H16  1  0.32237033  0.71727760  0.55159278  1  0  0.10233  0  0.965722  0  0  0.112265  0  1.026257  0  0  0.114976  0  1.026633  0  0.076476  0  0.105771  0.110361  0  1.026095  0
H  H17  1  0.82236198  0.28274089  0.94840450  1  0  0.102348  0  0.965652  0  0  0.112278  0  1.026191  0  0  0.114988  0  1.026571  0  0.076645  0  0.105783  0.110376  0  1.026028  0
H  H18  1  0.67762780  0.28272758  0.44840670  1  0  0.102351  0  0.965799  0  0  0.112289  0  1.026313  0  0  0.114999  0  1.026691  0  0.076513  0  0.105777  0.110385  0  1.026152  0
H  H19  1  0.17763211  0.71727360  0.05159322  1  0  0.102344  0  0.965748  0  0  0.112278  0  1.026275  0  0  0.114988  0  1.026654  0  0.076517  0  0.105773  0.110375  0  1.026112  0
H  H20  1  0.38314709  0.72114392  0.65929805  1  0  0.095847  0  0.942723  0  0  0.10058  0  1.00784  0  0  0.103926  0  1.004429  0  0.143421  0  0.122013  0.098072  0  1.01037  0
H  H21  1  0.88315357  0.27886791  0.84070099  1  0  0.095726  0  0.942787  0  0  0.100461  0  1.007924  0  0  0.103808  0  1.004512  0  0.143536  0  0.121986  0.097955  0  1.010454  0
H  H22  1  0.61684700  0.27886126  0.34070232  1  0  0.095719  0  0.942787  0  0  0.10046  0  1.007929  0  0  0.103807  0  1.004519  0  0.143513  0  0.121968  0.097953  0  1.010458  0
H  H23  1  0.11685131  0.72114259  0.15929760  1  0  0.09571  0  0.94276  0  0  0.100491  0  1.007867  0  0  0.10384  0  1.004451  0  0.143485  0  0.121962  0.097984  0  1.010397  0
H  H24  1  0.76347447  0.82639340  0.85371782  1  0  0.093654  0  0.935193  0  0  0.099575  0  0.999897  0  0  0.102934  0  0.996483  0  0.127287  0  0.122116  0.097036  0  1.002496  0
H  H25  1  0.26346933  0.17359580  0.64628341  1  0  0.09371  0  0.935087  0  0  0.099657  0  0.999744  0  0  0.103014  0  0.996336  0  0.127642  0  0.122124  0.097118  0  1.002342  0
H  H26  1  0.23653311  0.17359846  0.14628386  1  0  0.093682  0  0.935114  0  0  0.099628  0  0.999778  0  0  0.102983  0  0.996372  0  0.127688  0  0.122117  0.097089  0  1.002376  0
H  H27  1  0.73652611  0.82639606  0.35371738  1  0  0.093667  0  0.935151  0  0  0.099591  0  0.99985  0  0  0.102949  0  0.996441  0  0.127259  0  0.122134  0.09705  0  1.002452  0
H  H28  1  0.72293595  0.79937839  0.96223188  1  0  0.103994  0  0.961973  0  0  0.115548  0  1.019282  0  0  0.118626  0  1.018994  0  0.077823  0  0.106767  0.113374  0  1.019595  0
H  H29  1  0.22293217  0.20060948  0.53776844  1  0  0.104038  0  0.962068  0  0  0.115587  0  1.019366  0  0  0.118664  0  1.019077  0  0.077935  0  0.106776  0.11341  0  1.01968  0
H  H30  1  0.27707702  0.20061347  0.03776890  1  0  0.104049  0  0.962044  0  0  0.115594  0  1.019343  0  0  0.118672  0  1.019055  0  0.077982  0  0.106799  0.113418  0  1.01966  0
H  H31  1  0.77707136  0.79937706  0.46223099  1  0  0.104009  0  0.962083  0  0  0.11559  0  1.019342  0  0  0.118668  0  1.019054  0  0.077877  0  0.106775  0.113416  0  1.019656  0
H  H32  1  0.31663922  0.21387400  0.95007238  1  0  0.102065  0  0.966696  0  0  0.112312  0  1.026687  0  0  0.114974  0  1.027137  0  0.085572  0  0.105876  0.110435  0  1.026488  0
H  H33  1  0.81662952  0.78611919  0.54992840  1  0  0.102126  0  0.966746  0  0  0.112385  0  1.026739  0  0  0.115048  0  1.027189  0  0.085379  0  0.105897  0.110507  0  1.026539  0
H  H34  1  0.68336970  0.78611254  0.04993017  1  0  0.102082  0  0.966679  0  0  0.112346  0  1.026674  0  0  0.115009  0  1.027125  0  0.085517  0  0.105878  0.11047  0  1.026472  0
H  H35  1  0.18335917  0.21387666  0.45007060  1  0  0.102067  0  0.966744  0  0  0.112334  0  1.026731  0  0  0.114997  0  1.02718  0  0.085529  0  0.10588  0.110459  0  1.026528  0
H  H36  1  0.37601489  0.22097957  0.84226522  1  0  0.094888  0  0.939923  0  0  0.099287  0  1.006336  0  0  0.102607  0  1.002903  0  0.147289  0  0.121806  0.096837  0  1.008869  0
H  H37  1  0.87600789  0.77900697  0.65773555  1  0  0.09495  0  0.939993  0  0  0.099387  0  1.006283  0  0  0.102705  0  1.002856  0  0.14713  0  0.121846  0.096936  0  1.008817  0
H  H38  1  0.62398999  0.77900830  0.15773689  1  0  0.094958  0  0.940032  0  0  0.099384  0  1.006321  0  0  0.102701  0  1.002895  0  0.147091  0  0.121847  0.096933  0  1.008856  0
H  H39  1  0.12398216  0.22098756  0.34226434  1  0  0.094928  0  0.939995  0  0  0.099317  0  1.006391  0  0  0.102635  0  1.002962  0  0.147202  0  0.121815  0.096875  0  1.008905  0
C  C40  1  0.66810876  0.40650053  0.62197055  1  0  0.160437  0  3.682415  0  0  0.134589  0  3.936898  0  0  0.143845  0  3.951527  0  0.536744  0  0.05456  0.12864  0  3.926983  0
C  C41  1  0.16811981  0.59350198  0.87803070  1  0  0.160474  0  3.682186  0  0  0.134522  0  3.936733  0  0  0.143794  0  3.951349  0  0.535815  0  0.054614  0.128561  0  3.926826  0
C  C42  1  0.33188128  0.59350465  0.37803115  1  0  0.160537  0  3.68195  0  0  0.134678  0  3.936482  0  0  0.143951  0  3.951091  0  0.535634  0  0.054619  0.128714  0  3.926582  0
C  C43  1  0.83187832  0.40650452  0.12196923  1  0  0.160543  0  3.682253  0  0  0.134722  0  3.936782  0  0  0.143993  0  3.951392  0  0.536235  0  0.054666  0.128758  0  3.926883  0
C  C44  1  0.64263296  0.39408542  0.56073622  1  0  -0.160058  0  3.69126  0  0  -0.175792  0  3.931579  0  0  -0.183851  0  3.951698  0  -0.031275  0  -0.082767  -0.170516  0  3.917895  0
C  C45  1  0.14263726  0.60592242  0.93926415  1  0  -0.159902  0  3.69102  0  0  -0.175594  0  3.931368  0  0  -0.183664  0  3.951487  0  -0.030894  0  -0.082716  -0.170315  0  3.917684  0
C  C46  1  0.35737057  0.60591842  0.43926682  1  0  -0.160256  0  3.691353  0  0  -0.176029  0  3.931654  0  0  -0.184099  0  3.951769  0  -0.030689  0  -0.082886  -0.170751  0  3.917971  0
C  C47  1  0.85736222  0.39408809  0.06073355  1  0  -0.160172  0  3.691241  0  0  -0.175941  0  3.931536  0  0  -0.184007  0  3.951649  0  -0.030899  0  -0.082829  -0.170664  0  3.917856  0
C  C48  1  0.51640016  0.50516634  0.53255113  1  0  0.077866  0  3.782442  0  0  0.088026  0  4.017786  0  0  0.092218  0  4.039227  0  0.006999  0  0.006033  0.085441  0  4.002996  0
C  C49  1  0.01639772  0.49483884  0.96744880  1  0  0.077932  0  3.782294  0  0  0.088045  0  4.017691  0  0  0.092241  0  4.039132  0  -0.036017  0  0.006052  0.085461  0  4.002899  0
C  C50  1  0.48359932  0.49484017  0.46745058  1  0  0.077944  0  3.782562  0  0  0.088246  0  4.017754  0  0  0.092445  0  4.039192  0  -0.036511  0  0.006112  0.085661  0  4.002966  0
C  C51  1  0.98359367  0.50517033  0.03254935  1  0  0.07776  0  3.782522  0  0  0.088065  0  4.01776  0  0  0.09226  0  4.0392  0  0.006697  0  0.005984  0.08548  0  4.00297  0
C  C52  1  0.42284549  0.62606085  0.56917117  1  0  -0.149023  0  3.68054  0  0  -0.165732  0  3.92184  0  0  -0.17329  0  3.940826  0  -0.032959  0  -0.080469  -0.160801  0  3.908961  0
C  C53  1  0.92284253  0.37395365  0.93082610  1  0  -0.14919  0  3.680674  0  0  -0.165853  0  3.921978  0  0  -0.173418  0  3.940971  0  -0.032918  0  -0.080557  -0.160921  0  3.909097  0
C  C54  1  0.57715804  0.37394166  0.43082920  1  0  -0.149201  0  3.680655  0  0  -0.165902  0  3.921899  0  0  -0.173466  0  3.940889  0  -0.0333  0  -0.080513  -0.160971  0  3.909019  0
C  C55  1  0.07715560  0.62605819  0.06917161  1  0  -0.149106  0  3.680706  0  0  -0.165801  0  3.921972  0  0  -0.173364  0  3.940965  0  -0.033336  0  -0.080475  -0.16087  0  3.909091  0
C  C56  1  0.45535236  0.62962096  0.63011871  1  0  0.166205  0  3.679151  0  0  0.142152  0  3.931674  0  0  0.151994  0  3.945183  0  0.514983  0  0.05413  0.135811  0  3.922531  0
C  C57  1  0.95535884  0.37038955  0.86988167  1  0  0.166451  0  3.679171  0  0  0.142367  0  3.93171  0  0  0.15221  0  3.945222  0  0.514757  0  0.054254  0.136026  0  3.922566  0
C  C58  1  0.54463904  0.37038688  0.36988166  1  0  0.166462  0  3.679162  0  0  0.142338  0  3.931749  0  0  0.152179  0  3.945261  0  0.515261  0  0.054198  0.135998  0  3.922604  0
C  C59  1  0.04463929  0.62961829  0.13011737  1  0  0.166451  0  3.679224  0  0  0.142304  0  3.931828  0  0  0.152146  0  3.945339  0  0.515203  0  0.054197  0.135965  0  3.922682  0
C  C60  1  0.66608332  0.90976433  0.87705056  1  0  0.162183  0  3.681013  0  0  0.136295  0  3.934286  0  0  0.145609  0  3.948772  0  0.555656  0  0.053697  0.13037  0  3.924429  0
C  C61  1  0.16607279  0.09022620  0.62295066  1  0  0.162275  0  3.680847  0  0  0.136381  0  3.934121  0  0  0.145697  0  3.948605  0  0.555459  0  0.053752  0.130455  0  3.924263  0
C  C62  1  0.33392965  0.09022221  0.12295199  1  0  0.162283  0  3.68104  0  0  0.13636  0  3.934309  0  0  0.145677  0  3.948797  0  0.555475  0  0.053728  0.130436  0  3.924449  0
C  C63  1  0.83391995  0.90976699  0.37704834  1  0  0.162353  0  3.680864  0  0  0.13645  0  3.934145  0  0  0.145766  0  3.948629  0  0.555747  0  0.053777  0.130527  0  3.924291  0
C  C64  1  0.64225673  0.89639196  0.93824167  1  0  -0.160221  0  3.692473  0  0  -0.175609  0  3.933277  0  0  -0.183664  0  3.953174  0  -0.101433  0  -0.082109  -0.17036  0  3.919783  0
C  C65  1  0.14224755  0.10359990  0.56175822  1  0  -0.160326  0  3.692692  0  0  -0.175703  0  3.933456  0  0  -0.183759  0  3.953365  0  -0.10133  0  -0.082089  -0.170449  0  3.919954  0
C  C66  1  0.35775489  0.10360523  0.06175913  1  0  -0.160295  0  3.692462  0  0  -0.1757  0  3.933246  0  0  -0.183768  0  3.953121  0  -0.1013  0  -0.082103  -0.170447  0  3.919744  0
C  C67  1  0.85775059  0.89639196  0.43824211  1  0  -0.160381  0  3.692688  0  0  -0.175805  0  3.933457  0  0  -0.183864  0  3.953342  0  -0.101383  0  -0.082175  -0.170555  0  3.919961  0
C  C68  1  0.51527821  0.00546265  0.96742638  1  0  0.078291  0  3.780577  0  0  0.087274  0  4.01784  0  0  0.091448  0  4.039275  0  -0.054583  0  0.00557  0.084666  0  4.003127  0
C  C69  1  0.01526633  0.99453188  0.53257352  1  0  0.078262  0  3.780556  0  0  0.087253  0  4.017836  0  0  0.091428  0  4.039287  0  -0.096789  0  0.00545  0.084646  0  4.003122  0
C  C70  1  0.48474015  0.99452788  0.03257574  1  0  0.078319  0  3.780495  0  0  0.087389  0  4.017706  0  0  0.091632  0  4.03908  0  -0.096581  0  0.005539  0.084782  0  4.002993  0
C  C71  1  0.98472641  0.00546265  0.46742504  1  0  0.078266  0  3.780661  0  0  0.087348  0  4.01784  0  0  0.091562  0  4.039257  0  -0.054408  0  0.005562  0.08474  0  4.003128  0
C  C72  1  0.41852760  0.12484737  0.93170482  1  0  -0.149359  0  3.68095  0  0  -0.164787  0  3.921493  0  0  -0.172353  0  3.940643  0  0.075933  0  -0.080015  -0.159866  0  3.908548  0
C  C73  1  0.91851656  0.87514582  0.56829507  1  0  -0.149363  0  3.680692  0  0  -0.164874  0  3.921279  0  0  -0.172438  0  3.940429  0  0.075953  0  -0.080043  -0.159953  0  3.908336  0
C  C74  1  0.58148132  0.87514715  0.06829552  1  0  -0.149345  0  3.680743  0  0  -0.164883  0  3.921307  0  0  -0.172467  0  3.940439  0  0.075691  0  -0.080054  -0.159962  0  3.908363  0
C  C75  1  0.08147619  0.12485270  0.43170573  1  0  -0.149279  0  3.680637  0  0  -0.16479  0  3.921188  0  0  -0.172361  0  3.940324  0  0.075699  0  -0.080018  -0.159871  0  3.908247  0
C  C76  1  0.44989903  0.12983472  0.87072462  1  0  0.16784  0  3.68022  0  0  0.142133  0  3.934227  0  0  0.152004  0  3.947755  0  0.459733  0  0.05468  0.135766  0  3.925041  0
C  C77  1  0.94988934  0.87015715  0.62927751  1  0  0.167734  0  3.680275  0  0  0.142105  0  3.934199  0  0  0.151978  0  3.947729  0  0.459725  0  0.054674  0.135735  0  3.925013  0
C  C78  1  0.55011124  0.87015315  0.12927883  1  0  0.167716  0  3.680179  0  0  0.142074  0  3.934081  0  0  0.151948  0  3.947614  0  0.459843  0  0.054662  0.135704  0  3.924896  0
C  C79  1  0.05009936  0.12983738  0.37072150  1  0  0.167825  0  3.680151  0  0  0.142162  0  3.934145  0  0  0.152036  0  3.947675  0  0.460064  0  0.054742  0.135796  0  3.924963  0
N  N80  1  0.57516226  0.52134925  0.65644302  1  0  -0.347586  0  3.234721  0  0  -0.299061  0  3.494607  0  0  -0.317442  0  3.51383  0  -1.27433  0  -0.333892  -0.287032  0  3.481604  0
N  N81  1  0.07517061  0.47865859  0.84355646  1  0  -0.347708  0  3.234655  0  0  -0.299157  0  3.4946  0  0  -0.317539  0  3.513801  0  -1.27394  0  -0.334037  -0.28713  0  3.48161  0
N  N82  1  0.42483183  0.47865060  0.34355822  1  0  -0.347681  0  3.234553  0  0  -0.299081  0  3.494412  0  0  -0.317468  0  3.513634  0  -1.273902  0  -0.333918  -0.287052  0  3.481415  0
N  N83  1  0.92483292  0.52135457  0.15644215  1  0  -0.34762  0  3.234685  0  0  -0.299083  0  3.49461  0  0  -0.317471  0  3.513834  0  -1.274264  0  -0.333881  -0.287053  0  3.48161  0
N  N84  1  0.57117341  0.02416585  0.84347813  1  0  -0.35152  0  3.236436  0  0  -0.301603  0  3.495627  0  0  -0.319975  0  3.514782  0  -1.253909  0  -0.334114  -0.28956  0  3.482595  0
N  N85  1  0.07116693  0.97582468  0.65652355  1  0  -0.35157  0  3.236565  0  0  -0.301695  0  3.495745  0  0  -0.320076  0  3.51491  0  -1.253966  0  -0.334142  -0.289649  0  3.48271  0
N  N86  1  0.42883012  0.97582867  0.15652400  1  0  -0.351597  0  3.236695  0  0  -0.301638  0  3.495792  0  0  -0.320019  0  3.514958  0  -1.254135  0  -0.334125  -0.289591  0  3.482756  0
N  N87  1  0.92882447  0.02417118  0.34347725  1  0  -0.351611  0  3.23662  0  0  -0.301678  0  3.495775  0  0  -0.320057  0  3.514938  0  -1.254029  0  -0.334191  -0.289637  0  3.482744  0
O  O88  1  0.83040037  0.45826187  0.74888131  1  0  -0.882185  0  1.839435  0  0  -0.89184  0  2.152773  0  0  -0.93507  0  2.147239  0  -0.989548  0  -0.581907  -0.860871  0  2.15503  0
O  O89  1  0.33040063  0.54173532  0.75111814  1  0  -0.882139  0  1.839404  0  0  -0.891804  0  2.152759  0  0  -0.935028  0  2.147213  0  -0.989567  0  -0.581897  -0.86084  0  2.155026  0
O  O90  1  0.16959911  0.54173931  0.25111682  1  0  -0.882176  0  1.839433  0  0  -0.891832  0  2.152773  0  0  -0.935059  0  2.147232  0  -0.989548  0  -0.5819  -0.860868  0  2.15504  0
O  O91  1  0.66959885  0.45826187  0.24888265  1  0  -0.882191  0  1.839424  0  0  -0.891846  0  2.152755  0  0  -0.935073  0  2.147216  0  -0.989553  0  -0.581907  -0.860881  0  2.155022  0
O  O92  1  0.62182700  0.76092152  0.75335109  1  0  -0.844379  0  1.804563  0  0  -0.853905  0  2.113534  0  0  -0.894933  0  2.107437  0  -0.963094  0  -0.566934  -0.826621  0  2.117526  0
O  O93  1  0.12182996  0.23907434  0.74664613  1  0  -0.844405  0  1.80462  0  0  -0.853932  0  2.113581  0  0  -0.894961  0  2.107488  0  -0.963215  0  -0.566979  -0.826651  0  2.117575  0
O  O94  1  0.37816844  0.23907700  0.24664614  1  0  -0.844371  0  1.804528  0  0  -0.853895  0  2.113495  0  0  -0.894917  0  2.107397  0  -0.963166  0  -0.566974  -0.826621  0  2.117506  0
O  O95  1  0.87816953  0.76092551  0.25335289  1  0  -0.84444  0  1.804611  0  0  -0.853954  0  2.113569  0  0  -0.894984  0  2.107474  0  -0.963192  0  -0.566959  -0.826669  0  2.117558  0
O  O96  1  0.58722187  0.50913651  0.84076526  1  0  -0.672704  0  1.418309  0  0  -0.678497  0  1.658011  0  0  -0.704876  0  1.650966  0  -0.807728  0  -0.510572  -0.661158  0  1.662864  0
O  O97  1  0.08722213  0.49086334  0.65923331  1  0  -0.672657  0  1.418252  0  0  -0.678445  0  1.657942  0  0  -0.704825  0  1.650901  0  -0.807764  0  -0.51052  -0.661106  0  1.662793  0
O  O98  1  0.41278031  0.49086467  0.15923420  1  0  -0.672669  0  1.418261  0  0  -0.67846  0  1.657955  0  0  -0.704839  0  1.650915  0  -0.807774  0  -0.510549  -0.661122  0  1.662807  0
O  O99  1  0.91278140  0.50913518  0.34076526  1  0  -0.672738  0  1.418335  0  0  -0.678527  0  1.658021  0  0  -0.704907  0  1.650975  0  -0.807736  0  -0.510576  -0.661191  0  1.662874  0
O  O100  1  0.53592235  0.26083838  0.74669423  1  0  -0.859403  0  1.810389  0  0  -0.869999  0  2.120139  0  0  -0.911562  0  2.115319  0  -0.969096  0  -0.5722  -0.842288  0  2.123092  0
O  O101  1  0.03592126  0.73915614  0.75330522  1  0  -0.859389  0  1.810283  0  0  -0.870042  0  2.120126  0  0  -0.911581  0  2.115255  0  -0.969182  0  -0.572239  -0.842333  0  2.123081  0
O  O102  1  0.46407983  0.73916014  0.25330701  1  0  -0.85935  0  1.81031  0  0  -0.869976  0  2.120128  0  0  -0.911516  0  2.115266  0  -0.969115  0  -0.572225  -0.842267  0  2.123085  0
O  O103  1  0.96408092  0.26084238  0.24669380  1  0  -0.859412  0  1.810328  0  0  -0.870037  0  2.120128  0  0  -0.911582  0  2.115262  0  -0.969174  0  -0.57225  -0.842328  0  2.123082  0
O  O104  1  0.58475682  0.00739980  0.65925232  1  0  -0.674242  0  1.427818  0  0  -0.680738  0  1.669603  0  0  -0.707332  0  1.662745  0  -0.807272  0  -0.510301  -0.663215  0  1.674305  0
O  O105  1  0.08475708  0.99259872  0.84074670  1  0  -0.674263  0  1.427826  0  0  -0.680737  0  1.669582  0  0  -0.707332  0  1.66273  0  -0.80721  0  -0.510294  -0.663215  0  1.674281  0
O  O106  1  0.41524671  0.99260537  0.34074671  1  0  -0.674231  0  1.427791  0  0  -0.680725  0  1.669577  0  0  -0.707319  0  1.662721  0  -0.807187  0  -0.510326  -0.663203  0  1.674284  0
O  O107  1  0.91523971  0.00740513  0.15925189  1  0  -0.674232  0  1.427842  0  0  -0.680718  0  1.669605  0  0  -0.707315  0  1.66275  0  -0.807271  0  -0.510306  -0.663197  0  1.674307  0
O  O108  1  0.83378914  0.04288637  0.75019724  1  0  -0.861636  0  1.815094  0  0  -0.871082  0  2.12443  0  0  -0.913619  0  2.119228  0  -0.980018  0  -0.576439  -0.84097  0  2.127017  0
O  O109  1  0.33379075  0.95711082  0.74980178  1  0  -0.861619  0  1.815126  0  0  -0.871035  0  2.124403  0  0  -0.913573  0  2.119206  0  -0.980036  0  -0.576435  -0.840921  0  2.126986  0
O  O110  1  0.16621034  0.95711082  0.24980267  1  0  -0.861567  0  1.815071  0  0  -0.871005  0  2.124414  0  0  -0.913546  0  2.119217  0  -0.980004  0  -0.576402  -0.84089  0  2.126999  0
O  O111  1  0.66620873  0.04289036  0.25019635  1  0  -0.86165  0  1.815139  0  0  -0.871066  0  2.12443  0  0  -0.913607  0  2.119232  0  -0.979722  0  -0.576409  -0.840947  0  2.127006  0
