# generated using pymatgen
data_Zn2H36C29(NO)8
_symmetry_space_group_name_H-M   'P 1'
_cell_length_a   10.15626373
_cell_length_b   18.17904207
_cell_length_c   21.78650161
_cell_angle_alpha   112.03040491
_cell_angle_beta   103.49582287
_cell_angle_gamma   90.00341600
_symmetry_Int_Tables_number   1
_chemical_formula_structural   Zn2H36C29(NO)8
_chemical_formula_sum   'Zn8 H144 C116 N32 O32'
_cell_volume   3608.64139528
_cell_formula_units_Z   4
loop_
 _symmetry_equiv_pos_site_id
 _symmetry_equiv_pos_as_xyz
  1  'x, y, z'
loop_
 _atom_site_type_symbol
 _atom_site_label
 _atom_site_symmetry_multiplicity
 _atom_site_fract_x
 _atom_site_fract_y
 _atom_site_fract_z
 _atom_site_occupancy
 _atom_site_pbe_bader_charge
 _atom_site_pbe_bader_spin_density
 _atom_site_pbe_cm5_charge
 _atom_site_pbe_ddec_charge
 _atom_site_pbe_ddec_spin_density
 _atom_site_pbe_ddec_sum_bond_order
 _atom_site_pbe_magmom
Zn  Zn0  1  0.70135658  0.24480032  0.16066404  1  1.248082  0  0.727254  0.762553  0  2.353358  0
Zn  Zn1  1  0.54066591  0.25526116  0.83929077  1  1.244616  0  0.726755  0.761978  0  2.353346  0
Zn  Zn2  1  0.29864121  0.75519881  0.83933692  1  1.248113  0  0.72726  0.762566  0  2.353358  0
Zn  Zn3  1  0.45933455  0.74474098  0.16070835  1  1.244501  0  0.726756  0.761981  0  2.353383  0
Zn  Zn4  1  0.61416550  0.25608705  0.34543075  1  1.283145  0  0.670645  0.852103  0  2.315304  0
Zn  Zn5  1  0.26842367  0.24393110  0.65462277  1  1.284295  0  0.670502  0.851661  0  2.315812  0
Zn  Zn6  1  0.38583460  0.74391334  0.65456570  1  1.282952  0  0.670641  0.852095  0  2.31537  0
Zn  Zn7  1  0.73157737  0.75606562  0.34537897  1  1.284426  0  0.670479  0.851585  0  2.315985  0
H  H8  1  0.88000513  0.42874224  0.23824121  1  0.131981  0  0.141711  0.104371  0  1.012722  0
H  H9  1  0.64159799  0.07141835  0.76185125  1  0.132725  0  0.14171  0.103515  0  1.012934  0
H  H10  1  0.11999326  0.57125810  0.76175855  1  0.131962  0  0.141709  0.104347  0  1.012804  0
H  H11  1  0.35840320  0.92858259  0.23814837  1  0.133059  0  0.141721  0.103519  0  1.012907  0
H  H12  1  0.86179176  0.24368827  0.04821797  1  0.137222  0  0.123238  0.11763  0  1.018778  0
H  H13  1  0.81398710  0.25654042  0.95178380  1  0.141512  0  0.123754  0.117214  0  1.017408  0
H  H14  1  0.13820886  0.75631209  0.95178100  1  0.137222  0  0.123246  0.117649  0  1.018742  0
H  H15  1  0.18600843  0.74345872  0.04821692  1  0.141399  0  0.123736  0.117204  0  1.01745  0
H  H16  1  0.06133690  0.36400766  0.07138353  1  0.118348  0  0.132433  0.137994  0  0.987159  0
H  H17  1  0.99023742  0.13617509  0.92859053  1  0.129884  0  0.132519  0.138161  0  0.986112  0
H  H18  1  0.93866422  0.63599268  0.92861692  1  0.118362  0  0.132445  0.13802  0  0.987132  0
H  H19  1  0.00975571  0.86382282  0.07141161  1  0.129818  0  0.132479  0.138141  0  0.986103  0
H  H20  1  0.03110534  0.53303040  0.23743836  1  0.150041  0  0.121775  0.118796  0  1.014419  0
H  H21  1  0.79350110  0.96708808  0.76265018  1  0.164547  0  0.122083  0.119556  0  1.014345  0
H  H22  1  0.96889565  0.46696935  0.76256086  1  0.150031  0  0.121791  0.118813  0  1.014365  0
H  H23  1  0.20650341  0.03291043  0.23735228  1  0.164411  0  0.122096  0.119506  0  1.014384  0
H  H24  1  0.09924936  0.51678729  0.16667333  1  0.100894  0  0.118247  0.104691  0  0.98606  0
H  H25  1  0.93250605  0.98336615  0.83342878  1  0.07136  0  0.118432  0.10516  0  0.986295  0
H  H26  1  0.90075026  0.48321246  0.83332555  1  0.100813  0  0.118248  0.104676  0  0.986081  0
H  H27  1  0.06749624  0.01663535  0.16657401  1  0.071415  0  0.118399  0.105103  0  0.98629  0
H  H28  1  0.14877862  0.47152676  0.32421424  1  0.074807  0  0.12336  0.112353  0  0.963834  0
H  H29  1  0.82437054  0.02826682  0.67568544  1  0.110154  0  0.123518  0.112399  0  0.963915  0
H  H30  1  0.85122408  0.52847776  0.67578649  1  0.075103  0  0.123387  0.112371  0  0.963794  0
H  H31  1  0.17562745  0.97173286  0.32431879  1  0.110455  0  0.123488  0.112384  0  0.963948  0
H  H32  1  0.15065547  0.38042219  0.25614550  1  0.094286  0  0.115843  0.091806  0  1.009389  0
H  H33  1  0.89423982  0.11943702  0.74372044  1  0.094243  0  0.115722  0.0918  0  1.009579  0
H  H34  1  0.84934074  0.61958113  0.74385561  1  0.094214  0  0.11585  0.091805  0  1.009417  0
H  H35  1  0.10576273  0.88056328  0.25628240  1  0.094276  0  0.115694  0.091838  0  1.009527  0
H  H36  1  0.40440519  0.53133194  0.41533812  1  0.124523  0  0.134649  0.137386  0  0.989566  0
H  H37  1  0.98895276  0.96851085  0.58463323  1  0.117666  0  0.134632  0.138371  0  0.988887  0
H  H38  1  0.59559580  0.46866781  0.58466110  1  0.124537  0  0.134622  0.137377  0  0.989501  0
H  H39  1  0.01104911  0.03148527  0.41536922  1  0.117777  0  0.134673  0.13843  0  0.988837  0
H  H40  1  0.60812950  0.43956573  0.44981116  1  0.177194  0  0.125627  0.128182  0  1.018903  0
H  H41  1  0.15825919  0.06034863  0.55025318  1  0.160903  0  0.126774  0.128381  0  1.018896  0
H  H42  1  0.39187329  0.56043466  0.55018496  1  0.177118  0  0.125607  0.128157  0  1.018798  0
H  H43  1  0.84174078  0.93964689  0.44974929  1  0.170852  0  0.126729  0.12835  0  1.018945  0
H  H44  1  0.32555972  0.29318041  0.26911291  1  0.116658  0  0.138048  0.105456  0  0.996715  0
H  H45  1  0.05631929  0.20663919  0.73089324  1  0.122213  0  0.137958  0.105663  0  0.995663  0
H  H46  1  0.67443551  0.70681994  0.73088673  1  0.116676  0  0.138063  0.105476  0  0.996675  0
H  H47  1  0.94367251  0.79335935  0.26910671  1  0.121973  0  0.137957  0.105611  0  0.995733  0
H  H48  1  0.23126508  0.59568872  0.33149975  1  0.085111  0  0.128677  0.125912  0  0.936547  0
H  H49  1  0.89931973  0.90418149  0.66866062  1  0.102489  0  0.127957  0.124641  0  0.935503  0
H  H50  1  0.76873771  0.40431403  0.66849877  1  0.085122  0  0.128649  0.125872  0  0.936569  0
H  H51  1  0.10068109  0.09581942  0.33134163  1  0.102432  0  0.127935  0.124585  0  0.935488  0
H  H52  1  0.39789995  0.57378050  0.32275158  1  0.15462  0  0.121741  0.122784  0  1.038199  0
H  H53  1  0.07469905  0.92602097  0.67728649  1  0.164084  0  0.120233  0.12132  0  1.038196  0
H  H54  1  0.60210031  0.42622046  0.67724713  1  0.154612  0  0.121739  0.122767  0  1.03819  0
H  H55  1  0.92530261  0.07397933  0.32271646  1  0.164104  0  0.120205  0.121255  0  1.038234  0
H  H56  1  0.49871896  0.62868526  0.24886074  1  0.222067  0  0.141308  0.121174  0  1.033976  0
H  H57  1  0.24953822  0.87103911  0.75099539  1  0.227113  0  0.140591  0.119098  0  1.03569  0
H  H58  1  0.50128400  0.37131807  0.75114003  1  0.222077  0  0.141301  0.121151  0  1.034  0
H  H59  1  0.75045916  0.12895999  0.24900715  1  0.227168  0  0.140589  0.119145  0  1.035597  0
H  H60  1  0.16134799  0.73646847  0.17686614  1  0.083411  0  0.107849  0.095511  0  1.053751  0
H  H61  1  0.98479699  0.76387963  0.82371994  1  0.085285  0  0.108203  0.096138  0  1.05438  0
H  H62  1  0.83865327  0.26353308  0.82313266  1  0.083471  0  0.107889  0.095574  0  1.053701  0
H  H63  1  0.01519586  0.23611476  0.17627734  1  0.085556  0  0.108208  0.096158  0  1.054383  0
H  H64  1  0.08405380  0.65703403  0.25170738  1  0.219325  0  0.121375  0.138564  0  1.080159  0
H  H65  1  0.83228964  0.84318389  0.74881332  1  0.236357  0  0.120343  0.137499  0  1.081019  0
H  H66  1  0.91594502  0.34296396  0.74828940  1  0.219409  0  0.121359  0.138555  0  1.080212  0
H  H67  1  0.16770595  0.15681585  0.25118658  1  0.194325  0  0.120333  0.137455  0  1.081063  0
H  H68  1  0.74669284  0.40642415  0.29599186  1  0.133626  0  0.1214  0.11376  0  1.030962  0
H  H69  1  0.45053949  0.09366791  0.70408336  1  0.107462  0  0.122621  0.115342  0  1.030768  0
H  H70  1  0.25331148  0.59357917  0.70400926  1  0.133698  0  0.121406  0.113786  0  1.030918  0
H  H71  1  0.54947079  0.90633537  0.29592061  1  0.10756  0  0.12264  0.115309  0  1.030767  0
H  H72  1  0.56070093  0.51715272  0.30020585  1  0.251245  0  0.121333  0.136213  0  1.094503  0
H  H73  1  0.26023892  0.98289984  0.69978153  1  0.248389  0  0.121807  0.135959  0  1.095567  0
H  H74  1  0.43930182  0.48284878  0.69979740  1  0.251332  0  0.121297  0.136125  0  1.094557  0
H  H75  1  0.73977079  0.01710049  0.30021938  1  0.248358  0  0.121824  0.13598  0  1.095536  0
H  H76  1  0.40412117  0.29461257  0.13254269  1  0.235891  0  0.135076  0.122305  0  1.046419  0
H  H77  1  0.27147601  0.20539424  0.86747817  1  0.223354  0  0.134887  0.122761  0  1.04731  0
H  H78  1  0.59588122  0.70538953  0.86746030  1  0.236005  0  0.135063  0.122313  0  1.046339  0
H  H79  1  0.72851999  0.79460553  0.13252013  1  0.22337  0  0.134908  0.122836  0  1.047272  0
H  H80  1  0.24905291  0.39284663  0.15053710  1  0.066477  0  0.115508  0.091704  0  1.011774  0
H  H81  1  0.09845537  0.10714629  0.84943918  1  0.058905  0  0.115099  0.091481  0  1.0121  0
H  H82  1  0.75095113  0.60715188  0.84946491  1  0.066556  0  0.11551  0.091715  0  1.011814  0
H  H83  1  0.90155017  0.89285344  0.15056152  1  0.058887  0  0.115121  0.091526  0  1.012047  0
H  H84  1  0.32911131  0.48755214  0.16852900  1  0.053714  0  0.113688  0.094374  0  0.991747  0
H  H85  1  0.16057625  0.01246988  0.83148845  1  0.072971  0  0.113113  0.09448  0  0.991711  0
H  H86  1  0.67089094  0.51244701  0.83147036  1  0.053672  0  0.113665  0.094381  0  0.991792  0
H  H87  1  0.83942914  0.98753165  0.16851240  1  0.07285  0  0.113117  0.094527  0  0.991596  0
H  H88  1  0.27572971  0.05860657  0.14358826  1  -0.002285  0  0.081712  0.086491  0  1.021387  0
H  H89  1  0.13174459  0.44128545  0.85639566  1  0.002111  0  0.081899  0.087607  0  1.021283  0
H  H90  1  0.72425983  0.94139434  0.85641386  1  -0.002485  0  0.0817  0.086425  0  1.021399  0
H  H91  1  0.86825499  0.55871368  0.14360506  1  0.002118  0  0.081887  0.087605  0  1.021293  0
H  H92  1  0.37505403  0.12168914  0.12217089  1  0.08681  0  0.092662  0.121624  0  1.02129  0
H  H93  1  0.25251310  0.37821259  0.87784384  1  0.083813  0  0.093091  0.121078  0  1.022487  0
H  H94  1  0.62492842  0.87831062  0.87782706  1  0.087029  0  0.092671  0.121671  0  1.021351  0
H  H95  1  0.74748652  0.62178652  0.12215791  1  0.083919  0  0.093092  0.121112  0  1.022517  0
H  H96  1  0.49083180  0.99028630  0.16955825  1  6e-05  0  0.077335  0.063506  0  1.01977  0
H  H97  1  0.32094055  0.50973062  0.83059097  1  0.003287  0  0.076985  0.063283  0  1.020394  0
H  H98  1  0.50915871  0.00971586  0.83044006  1  0.000156  0  0.077348  0.063526  0  1.019675  0
H  H99  1  0.67905867  0.49026912  0.16940950  1  0.003246  0  0.076984  0.063285  0  1.020423  0
H  H100  1  0.57554060  0.04976777  0.13986805  1  0.020329  0  0.084216  0.074046  0  1.003977  0
H  H101  1  0.43535380  0.45025725  0.86030692  1  0.028153  0  0.084611  0.074022  0  1.004016  0
H  H102  1  0.42444628  0.95023440  0.86012969  1  0.020442  0  0.084175  0.074  0  1.003964  0
H  H103  1  0.56464648  0.54974069  0.13969329  1  0.028171  0  0.084594  0.073973  0  1.004043  0
H  H104  1  0.41197717  0.99030337  0.02459384  1  0.035173  0  0.08907  0.085742  0  0.987156  0
H  H105  1  0.38696832  0.50972481  0.97555396  1  0.000581  0  0.089029  0.086477  0  0.986734  0
H  H106  1  0.58800924  0.00969580  0.97540391  1  0.035217  0  0.089035  0.085702  0  0.987122  0
H  H107  1  0.61303839  0.49027372  0.02444668  1  0.00081  0  0.089017  0.086526  0  0.986631  0
H  H108  1  0.32259208  0.93182912  0.05294549  1  0.016786  0  0.079175  0.069781  0  1.009017  0
H  H109  1  0.26941337  0.56827054  0.94715727  1  0.021997  0  0.07942  0.070482  0  1.008993  0
H  H110  1  0.67739968  0.06816944  0.94705343  1  0.016891  0  0.079142  0.06976  0  1.009043  0
H  H111  1  0.73058861  0.43172617  0.05284538  1  0.021961  0  0.079418  0.070467  0  1.008967  0
H  H112  1  0.62738713  0.92261490  0.05869462  1  0.035011  0  0.088257  0.094901  0  1.001475  0
H  H113  1  0.56854515  0.57705341  0.94148032  1  0.013764  0  0.088628  0.095114  0  1.001854  0
H  H114  1  0.37260702  0.07739025  0.94130379  1  0.034938  0  0.0883  0.094938  0  1.001433  0
H  H115  1  0.43145324  0.42294694  0.05851944  1  0.013727  0  0.088612  0.095064  0  1.001846  0
H  H116  1  0.51934928  0.85805581  0.07286389  1  0.064174  0  0.095165  0.110257  0  0.998755  0
H  H117  1  0.44667526  0.64165574  0.92704087  1  0.025146  0  0.095465  0.110584  0  0.99915  0
H  H118  1  0.48064939  0.14194869  0.92713785  1  0.064179  0  0.095213  0.110374  0  0.998746  0
H  H119  1  0.55332000  0.35834223  0.07295740  1  0.025182  0  0.095465  0.110583  0  0.999073  0
H  H120  1  0.82220383  0.10034484  0.46794263  1  0.041007  0  0.0938  0.101158  0  0.993004  0
H  H121  1  0.35461797  0.39923042  0.53213048  1  0.001511  0  0.093833  0.10176  0  0.993235  0
H  H122  1  0.17779444  0.89966029  0.53205783  1  0.040824  0  0.093789  0.101163  0  0.992868  0
H  H123  1  0.64537908  0.60076391  0.46787090  1  0.001506  0  0.093862  0.101805  0  0.993176  0
H  H124  1  0.66409968  0.04656335  0.42140270  1  0.033532  0  0.098554  0.113807  0  0.976002  0
H  H125  1  0.24315840  0.45334773  0.57852179  1  0.037634  0  0.098343  0.11363  0  0.975987  0
H  H126  1  0.33590554  0.95343997  0.57859831  1  0.033438  0  0.098551  0.113841  0  0.97599  0
H  H127  1  0.75683748  0.54664544  0.42147725  1  0.03751  0  0.098343  0.113644  0  0.975957  0
H  H128  1  0.71341947  0.20259146  0.54863530  1  -0.004638  0  0.084326  0.07869  0  0.970955  0
H  H129  1  0.16488449  0.29733469  0.45129287  1  0.004989  0  0.084876  0.079549  0  0.970247  0
H  H130  1  0.28657571  0.79741491  0.45136135  1  -0.005317  0  0.08429  0.078619  0  0.970914  0
H  H131  1  0.83511203  0.70265967  0.54870601  1  0.00512  0  0.084828  0.079494  0  0.970235  0
H  H132  1  0.55028378  0.15572334  0.49903203  1  0.043398  0  0.091439  0.096158  0  0.983164  0
H  H133  1  0.05135668  0.34422621  0.50083579  1  0.055684  0  0.092606  0.097477  0  0.982557  0
H  H134  1  0.44971262  0.84427945  0.50096420  1  0.043996  0  0.091423  0.096108  0  0.983188  0
H  H135  1  0.94863918  0.65576997  0.49916175  1  0.055809  0  0.092622  0.097532  0  0.982572  0
H  H136  1  0.77024029  0.07448076  0.56634700  1  -0.017238  0  0.074257  0.059614  0  1.023976  0
H  H137  1  0.20442679  0.42549031  0.43372198  1  -0.026034  0  0.07463  0.059984  0  1.022432  0
H  H138  1  0.22976212  0.92552797  0.43365217  1  -0.017207  0  0.074238  0.059513  0  1.024026  0
H  H139  1  0.79558171  0.57450523  0.56627891  1  -0.026231  0  0.074611  0.060042  0  1.022306  0
H  H140  1  0.60424942  0.03164636  0.51993982  1  0.068371  0  0.088804  0.093695  0  1.017964  0
H  H141  1  0.08481465  0.46835170  0.48007578  1  0.07277  0  0.089151  0.093264  0  1.019004  0
H  H142  1  0.39575491  0.96835996  0.48006082  1  0.068071  0  0.08878  0.09361  0  1.01804  0
H  H143  1  0.91518653  0.53164388  0.51992191  1  0.072523  0  0.089155  0.093267  0  1.018985  0
H  H144  1  0.68348565  0.17802258  0.65651922  1  0.03602  0  0.082051  0.090783  0  1.020421  0
H  H145  1  0.02728039  0.32194299  0.34351021  1  0.027136  0  0.083248  0.091204  0  1.019292  0
H  H146  1  0.31651868  0.82198374  0.34348143  1  0.035878  0  0.082057  0.090769  0  1.020345  0
H  H147  1  0.97273363  0.67805077  0.65648882  1  0.027446  0  0.083235  0.09117  0  1.019311  0
H  H148  1  0.62332180  0.08107758  0.64419871  1  -0.015907  0  0.082862  0.076251  0  1.019385  0
H  H149  1  0.97976770  0.41893955  0.35572820  1  -0.01806  0  0.082527  0.075844  0  1.019488  0
H  H150  1  0.37668703  0.91892875  0.35580137  1  -0.016043  0  0.0829  0.076313  0  1.019335  0
H  H151  1  0.02024299  0.58105128  0.64426605  1  -0.017911  0  0.08254  0.075871  0  1.019501  0
C  C152  1  0.90165876  0.39288458  0.18995169  1  0.998477  0  0.151339  0.099719  0  3.902365  0
C  C153  1  0.71170393  0.10727274  0.81010424  1  1.002161  0  0.151211  0.100775  0  3.901531  0
C  C154  1  0.09834066  0.60711398  0.81004678  1  0.998427  0  0.15131  0.099741  0  3.90234  0
C  C155  1  0.28829479  0.89272701  0.18989475  1  1.001902  0  0.151198  0.100709  0  3.901613  0
C  C156  1  0.89680583  0.29992658  0.09115176  1  0.369362  0  0.004877  -0.029005  0  4.000633  0
C  C157  1  0.80591554  0.20026761  0.90885709  1  0.409864  0  0.004318  -0.027338  0  4.001566  0
C  C158  1  0.10319562  0.70007317  0.90884791  1  0.369338  0  0.004865  -0.029003  0  4.00066  0
C  C159  1  0.19408315  0.79973152  0.09114375  1  0.41003  0  0.004336  -0.027462  0  4.001711  0
C  C160  1  0.99655502  0.35822104  0.10272892  1  0.32408  0  -0.000538  -0.126446  0  3.929035  0
C  C161  1  0.89402701  0.14195291  0.89726367  1  0.261033  0  -0.000581  -0.127199  0  3.929033  0
C  C162  1  0.00344643  0.64177870  0.89727076  1  0.324357  0  -0.000553  -0.126492  0  3.929068  0
C  C163  1  0.10596911  0.85804680  0.10273873  1  0.260779  0  -0.00053  -0.127087  0  3.928876  0
C  C164  1  0.08721151  0.49142118  0.20371813  1  0.21653  0  -0.049149  -0.150123  0  3.82959  0
C  C165  1  0.88337665  0.00869037  0.79635361  1  0.230751  0  -0.051353  -0.153299  0  3.832073  0
C  C166  1  0.91278879  0.50857977  0.79628161  1  0.216665  0  -0.049152  -0.150088  0  3.829597  0
C  C167  1  0.11662490  0.99130933  0.20364914  1  0.230843  0  -0.051312  -0.153177  0  3.831998  0
C  C168  1  0.23111368  0.48489518  0.24556125  1  0.038577  0  -0.006419  0.087694  0  3.74312  0
C  C169  1  0.98539602  0.01506630  0.75446314  1  0.049283  0  -0.004271  0.089591  0  3.740288  0
C  C170  1  0.76888648  0.51510754  0.75443967  1  0.038378  0  -0.006403  0.087647  0  3.743237  0
C  C171  1  0.01460496  0.98493281  0.24553895  1  0.049727  0  -0.004288  0.089624  0  3.739984  0
C  C172  1  0.21014924  0.43767573  0.28945380  1  0.291855  0  -0.042495  -0.123838  0  3.848862  0
C  C173  1  0.92049764  0.06216786  0.71046707  1  0.250808  0  -0.043374  -0.125479  0  3.850354  0
C  C174  1  0.78984916  0.56232697  0.71054837  1  0.291779  0  -0.042523  -0.123829  0  3.848972  0
C  C175  1  0.07950047  0.93783005  0.28953598  1  0.250134  0  -0.043283  -0.125465  0  3.850207  0
C  C176  1  0.41856228  0.46897249  0.39083038  1  0.257372  0  0.004559  -0.116208  0  3.926646  0
C  C177  1  0.02760498  0.03088218  0.60915548  1  0.291639  0  0.004832  -0.117952  0  3.927691  0
C  C178  1  0.58143955  0.53102965  0.60916908  1  0.25741  0  0.004544  -0.116321  0  3.926674  0
C  C179  1  0.97239650  0.96911455  0.39084568  1  0.291438  0  0.00479  -0.117931  0  3.927614  0
C  C180  1  0.51659187  0.42330335  0.40830680  1  0.424346  0  0.011197  -0.020738  0  3.970925  0
C  C181  1  0.10821066  0.07658596  0.59172964  1  0.415646  0  0.009792  -0.020338  0  3.97166  0
C  C182  1  0.48341152  0.57669761  0.59169101  1  0.424383  0  0.011234  -0.020605  0  3.970692  0
C  C183  1  0.89178759  0.92341016  0.40827223  1  0.405902  0  0.009822  -0.020411  0  3.971639  0
C  C184  1  0.37573877  0.34503070  0.31374555  1  1.013537  0  0.145063  0.094101  0  3.926426  0
C  C185  1  0.06184287  0.15481506  0.68624296  1  1.009194  0  0.14367  0.093157  0  3.923802  0
C  C186  1  0.62425879  0.65497025  0.68625350  1  1.013119  0  0.145072  0.094105  0  3.92641  0
C  C187  1  0.93815265  0.84518171  0.31375535  1  1.00938  0  0.143741  0.093353  0  3.92359  0
C  C188  1  0.29245657  0.57150813  0.29416585  1  0.262998  0  -0.046333  -0.140339  0  3.79366  0
C  C189  1  0.99796053  0.92836299  0.70593469  1  0.238365  0  -0.044177  -0.136531  0  3.788249  0
C  C190  1  0.70754426  0.42849341  0.70583351  1  0.263009  0  -0.046327  -0.14029  0  3.793573  0
C  C191  1  0.00204039  0.07163851  0.29406776  1  0.238334  0  -0.04412  -0.136395  0  3.788093  0
C  C192  1  0.39563641  0.64412379  0.23568354  1  0.974206  0  0.155092  0.117177  0  3.858133  0
C  C193  1  0.15975367  0.85574074  0.76433524  1  0.966544  0  0.155903  0.120501  0  3.859544  0
C  C194  1  0.60436555  0.35587894  0.76431715  1  0.974186  0  0.155116  0.117158  0  3.858164  0
C  C195  1  0.84024631  0.14425777  0.23566676  1  0.96645  0  0.155948  0.120458  0  3.859477  0
C  C196  1  0.21973571  0.70146393  0.20213122  1  0.356283  0  -0.014845  -0.052826  0  4.044348  0
C  C197  1  0.01771451  0.79872170  0.79827317  1  0.358899  0  -0.015287  -0.054349  0  4.046316  0
C  C198  1  0.78026941  0.29853643  0.79786718  1  0.356273  0  -0.014922  -0.052959  0  4.044228  0
C  C199  1  0.98228214  0.20127388  0.20172406  1  0.35832  0  -0.015232  -0.054252  0  4.046344  0
C  C200  1  0.17994418  0.66235468  0.23851524  1  0.286691  0  -0.006998  -0.124586  0  3.924276  0
C  C201  1  0.94138846  0.83781574  0.76190631  1  0.251401  0  -0.007358  -0.124928  0  3.92663  0
C  C202  1  0.82005970  0.33764390  0.76148164  1  0.28646  0  -0.007003  -0.124641  0  3.924268  0
C  C203  1  0.05861010  0.16218281  0.23809330  1  0.29383  0  -0.007316  -0.124892  0  3.926652  0
C  C204  1  0.64812566  0.40079907  0.26145845  1  0.367814  0  0.001179  -0.032625  0  3.989577  0
C  C205  1  0.38654083  0.09924433  0.73860716  1  0.39242  0  -0.000934  -0.035458  0  3.992965  0
C  C206  1  0.35188052  0.59920422  0.73854450  1  0.367322  0  0.001175  -0.032699  0  3.989762  0
C  C207  1  0.61346455  0.90075719  0.26139369  1  0.392011  0  -0.000901  -0.035321  0  3.992935  0
C  C208  1  0.55372195  0.45503063  0.26493410  1  0.241921  0  0.00055  -0.104423  0  3.882566  0
C  C209  1  0.28863835  0.04500346  0.73509989  1  0.239239  0  0.001742  -0.103062  0  3.883721  0
C  C210  1  0.44628254  0.54497326  0.73506927  1  0.241907  0  0.00061  -0.10421  0  3.882588  0
C  C211  1  0.71136830  0.95499747  0.26490110  1  0.239507  0  0.001651  -0.1032  0  3.883747  0
C  C212  1  0.46968546  0.34003223  0.17814120  1  0.918381  0  0.139114  0.068738  0  3.915563  0
C  C213  1  0.29142107  0.16000691  0.82188533  1  0.945635  0  0.137105  0.064759  0  3.916959  0
C  C214  1  0.53031872  0.65996987  0.82186157  1  0.935874  0  0.13916  0.068809  0  3.915475  0
C  C215  1  0.70857616  0.83999463  0.17811449  1  0.945732  0  0.137074  0.064655  0  3.916947  0
C  C216  1  0.31190445  0.44497900  0.19161189  1  0.314607  0  -0.048293  -0.124029  0  3.858451  0
C  C217  1  0.12020124  0.05501361  0.80838941  1  0.293676  0  -0.04805  -0.124548  0  3.857913  0
C  C218  1  0.68809724  0.55502193  0.80838922  1  0.314501  0  -0.0483  -0.124138  0  3.858698  0
C  C219  1  0.87980498  0.94498730  0.19161215  1  0.293737  0  -0.048049  -0.124645  0  3.857832  0
C  C220  1  0.42730082  0.14011028  0.22883398  1  1.548756  0  0.195669  0.622284  0  4.171359  0
C  C221  1  0.19821971  0.35990868  0.77118473  1  1.558345  0  0.196282  0.622775  0  4.17284  0
C  C222  1  0.57269365  0.85989129  0.77116413  1  1.548826  0  0.19573  0.622381  0  4.171053  0
C  C223  1  0.80178180  0.64009104  0.22881699  1  1.558398  0  0.196249  0.622654  0  4.172877  0
C  C224  1  0.37907949  0.08593990  0.15355813  1  -0.043183  0  -0.17705  -0.303929  0  3.93093  0
C  C225  1  0.22515935  0.41399732  0.84648009  1  -0.047895  0  -0.177856  -0.304981  0  3.933446  0
C  C226  1  0.62090769  0.91406105  0.84644068  1  -0.043005  0  -0.177074  -0.303994  0  3.931034  0
C  C227  1  0.77483874  0.58600123  0.15351907  1  -0.04793  0  -0.177843  -0.305013  0  3.933448  0
C  C228  1  0.47517779  0.02098972  0.13366813  1  -0.003715  0  -0.16851  -0.113504  0  3.939948  0
C  C229  1  0.34114546  0.47899134  0.86645773  1  -0.014236  0  -0.16799  -0.112511  0  3.940861  0
C  C230  1  0.52481126  0.97901185  0.86632963  1  -0.00412  0  -0.168482  -0.11349  0  3.939949  0
C  C231  1  0.65885453  0.52100717  0.13354427  1  -0.014324  0  -0.167993  -0.112421  0  3.940869  0
C  C232  1  0.42433521  0.95990205  0.06054923  1  -0.008581  0  -0.170575  -0.119785  0  3.95647  0
C  C233  1  0.36348235  0.54009709  0.93957391  1  0.012035  0  -0.170829  -0.121495  0  3.957784  0
C  C234  1  0.57565296  0.04009951  0.93944968  1  -0.008664  0  -0.17049  -0.119646  0  3.956498  0
C  C235  1  0.63651853  0.45990143  0.06042798  1  0.012041  0  -0.17082  -0.12161  0  3.957798  0
C  C236  1  0.52184993  0.89561824  0.04335720  1  -0.064437  0  -0.170042  -0.293335  0  3.940614  0
C  C237  1  0.47842693  0.60423028  0.95670698  1  0.003608  0  -0.170572  -0.293535  0  3.942948  0
C  C238  1  0.47814194  0.10438392  0.95664146  1  -0.064557  0  -0.17008  -0.293532  0  3.940728  0
C  C239  1  0.52157143  0.39577008  0.04329175  1  0.003617  0  -0.170536  -0.293398  0  3.942884  0
C  C240  1  0.49348793  0.83965538  0.96850523  1  1.56744  0  0.203915  0.635748  0  4.161282  0
C  C241  1  0.52500738  0.66036492  0.03150974  1  1.565171  0  0.201277  0.63241  0  4.160794  0
C  C242  1  0.50650190  0.16034495  0.03149509  1  1.567672  0  0.203758  0.635721  0  4.161113  0
C  C243  1  0.47498865  0.33963483  0.96848959  1  1.564824  0  0.201225  0.632428  0  4.160783  0
C  C244  1  0.69860542  0.15161301  0.40460785  1  1.54865  0  0.205127  0.632657  0  4.149604  0
C  C245  1  0.29361656  0.34825043  0.59543336  1  1.568281  0  0.206169  0.633397  0  4.147106  0
C  C246  1  0.30139530  0.84838794  0.59539132  1  1.548746  0  0.205164  0.632704  0  4.149525  0
C  C247  1  0.70637998  0.65174392  0.40456655  1  1.568298  0  0.206246  0.633646  0  4.146985  0
C  C248  1  0.71334245  0.10765631  0.45249777  1  -0.032189  0  -0.1639  -0.283299  0  3.94036  0
C  C249  1  0.26100186  0.39216356  0.54750112  1  0.00436  0  -0.163012  -0.281845  0  3.940051  0
C  C250  1  0.28666501  0.89234702  0.54750244  1  -0.031787  0  -0.163862  -0.283351  0  3.940107  0
C  C251  1  0.73899522  0.60783139  0.45249841  1  0.004388  0  -0.163015  -0.281972  0  3.939909  0
C  C252  1  0.65645478  0.14421670  0.51498495  1  0.014093  0  -0.169364  -0.117081  0  3.940299  0
C  C253  1  0.14165511  0.35570464  0.48496149  1  -0.014957  0  -0.17198  -0.121207  0  3.941215  0
C  C254  1  0.34354645  0.85578787  0.48501236  1  0.014111  0  -0.169355  -0.116993  0  3.940142  0
C  C255  1  0.85834489  0.64428913  0.51503674  1  -0.015152  0  -0.171956  -0.121189  0  3.941268  0
C  C256  1  0.66425790  0.08879649  0.55363700  1  0.000101  0  -0.172672  -0.128186  0  3.951281  0
C  C257  1  0.11103944  0.41120424  0.44636675  1  0.007367  0  -0.17337  -0.127755  0  3.949234  0
C  C258  1  0.33574647  0.91121046  0.44636180  1  7e-05  0  -0.172642  -0.127959  0  3.95116  0
C  C259  1  0.88896303  0.58878836  0.55362970  1  0.007678  0  -0.173357  -0.127818  0  3.949155  0
C  C260  1  0.61714179  0.12446741  0.61933909  1  -0.036537  0  -0.171732  -0.281306  0  3.956415  0
C  C261  1  0.99820124  0.37557810  0.38062285  1  -0.020807  0  -0.172715  -0.281185  0  3.954836  0
C  C262  1  0.38286177  0.87553949  0.38066290  1  -0.036427  0  -0.171798  -0.281407  0  3.956305  0
C  C263  1  0.00180814  0.62441271  0.61937311  1  -0.021151  0  -0.172713  -0.281138  0  3.954653  0
C  C264  1  0.47000491  0.14600051  0.60976376  1  1.569477  0  0.193366  0.614103  0  4.177587  0
C  C265  1  0.86055065  0.35421650  0.39017959  1  1.563264  0  0.195799  0.617199  0  4.175532  0
C  C266  1  0.52999985  0.85400518  0.39023920  1  1.569541  0  0.193335  0.614028  0  4.177523  0
C  C267  1  0.13945605  0.64577795  0.60981337  1  1.563681  0  0.195748  0.617128  0  4.175739  0
N  N268  1  0.83843802  0.32243256  0.14585206  1  -1.244311  0  -0.343351  -0.27471  0  3.521391  0
N  N269  1  0.69271087  0.17774662  0.85419004  1  -1.241409  0  -0.342985  -0.27536  0  3.521981  0
N  N270  1  0.16156163  0.67756718  0.85414784  1  -1.244213  0  -0.343316  -0.274676  0  3.521422  0
N  N271  1  0.30728729  0.82225254  0.14580829  1  -1.241375  0  -0.343007  -0.275351  0  3.522158  0
N  N272  1  0.99906465  0.41690522  0.16618400  1  -1.223541  0  -0.245533  0.045913  0  3.776555  0
N  N273  1  0.83292482  0.08325304  0.83383740  1  -1.224302  0  -0.24542  0.046269  0  3.776379  0
N  N274  1  0.00093537  0.58309392  0.83381615  1  -1.223817  0  -0.245544  0.045877  0  3.776671  0
N  N275  1  0.16707353  0.91674668  0.16616421  1  -1.224019  0  -0.245404  0.046371  0  3.776345  0
N  N276  1  0.33040223  0.41866789  0.33007571  1  -1.23964  0  -0.247794  0.035238  0  3.786063  0
N  N277  1  0.00014796  0.08116691  0.66987378  1  -1.236689  0  -0.247495  0.035482  0  3.785251  0
N  N278  1  0.66959773  0.58133364  0.66992480  1  -1.239727  0  -0.247777  0.035287  0  3.786072  0
N  N279  1  0.99984906  0.91883043  0.33012611  1  -1.236701  0  -0.247581  0.035245  0  3.785364  0
N  N280  1  0.48833263  0.34623713  0.35965822  1  -1.220714  0  -0.341158  -0.268217  0  3.560888  0
N  N281  1  0.12857321  0.15363198  0.64037700  1  -1.226563  0  -0.338883  -0.266128  0  3.55959  0
N  N282  1  0.51166850  0.65376384  0.64033935  1  -1.220033  0  -0.341195  -0.268302  0  3.560907  0
N  N283  1  0.87142328  0.84636476  0.35962325  1  -1.226771  0  -0.338837  -0.266031  0  3.559713  0
N  N284  1  0.29188324  0.62546199  0.25868350  1  -1.242676  0  -0.241823  0.057184  0  3.732616  0
N  N285  1  0.03297842  0.87450880  0.74149949  1  -1.2238  0  -0.240746  0.056857  0  3.735538  0
N  N286  1  0.70811819  0.37453777  0.74131515  1  -1.242671  0  -0.241806  0.057291  0  3.732508  0
N  N287  1  0.96702163  0.12549033  0.25850169  1  -1.223847  0  -0.240882  0.05674  0  3.735612  0
N  N288  1  0.35404791  0.68988151  0.20078701  1  -1.24371  0  -0.360954  -0.276151  0  3.613108  0
N  N289  1  0.15325870  0.81011333  0.79935924  1  -1.246811  0  -0.360777  -0.2757  0  3.614208  0
N  N290  1  0.64595322  0.31012182  0.79921296  1  -1.243568  0  -0.360944  -0.276054  0  3.612966  0
N  N291  1  0.84673865  0.18988343  0.20063988  1  -1.246778  0  -0.360789  -0.275706  0  3.614236  0
N  N292  1  0.44057249  0.41514706  0.21241696  1  -1.23938  0  -0.248744  0.040682  0  3.785756  0
N  N293  1  0.22800653  0.08487457  0.78758479  1  -1.232655  0  -0.249751  0.040833  0  3.785717  0
N  N294  1  0.55943280  0.58485623  0.78758610  1  -1.239278  0  -0.248756  0.040649  0  3.785625  0
N  N295  1  0.77199559  0.91512636  0.21241574  1  -1.232656  0  -0.249769  0.040861  0  3.785696  0
N  N296  1  0.59533868  0.32992281  0.20693699  1  -1.242472  0  -0.363657  -0.275224  0  3.659845  0
N  N297  1  0.38829022  0.17013044  0.79311591  1  -1.254886  0  -0.361015  -0.271261  0  3.658027  0
N  N298  1  0.40466750  0.67008049  0.79306595  1  -1.259839  0  -0.363653  -0.275262  0  3.660088  0
N  N299  1  0.61170941  0.82987168  0.20688537  1  -1.254804  0  -0.361015  -0.271281  0  3.658168  0
O  O300  1  0.53916267  0.18502141  0.24541632  1  -1.188544  0  -0.332361  -0.577886  0  2.316616  0
O  O301  1  0.29337001  0.31487548  0.75466866  1  -1.187325  0  -0.333649  -0.578877  0  2.316027  0
O  O302  1  0.46083157  0.81497897  0.75458036  1  -1.18872  0  -0.332371  -0.577865  0  2.316593  0
O  O303  1  0.70663204  0.68512485  0.24533270  1  -1.187288  0  -0.33367  -0.578829  0  2.316087  0
O  O304  1  0.36097315  0.13894434  0.27064877  1  -1.199638  0  -0.346282  -0.586222  0  2.119289  0
O  O305  1  0.09024598  0.36124944  0.72930459  1  -1.209758  0  -0.346475  -0.586556  0  2.121065  0
O  O306  1  0.63902702  0.86105839  0.72935214  1  -1.199636  0  -0.34631  -0.586272  0  2.119137  0
O  O307  1  0.90975657  0.63874850  0.27069584  1  -1.20984  0  -0.346422  -0.586487  0  2.121077  0
O  O308  1  0.58986374  0.81062385  0.94374690  1  -1.207755  0  -0.344508  -0.583965  0  2.131255  0
O  O309  1  0.64612596  0.68946626  0.05618349  1  -1.206928  0  -0.343148  -0.582639  0  2.131515  0
O  O310  1  0.41012909  0.18937591  0.05625128  1  -1.20796  0  -0.344437  -0.583894  0  2.131182  0
O  O311  1  0.35387326  0.31053347  0.94381698  1  -1.206673  0  -0.343102  -0.582608  0  2.131685  0
O  O312  1  0.36558972  0.82602624  0.93537967  1  -1.186448  0  -0.350613  -0.57393  0  2.308287  0
O  O313  1  0.43031191  0.67399422  0.06466190  1  -1.182127  0  -0.349265  -0.571886  0  2.306418  0
O  O314  1  0.63440088  0.17397288  0.06462219  1  -1.186337  0  -0.350592  -0.573952  0  2.30817  0
O  O315  1  0.56968101  0.32600916  0.93533500  1  -1.182054  0  -0.349257  -0.571954  0  2.306286  0
O  O316  1  0.75538212  0.12731740  0.35561647  1  -1.216015  0  -0.341777  -0.601362  0  2.214228  0
O  O317  1  0.39931253  0.37248631  0.64452237  1  -1.227322  0  -0.342177  -0.602408  0  2.21214  0
O  O318  1  0.24461578  0.87268297  0.64438181  1  -1.216017  0  -0.341776  -0.601359  0  2.214329  0
O  O319  1  0.60068263  0.62751043  0.35547857  1  -1.227286  0  -0.342221  -0.602506  0  2.21219  0
O  O320  1  0.62639844  0.21119008  0.41552069  1  -1.150608  0  -0.329138  -0.544792  0  2.279956  0
O  O321  1  0.21020134  0.28879580  0.58451085  1  -1.153385  0  -0.329729  -0.545561  0  2.280228  0
O  O322  1  0.37360649  0.78881209  0.58447684  1  -1.150539  0  -0.329168  -0.544842  0  2.27993  0
O  O323  1  0.78979906  0.71119736  0.41548865  1  -1.153463  0  -0.329743  -0.545629  0  2.280238  0
O  O324  1  0.44936890  0.20346692  0.66332042  1  -1.182316  0  -0.34791  -0.594378  0  2.357848  0
O  O325  1  0.78640800  0.29656582  0.33674174  1  -1.186505  0  -0.349448  -0.596428  0  2.356542  0
O  O326  1  0.55063664  0.79653454  0.33668556  1  -1.182737  0  -0.347948  -0.594368  0  2.357911  0
O  O327  1  0.21360162  0.70342617  0.66325565  1  -1.186585  0  -0.349388  -0.596349  0  2.35653  0
O  O328  1  0.38101318  0.10888429  0.55616163  1  -1.190839  0  -0.330694  -0.559983  0  2.098957  0
O  O329  1  0.82502025  0.39163806  0.44366333  1  -1.187223  0  -0.33129  -0.561111  0  2.100587  0
O  O330  1  0.61898956  0.89112322  0.44383965  1  -1.190318  0  -0.330638  -0.559912  0  2.098886  0
O  O331  1  0.17498237  0.60835876  0.55633100  1  -1.187604  0  -0.331264  -0.561088  0  2.100895  0
