# generated using pymatgen
data_ZnH17C20N3O4
_symmetry_space_group_name_H-M   'P 1'
_cell_length_a   10.96546895
_cell_length_b   13.92529261
_cell_length_c   15.32927516
_cell_angle_alpha   90.14116586
_cell_angle_beta   90.14364502
_cell_angle_gamma   89.54625133
_symmetry_Int_Tables_number   1
_chemical_formula_structural   ZnH17C20N3O4
_chemical_formula_sum   'Zn2 H34 C40 N6 O8'
_cell_volume   2340.65215535
_cell_formula_units_Z   2
loop_
 _symmetry_equiv_pos_site_id
 _symmetry_equiv_pos_as_xyz
  1  'x, y, z'
loop_
 _atom_site_type_symbol
 _atom_site_label
 _atom_site_symmetry_multiplicity
 _atom_site_fract_x
 _atom_site_fract_y
 _atom_site_fract_z
 _atom_site_occupancy
 _atom_site_pbe_bader_charge
 _atom_site_pbe_bader_spin_density
 _atom_site_pbe_cm5_charge
 _atom_site_pbe_ddec_charge
 _atom_site_pbe_ddec_spin_density
 _atom_site_pbe_ddec_sum_bond_order
 _atom_site_pbe_magmom
Zn  Zn0  1  0.50529784  0.40000324  0.50008219  1  1.285336  0  0.665358  0.815892  0  2.426002  0
Zn  Zn1  1  0.51051479  0.59964490  0.50187418  1  1.282278  0  0.664447  0.810176  0  2.423822  0
H  H2  1  0.60689288  0.24807107  0.38882279  1  0.113188  0  0.122694  0.1077  0  0.992314  0
H  H3  1  0.39195387  0.25059900  0.60995040  1  0.100208  0  0.123891  0.108731  0  0.992258  0
H  H4  1  0.77137656  0.43699201  0.64450315  1  0.062148  0  0.095898  0.109859  0  1.027524  0
H  H5  1  0.22121779  0.47537119  0.67091787  1  0.067293  0  0.094  0.100475  0  1.024455  0
H  H6  1  0.87290055  0.41104394  0.78544198  1  0.032802  0  0.09164  0.08789  0  1.006945  0
H  H7  1  0.09930648  0.43008837  0.79986982  1  0.038162  0  0.088498  0.08464  0  1.018753  0
H  H8  1  0.37875321  0.37207937  0.93434843  1  0.063843  0  0.098594  0.096333  0  1.008035  0
H  H9  1  0.50159216  0.35677162  0.05599335  1  0.063739  0  0.0992  0.097635  0  1.010374  0
H  H10  1  0.40725730  0.36888032  0.77311494  1  0.071895  0  0.101377  0.10218  0  1.008136  0
H  H11  1  0.50908182  0.35435779  0.21856569  1  0.091955  0  0.101796  0.103743  0  1.004992  0
H  H12  1  0.57340680  0.64608344  0.78316248  1  0.057027  0  0.103305  0.105251  0  1.003424  0
H  H13  1  0.42852499  0.65575633  0.22575364  1  0.068697  0  0.101497  0.102311  0  1.007636  0
H  H14  1  0.55089411  0.64920384  0.94478015  1  0.056577  0  0.098972  0.096978  0  1.008711  0
H  H15  1  0.41726576  0.65950614  0.06358403  1  0.041215  0  0.100211  0.099444  0  1.004469  0
H  H16  1  0.58517850  0.93438107  0.62929468  1  0.11517  0  0.116565  0.126995  0  0.980531  0
H  H17  1  0.42192656  0.93063511  0.37279850  1  0.120271  0  0.115445  0.12547  0  0.983056  0
H  H18  1  0.58893979  0.75324570  0.62376121  1  0.139081  0  0.12959  0.10797  0  0.979095  0
H  H19  1  0.43202831  0.74972526  0.37866801  1  0.131267  0  0.125357  0.102926  0  0.9948  0
H  H20  1  0.96916178  0.57670593  0.30254867  1  0.444616  0  0.294736  0.232236  0  0.998147  0
H  H21  1  0.77384518  0.54052966  0.23899390  1  0.052087  0  0.098618  0.107792  0  0.981995  0
H  H22  1  0.73288954  0.47713852  0.33391339  1  0.081186  0  0.098832  0.116313  0  1.037046  0
H  H23  1  0.84757552  0.42900870  0.26422802  1  0.020833  0  0.078234  0.066701  0  1.01219  0
H  H24  1  0.23036330  0.57695646  0.36952143  1  0.437331  0  0.289431  0.242668  0  0.980983  0
H  H25  1  0.20944033  0.49819811  0.23137619  1  0.042863  0  0.092585  0.102788  0  1.012085  0
H  H26  1  0.07392242  0.44330850  0.26993058  1  0.042672  0  0.096356  0.100304  0  1.014588  0
H  H27  1  0.21728161  0.41044145  0.31658020  1  0.033662  0  0.087736  0.09794  0  0.999274  0
H  H28  1  0.65406523  0.11002309  0.32284025  1  0.39911  0  0.308597  0.247233  0  0.941303  0
H  H29  1  0.76773049  0.97009461  0.32202026  1  0.051475  0  0.108631  0.117936  0  0.972041  0
H  H30  1  0.69672441  0.92802528  0.41770976  1  0.068119  0  0.099783  0.110084  0  1.023703  0
H  H31  1  0.80103018  0.02542392  0.42474423  1  0.035704  0  0.094122  0.094962  0  0.987087  0
H  H32  1  0.34183393  0.11345263  0.67545224  1  0.412863  0  0.310929  0.250218  0  0.937487  0
H  H33  1  0.23761032  0.96990213  0.67878942  1  0.044469  0  0.109787  0.119246  0  0.971076  0
H  H34  1  0.31130411  0.92778689  0.58369375  1  0.084125  0  0.100013  0.109783  0  1.024422  0
H  H35  1  0.20056072  0.02187689  0.57539576  1  0.039389  0  0.094478  0.094959  0  0.986414  0
C  C36  1  0.51116718  0.50337751  0.67177699  1  1.5799  0  0.212522  0.584207  0  4.189244  0
C  C37  1  0.48182757  0.50292598  0.32937391  1  1.587546  0  0.213158  0.579626  0  4.192622  0
C  C38  1  0.49346824  0.50668000  0.76859903  1  -0.035293  0  -0.017664  -0.031203  0  3.962851  0
C  C39  1  0.47130076  0.50500911  0.23193658  1  0.014083  0  -0.019861  -0.038848  0  3.977129  0
C  C40  1  0.53097346  0.58649131  0.81720876  1  0.043498  0  -0.084029  -0.085403  0  3.989886  0
C  C41  1  0.44467647  0.59068761  0.18773949  1  -0.006687  0  -0.085705  -0.090725  0  3.999056  0
C  C42  1  0.51709910  0.58814215  0.90740541  1  -0.100904  0  -0.093191  -0.137219  0  3.990816  0
C  C43  1  0.43916777  0.59245644  0.09703369  1  -0.061141  0  -0.093893  -0.141581  0  3.995392  0
C  C44  1  0.46484440  0.51015966  0.95156076  1  0.038314  0  -0.006339  0.070746  0  4.004777  0
C  C45  1  0.46038079  0.50855377  0.04779559  1  -0.060615  0  -0.004176  0.075555  0  4.001446  0
C  C46  1  0.55085267  0.89611207  0.57238738  1  0.01116  0  -0.075957  -0.18006  0  3.942447  0
C  C47  1  0.45910571  0.89402292  0.42975616  1  -0.025215  0  -0.076779  -0.180318  0  3.949506  0
C  C48  1  0.55324596  0.79634336  0.56998997  1  0.398878  0  0.06245  0.104242  0  3.911136  0
C  C49  1  0.46449140  0.79442231  0.43227194  1  0.486982  0  0.059492  0.101985  0  3.918896  0
C  C50  1  0.50310595  0.94685736  0.50098179  1  -0.082348  0  0.018608  0.138776  0  3.994148  0
C  C51  1  0.56339785  0.10431952  0.43478554  1  0.400893  0  0.098357  0.154041  0  4.077106  0
C  C52  1  0.43576665  0.10563495  0.56473184  1  0.333873  0  0.100689  0.154843  0  4.076801  0
C  C53  1  0.55950379  0.20505294  0.43739962  1  0.493032  0  0.031986  -0.046802  0  3.942785  0
C  C54  1  0.43916703  0.20647790  0.56146887  1  0.576252  0  0.0338  -0.043302  0  3.932296  0
C  C55  1  0.50037843  0.05307247  0.50020765  1  0.105165  0  -0.006819  -0.101299  0  3.908309  0
C  C56  1  0.74307591  0.49316057  0.48872353  1  1.562071  0  0.218046  0.621241  0  4.16024  0
C  C57  1  0.27167136  0.50511663  0.51075445  1  1.528753  0  0.215698  0.610904  0  4.186888  0
C  C58  1  0.86961290  0.44619669  0.64963378  1  -0.106227  0  -0.104367  -0.140906  0  3.980447  0
C  C59  1  0.12270327  0.46670902  0.66505427  1  -0.046223  0  -0.104086  -0.138135  0  4.007096  0
C  C60  1  0.92708861  0.43105594  0.72879664  1  0.033331  0  -0.110986  -0.102418  0  4.092408  0
C  C61  1  0.05465639  0.44137921  0.73698299  1  -0.041848  0  -0.116235  -0.11575  0  4.106442  0
C  C62  1  0.06621392  0.48302286  0.58300321  1  0.009323  0  -0.015896  0.050884  0  4.010774  0
C  C63  1  0.93662014  0.47275960  0.57415827  1  -0.050499  0  -0.008485  0.068767  0  3.98508  0
C  C64  1  0.87974942  0.49349591  0.49212752  1  0.005984  0  -0.03422  -0.192055  0  3.940734  0
C  C65  1  0.13483669  0.50718329  0.50770117  1  0.034405  0  -0.023142  -0.155751  0  3.979272  0
C  C66  1  0.94866971  0.52194889  0.42031947  1  0.431386  0  0.094745  0.135331  0  4.049269  0
C  C67  1  0.07935435  0.52570291  0.42859251  1  0.365034  0  0.077154  0.103202  0  4.028646  0
C  C68  1  0.42353696  0.43177052  0.90179154  1  -0.068672  0  -0.093846  -0.140027  0  3.999487  0
C  C69  1  0.48360581  0.42236574  0.09294926  1  -0.107491  0  -0.093689  -0.139972  0  3.994085  0
C  C70  1  0.43826534  0.42981745  0.81173413  1  -0.037691  0  -0.085307  -0.085284  0  3.99242  0
C  C71  1  0.48917038  0.42064985  0.18353513  1  -0.053293  0  -0.085371  -0.086643  0  3.993771  0
C  C72  1  0.80991882  0.49632285  0.29250685  1  0.258241  0  -0.143804  -0.206803  0  3.983031  0
C  C73  1  0.16344362  0.47081072  0.28961617  1  0.25044  0  -0.150863  -0.220627  0  3.967283  0
C  C74  1  0.72860178  0.99265675  0.38465192  1  0.24546  0  -0.139122  -0.216893  0  3.966812  0
C  C75  1  0.27519702  0.99218282  0.61583805  1  0.248129  0  -0.137899  -0.215539  0  3.965664  0
N  N76  1  0.51081487  0.74655968  0.50111020  1  -1.247529  0  -0.318901  -0.192546  0  3.518233  0
N  N77  1  0.49955125  0.25349127  0.49945417  1  -1.272802  0  -0.323945  -0.148316  0  3.632794  0
N  N78  1  0.90081649  0.55057831  0.34048071  1  -1.195235  0  -0.459548  -0.295047  0  3.564808  0
N  N79  1  0.14722773  0.54987069  0.35278735  1  -1.159455  0  -0.474917  -0.351955  0  3.470487  0
N  N80  1  0.62761184  0.05971385  0.36680582  1  -1.111781  0  -0.454715  -0.319038  0  3.510392  0
N  N81  1  0.37148352  0.06252723  0.63259774  1  -1.141059  0  -0.452612  -0.315298  0  3.515418  0
O  O82  1  0.49109058  0.42337596  0.63393540  1  -1.16748  0  -0.31748  -0.554788  0  2.326503  0
O  O83  1  0.51182834  0.42342251  0.36438356  1  -1.175445  0  -0.314461  -0.551996  0  2.330125  0
O  O84  1  0.54432374  0.58044506  0.63422119  1  -1.170529  0  -0.318799  -0.553197  0  2.319962  0
O  O85  1  0.46052108  0.58135470  0.37030877  1  -1.178896  0  -0.318189  -0.56202  0  2.327204  0
O  O86  1  0.68998805  0.41337071  0.50216024  1  -1.155587  0  -0.318644  -0.552565  0  2.324862  0
O  O87  1  0.32145168  0.42463295  0.49292546  1  -1.15624  0  -0.314929  -0.539344  0  2.312606  0
O  O88  1  0.68924899  0.57314783  0.47493592  1  -1.153974  0  -0.317898  -0.539984  0  2.30496  0
O  O89  1  0.32679479  0.58287479  0.52836370  1  -1.164633  0  -0.321139  -0.548457  0  2.284363  0
