# generated using pymatgen
data_CoH12C15N4O5
_symmetry_space_group_name_H-M   'P 1'
_cell_length_a   9.27665517
_cell_length_b   10.18642418
_cell_length_c   10.99151605
_cell_angle_alpha   97.68485800
_cell_angle_beta   110.27254241
_cell_angle_gamma   98.70019135
_symmetry_Int_Tables_number   1
_chemical_formula_structural   CoH12C15N4O5
_chemical_formula_sum   'Co2 H24 C30 N8 O10'
_cell_volume   943.49960198
_cell_formula_units_Z   2
loop_
 _symmetry_equiv_pos_site_id
 _symmetry_equiv_pos_as_xyz
  1  'x, y, z'
loop_
 _atom_site_type_symbol
 _atom_site_label
 _atom_site_symmetry_multiplicity
 _atom_site_fract_x
 _atom_site_fract_y
 _atom_site_fract_z
 _atom_site_occupancy
 _atom_site_hle17_ddec_charge
 _atom_site_hle17_ddec_spin_density
 _atom_site_hle17_ddec_sum_bond_order
 _atom_site_hle17_magmom
 _atom_site_hse06_10hf_ddec_charge
 _atom_site_hse06_10hf_ddec_spin_density
 _atom_site_hse06_10hf_ddec_sum_bond_order
 _atom_site_hse06_10hf_magmom
 _atom_site_hse06_ddec_charge
 _atom_site_hse06_ddec_spin_density
 _atom_site_hse06_ddec_sum_bond_order
 _atom_site_hse06_magmom
 _atom_site_pbe_cm5_charge
 _atom_site_pbe_ddec_charge
 _atom_site_pbe_ddec_spin_density
 _atom_site_pbe_ddec_sum_bond_order
 _atom_site_pbe_magmom
Co  Co0  1  0.41383323  0.50773750  0.78624171  1  0.910912  -2.820415  2.029962  -2.535  0.852895  -2.824745  2.480307  -2.592  0.946634  -2.86987  2.392295  -2.681  0.682062  0.776904  -2.779401  2.550494  -2.51
Co  Co1  1  0.58616679  0.49225932  0.21375863  1  0.910862  -2.820418  2.029991  -2.535  0.852789  -2.824755  2.480383  -2.592  0.946545  -2.869874  2.392354  -2.681  0.682022  0.776801  -2.77941  2.550567  -2.51
H  H2  1  0.00070287  0.07538163  0.13909370  1  0.375716  3.3e-05  0.826463  0.0  0.365161  2e-05  0.876807  0.0  0.372361  1e-05  0.869395  0.0  0.333623  0.360075  1.1e-05  0.882034  0.0
H  H3  1  0.99929777  0.92461315  0.86090839  1  0.375653  3.3e-05  0.826634  0.0  0.365199  2e-05  0.876831  0.0  0.3724  1e-05  0.869418  0.0  0.333628  0.360112  1.1e-05  0.882059  0.0
H  H4  1  0.27362193  0.35741413  0.96456536  1  0.300257  0.000317  0.925618  0.0  0.278385  6.6e-05  0.992462  0.0  0.286879  0.000172  0.985934  0.0  0.32278  0.272374  -5.8e-05  0.997047  0.0
H  H5  1  0.72637707  0.64258777  0.03543804  1  0.300338  0.000317  0.925498  0.0  0.278416  6.6e-05  0.992406  0.0  0.286906  0.000172  0.985886  0.0  0.322811  0.272406  -5.8e-05  0.996988  0.0
H  H6  1  0.68187292  0.73254164  0.42325430  1  0.299236  0.000216  0.952233  0.0  0.276652  -3.2e-05  1.018083  0.0  0.285821  -4e-06  1.010504  0.0  0.31289  0.270184  -5.1e-05  1.023431  0.0
H  H7  1  0.31812524  0.26746130  0.57674443  1  0.299273  0.000216  0.952146  0.0  0.276693  -3.2e-05  1.017985  0.0  0.285862  -4e-06  1.010409  0.0  0.312915  0.270224  -5.1e-05  1.023335  0.0
H  H8  1  0.75912874  0.29745861  0.99868990  1  0.126534  -0.000132  0.947198  0.0  0.134095  -2e-06  1.011746  0.0  0.137564  4.4e-05  1.0101  0.0  0.11155  0.131554  -4.8e-05  1.012806  0.0
H  H9  1  0.24087615  0.70253920  0.00131019  1  0.126556  -0.000132  0.947197  0.0  0.134132  -2e-06  1.011709  0.0  0.137605  4.4e-05  1.010064  0.0  0.111533  0.13159  -4.8e-05  1.012773  0.0
H  H10  1  0.08125938  0.58496349  0.69307954  1  0.121699  0.000223  0.929576  0.0  0.131585  5.4e-05  0.987505  0.0  0.133953  7.4e-05  0.985377  0.0  0.129004  0.129834  2.8e-05  0.989211  0.0
H  H11  1  0.91874270  0.41504144  0.30692515  1  0.121729  0.000224  0.929545  0.0  0.13161  5.4e-05  0.987476  0.0  0.133981  7.4e-05  0.98535  0.0  0.129028  0.129859  2.8e-05  0.989182  0.0
H  H12  1  0.80862331  0.88593893  0.02252797  1  0.109135  -0.000205  0.956772  0.0  0.116977  -0.000127  1.023985  0.0  0.121599  -7.8e-05  1.020117  0.0  0.102333  0.113744  -0.000182  1.026353  0.0
H  H13  1  0.19137571  0.11405385  0.97746792  1  0.109184  -0.000205  0.956711  0.0  0.117035  -0.000127  1.023923  0.0  0.121663  -7.8e-05  1.020047  0.0  0.102362  0.113801  -0.000182  1.026291  0.0
H  H14  1  0.38108761  0.96357660  0.75227057  1  0.121019  -9.5e-05  0.938611  0.0  0.127423  -0.000115  1.00215  0.0  0.132857  -6e-05  0.997105  0.0  0.107922  0.123495  -0.000239  1.006283  0.0
H  H15  1  0.61891247  0.03642024  0.24772433  1  0.121026  -9.6e-05  0.938538  0.0  0.127436  -0.000115  1.002075  0.0  0.132865  -6.1e-05  0.997035  0.0  0.107949  0.123504  -0.000239  1.006213  0.0
H  H16  1  0.98847580  0.31727162  0.94537203  1  0.109359  -0.000112  0.967054  0.0  0.11807  -0.00029  1.034973  0.0  0.120605  -0.000218  1.032595  0.0  0.120902  0.116003  -0.000378  1.03701  0.0
H  H17  1  0.01152182  0.68272928  0.05462901  1  0.109416  -0.000111  0.967045  0.0  0.118142  -0.00029  1.034953  0.0  0.120679  -0.000218  1.032571  0.0  0.120912  0.116074  -0.000378  1.03699  0.0
H  H18  1  0.66984749  0.33969570  0.46792152  1  0.117762  0.000129  0.934878  0.0  0.130166  9.5e-05  0.989046  0.0  0.132873  0.000105  0.986288  0.0  0.125168  0.128044  8.7e-05  0.991348  0.0
H  H19  1  0.33015487  0.66031024  0.53208065  1  0.11771  0.000129  0.934893  0.0  0.130113  9.5e-05  0.989067  0.0  0.132821  0.000105  0.986306  0.0  0.125132  0.127989  8.7e-05  0.99137  0.0
H  H20  1  0.71776025  0.38565371  0.75219263  1  0.093748  -4.1e-05  0.933594  0.0  0.110553  -6.6e-05  0.990628  0.0  0.110969  6e-06  0.991034  0.0  0.099153  0.110207  -0.000127  0.990475  0.0
H  H21  1  0.28223982  0.61435225  0.24780886  1  0.093791  -4.1e-05  0.933532  0.0  0.110543  -6.5e-05  0.990611  0.0  0.11096  6e-06  0.991016  0.0  0.099162  0.110199  -0.000127  0.990459  0.0
H  H22  1  0.78841895  0.55453220  0.83491079  1  0.091369  -0.000118  0.947243  0.0  0.104099  -0.000127  1.015527  0.0  0.10493  -2.6e-05  1.01542  0.0  0.097031  0.103199  -0.00028  1.016132  0.0
H  H23  1  0.21158381  0.44547071  0.16508840  1  0.091306  -0.000118  0.947144  0.0  0.104022  -0.000127  1.015435  0.0  0.104856  -2.6e-05  1.015329  0.0  0.097003  0.103126  -0.00028  1.016043  0.0
H  H24  1  0.77561989  0.75379217  0.68231412  1  0.106804  -0.000195  0.943164  0.0  0.121171  -0.000217  0.999379  0.0  0.123848  -0.000156  0.996676  0.0  0.123448  0.119044  -0.000267  1.00161  0.0
H  H25  1  0.22437598  0.24621078  0.31768393  1  0.106861  -0.000195  0.943153  0.0  0.121233  -0.000216  0.999357  0.0  0.123912  -0.000156  0.99665  0.0  0.123465  0.119102  -0.000267  1.001594  0.0
C  C26  1  0.51133281  0.76284994  0.84211537  1  0.621648  0.0118  3.892481  0.009  0.576306  0.002304  4.186531  0.002  0.611907  0.00218  4.184572  0.002  0.202639  0.550055  0.003482  4.187313  0.004
C  C27  1  0.48866584  0.23714589  0.15788079  1  0.621619  0.011801  3.892621  0.009  0.576312  0.002303  4.186613  0.002  0.611914  0.002179  4.184658  0.002  0.202638  0.550058  0.003482  4.187393  0.004
C  C28  1  0.46583032  0.23534178  0.80151428  1  0.641415  0.007933  3.898399  0.007  0.596686  -0.000299  4.197605  0.0  0.633198  -0.000187  4.190144  0.0  0.208217  0.570497  0.000133  4.202422  0.001
C  C29  1  0.53417902  0.76466005  0.19849037  1  0.641482  0.007931  3.89852  0.007  0.596713  -0.000298  4.197767  0.0  0.633225  -0.000184  4.190306  0.0  0.208228  0.570522  0.000133  4.202582  0.001
C  C30  1  0.58645060  0.90958802  0.88417391  1  -0.044086  -0.00336  3.811422  -0.004  -0.017236  -0.001202  4.045545  -0.001  -0.024473  -0.000707  4.068762  -0.001  -0.02158  -0.012861  -0.001204  4.031565  -0.001
C  C31  1  0.41354806  0.09040781  0.11582135  1  -0.04409  -0.003358  3.811449  -0.004  -0.017232  -0.001204  4.045536  -0.001  -0.02447  -0.000708  4.068753  -0.001  -0.021558  -0.012854  -0.001204  4.031552  -0.001
C  C32  1  0.56167564  0.14021457  0.86726511  1  -0.046827  -0.005366  3.774763  -0.008  -0.02105  -0.002361  4.00874  -0.004  -0.028965  -0.001718  4.031422  -0.003  -0.018708  -0.016398  -0.002327  3.995348  -0.004
C  C33  1  0.43832779  0.85978631  0.13272947  1  -0.046735  -0.005364  3.774753  -0.008  -0.020942  -0.002361  4.008722  -0.004  -0.028857  -0.001717  4.031407  -0.003  -0.018666  -0.016278  -0.002327  3.995305  -0.004
C  C34  1  0.71257449  0.18881362  0.96420019  1  -0.160819  0.010285  3.661461  0.006  -0.194553  0.003974  3.911372  0.002  -0.194411  0.002804  3.928206  0.001  -0.088668  -0.192494  0.001392  3.898832  0.001
C  C35  1  0.28742642  0.81118218  0.03580029  1  -0.160991  0.010273  3.661587  0.006  -0.194727  0.003972  3.911483  0.002  -0.194587  0.002803  3.928326  0.001  -0.088717  -0.192673  0.001392  3.89895  0.001
C  C36  1  0.08347751  0.51612865  0.76060524  1  0.002278  0.002172  3.684401  0.0  -0.044285  -0.0028  3.960609  -0.005  -0.034792  -0.002319  3.976755  -0.004  0.021643  -0.051063  -0.003133  3.949409  -0.005
C  C37  1  0.91652801  0.48387625  0.23940047  1  0.002227  0.002161  3.684376  0.0  -0.044363  -0.002802  3.960599  -0.005  -0.034876  -0.002321  3.976745  -0.004  0.021587  -0.051143  -0.003134  3.9494  -0.005
C  C38  1  0.73976631  0.95735470  0.97860969  1  -0.217757  0.008804  3.740559  0.005  -0.252683  0.002927  3.99529  0.001  -0.253791  0.001994  4.01211  0.001  -0.104842  -0.250048  0.000468  3.9828  0.0
C  C39  1  0.26023388  0.04263807  0.02138383  1  -0.217831  0.008794  3.740491  0.005  -0.252777  0.002929  3.99524  0.001  -0.253886  0.001997  4.012061  0.001  -0.104871  -0.250142  0.000468  3.982749  0.0
C  C40  1  0.49882209  0.00092010  0.82722572  1  -0.082687  0.000225  3.70053  0.0  -0.124478  -0.001999  3.951025  -0.002  -0.12384  -0.001203  3.970555  -0.001  -0.084527  -0.127284  -0.000266  3.941353  -0.001
C  C41  1  0.50117596  0.99907777  0.17276870  1  -0.082703  0.000224  3.7006  0.0  -0.124508  -0.001998  3.951096  -0.002  -0.123864  -0.001203  3.970626  -0.001  -0.084573  -0.127317  -0.000267  3.941419  -0.001
C  C42  1  0.03415532  0.37940076  0.88858869  1  -0.015123  -0.006369  3.662563  -0.008  -0.06834  -0.006543  3.924579  -0.008  -0.060645  -0.005101  3.939357  -0.006  0.018421  -0.073159  -0.00799  3.914856  -0.009
C  C43  1  0.96583973  0.62059915  0.11141237  1  -0.015197  -0.006377  3.662693  -0.008  -0.068427  -0.006545  3.924696  -0.008  -0.060734  -0.0051  3.93947  -0.006  0.018425  -0.073246  -0.007991  3.914975  -0.009
C  C44  1  0.80211116  0.09682816  0.01761174  1  0.309465  -0.001683  3.839486  -0.003  0.306137  -0.000112  4.108889  -0.001  0.313919  -0.000172  4.125121  0.0  0.073199  0.30007  -0.000126  4.097192  0.0
C  C45  1  0.19789018  0.90316460  0.98238212  1  0.309611  -0.00168  3.839362  -0.003  0.306256  -0.000112  4.108828  -0.001  0.314026  -0.000173  4.125078  0.0  0.073257  0.300189  -0.000127  4.097133  0.0
C  C46  1  0.68753975  0.44817030  0.50064715  1  0.004336  0.008425  3.679539  0.004  -0.041947  -0.000479  3.954238  -0.002  -0.031818  -0.000229  3.969648  -0.002  0.018898  -0.049136  -0.000568  3.943606  -0.003
C  C47  1  0.31246324  0.55183361  0.49935495  1  0.004387  0.00842  3.679511  0.004  -0.041865  -0.000478  3.95423  -0.002  -0.031737  -0.000228  3.969642  -0.002  0.018916  -0.049053  -0.000568  3.943599  -0.003
C  C48  1  0.96330015  0.45779185  0.79931542  1  -0.010118  -0.002503  3.788128  -0.003  0.015169  -0.001444  4.035871  -0.002  0.006795  -0.000556  4.062571  -0.001  -0.027069  0.02081  -0.002437  4.017803  -0.003
C  C49  1  0.03670170  0.54221207  0.20068544  1  -0.010092  -0.002498  3.788234  -0.003  0.01522  -0.001444  4.035908  -0.002  0.006855  -0.000559  4.062592  -0.001  -0.027038  0.020863  -0.002438  4.017848  -0.003
C  C50  1  0.74330019  0.52666992  0.62941680  1  -0.004528  -0.004519  3.788838  -0.006  0.016875  -0.002419  4.047318  -0.003  0.008858  -0.001581  4.073051  -0.002  -0.027546  0.022231  -0.0034  4.029956  -0.004
C  C51  1  0.25670165  0.47333400  0.37058496  1  -0.004443  -0.004515  3.78883  -0.006  0.016862  -0.002419  4.047399  -0.003  0.008844  -0.001582  4.073129  -0.002  -0.027521  0.022222  -0.0034  4.030045  -0.004
C  C52  1  0.79781014  0.47942323  0.75781067  1  -0.150039  -0.000827  3.768663  -0.001  -0.198051  -0.001033  4.011584  -0.001  -0.197159  -0.000727  4.026315  -0.001  -0.150238  -0.198506  -0.001344  4.00178  -0.001
C  C53  1  0.20218940  0.52058071  0.24219132  1  -0.150067  -0.000828  3.768591  -0.001  -0.19797  -0.001033  4.011449  -0.001  -0.197097  -0.000726  4.02621  -0.001  -0.150261  -0.198421  -0.001344  4.001621  -0.001
C  C54  1  0.74271309  0.65953698  0.61098263  1  0.002801  -0.000618  3.663889  -0.001  -0.053958  -0.002923  3.928554  -0.004  -0.045314  -0.002026  3.942284  -0.003  0.022067  -0.059569  -0.003877  3.919449  -0.005
C  C55  1  0.25728532  0.34046697  0.38901721  1  0.002733  -0.000624  3.663922  -0.001  -0.054001  -0.002923  3.928606  -0.004  -0.045351  -0.002026  3.942336  -0.003  0.022062  -0.059611  -0.003876  3.9195  -0.005
N  N56  1  0.21785785  0.47641842  0.82193248  1  -0.232506  -0.039931  3.286567  -0.063  -0.21041  -0.028655  3.617398  -0.037  -0.236126  -0.02192  3.632577  -0.028  -0.265782  -0.190274  -0.034876  3.60689  -0.046
N  N57  1  0.78214125  0.52357941  0.17807135  1  -0.232461  -0.03993  3.286694  -0.063  -0.210305  -0.028655  3.617479  -0.037  -0.236025  -0.02192  3.632657  -0.028  -0.26576  -0.190169  -0.034875  3.606971  -0.046
N  N58  1  0.65514430  0.52787957  0.41049204  1  -0.250608  -0.041559  3.304074  -0.067  -0.224771  -0.029349  3.629988  -0.039  -0.251572  -0.022762  3.64871  -0.03  -0.267586  -0.203956  -0.035354  3.61684  -0.047
N  N59  1  0.34485473  0.47212233  0.58950954  1  -0.250609  -0.041556  3.304052  -0.067  -0.224778  -0.02935  3.629954  -0.039  -0.25157  -0.022761  3.648676  -0.03  -0.267545  -0.203963  -0.035354  3.61681  -0.047
N  N60  1  0.18526280  0.39269618  0.89880470  1  -0.143024  0.000951  3.492187  0.0  -0.081945  -0.001227  3.736602  -0.002  -0.092362  -0.000641  3.755903  -0.002  -0.277635  -0.075637  -0.001904  3.723423  -0.003
N  N61  1  0.81473388  0.60730573  0.10120074  1  -0.143095  0.000958  3.492311  0.0  -0.082011  -0.001224  3.736789  -0.002  -0.092428  -0.000638  3.756091  -0.002  -0.277669  -0.075708  -0.001904  3.723616  -0.003
N  N62  1  0.68929919  0.65625192  0.47962943  1  -0.157794  -0.000244  3.490977  -0.001  -0.093287  -0.001758  3.73026  -0.003  -0.105305  -0.001344  3.7516  -0.002  -0.276512  -0.085721  -0.002098  3.715449  -0.003
N  N63  1  0.31069895  0.34375101  0.52037111  1  -0.157849  -0.000241  3.490973  -0.001  -0.093348  -0.001759  3.730255  -0.003  -0.105378  -0.001346  3.751608  -0.002  -0.276548  -0.085779  -0.002097  3.715443  -0.003
O  O64  1  0.59031796  0.67271555  0.88796377  1  -0.627867  -0.047799  2.045568  -0.079  -0.585387  -0.035886  2.31615  -0.054  -0.626836  -0.026404  2.306683  -0.04  -0.321752  -0.55213  -0.045015  2.322292  -0.067
O  O65  1  0.40967799  0.32728334  0.11203562  1  -0.627844  -0.047801  2.045456  -0.079  -0.585393  -0.035887  2.316027  -0.054  -0.626846  -0.026405  2.306561  -0.04  -0.321765  -0.552138  -0.045016  2.322171  -0.067
O  O66  1  0.37148716  0.72350490  0.76123997  1  -0.580368  -0.02725  1.971879  -0.052  -0.540944  -0.024057  2.206932  -0.045  -0.574875  -0.017474  2.201598  -0.034  -0.291875  -0.513972  -0.030811  2.209088  -0.055
O  O67  1  0.62851086  0.27649296  0.23875717  1  -0.580324  -0.027249  1.972015  -0.052  -0.540908  -0.024055  2.207051  -0.045  -0.574841  -0.017474  2.201718  -0.034  -0.291845  -0.513933  -0.030811  2.209198  -0.055
O  O68  1  0.51703779  0.36273121  0.85530915  1  -0.622975  -0.047675  2.08315  -0.082  -0.59017  -0.037099  2.378156  -0.056  -0.630127  -0.028479  2.363285  -0.043  -0.327502  -0.559187  -0.044867  2.389438  -0.067
O  O69  1  0.48296406  0.63727271  0.14469171  1  -0.622964  -0.047671  2.083237  -0.082  -0.590121  -0.037097  2.378226  -0.056  -0.630082  -0.028477  2.363362  -0.043  -0.327457  -0.559139  -0.044863  2.389508  -0.067
O  O70  1  0.95283948  0.14963507  0.10818513  1  -0.512269  -0.000233  2.078892  0.0  -0.470105  -7.3e-05  2.278958  0.0  -0.486138  -5.9e-05  2.271068  0.0  -0.355158  -0.458545  -5.5e-05  2.284129  0.0
O  O71  1  0.04715879  0.85035467  0.89180743  1  -0.512267  -0.000233  2.078894  0.0  -0.470197  -7.3e-05  2.278898  0.0  -0.486226  -5.9e-05  2.271015  0.0  -0.355211  -0.458636  -5.5e-05  2.284071  0.0
O  O72  1  0.34551571  0.18636258  0.69804025  1  -0.606122  -0.000255  1.93274  -0.002  -0.564808  -0.001999  2.140802  -0.004  -0.587023  -0.001369  2.130141  -0.003  -0.32599  -0.548392  -0.002913  2.147731  -0.005
O  O73  1  0.65448851  0.81363725  0.30196444  1  -0.606176  -0.000254  1.932849  -0.002  -0.564848  -0.001997  2.140927  -0.004  -0.587063  -0.001368  2.130266  -0.003  -0.326012  -0.548432  -0.002912  2.147858  -0.005
