# generated using pymatgen
data_Cd2H18C27N9ClO6
_symmetry_space_group_name_H-M   'P 1'
_cell_length_a   7.38619241
_cell_length_b   21.19423546
_cell_length_c   26.06856752
_cell_angle_alpha   90.00004505
_cell_angle_beta   90.00012156
_cell_angle_gamma   90.00000568
_symmetry_Int_Tables_number   1
_chemical_formula_structural   Cd2H18C27N9ClO6
_chemical_formula_sum   'Cd8 H72 C108 N36 Cl4 O24'
_cell_volume   4080.89610903
_cell_formula_units_Z   4
loop_
 _symmetry_equiv_pos_site_id
 _symmetry_equiv_pos_as_xyz
  1  'x, y, z'
loop_
 _atom_site_type_symbol
 _atom_site_label
 _atom_site_symmetry_multiplicity
 _atom_site_fract_x
 _atom_site_fract_y
 _atom_site_fract_z
 _atom_site_occupancy
 _atom_site_pbe_bader_charge
 _atom_site_pbe_bader_spin_density
 _atom_site_pbe_cm5_charge
 _atom_site_pbe_ddec_charge
 _atom_site_pbe_ddec_spin_density
 _atom_site_pbe_ddec_sum_bond_order
 _atom_site_pbe_magmom
Cd  Cd0  1  0.32266644  0.75000091  0.56685005  1  1.253628  0  0.713072  0.898811  0  2.256199  0
Cd  Cd1  1  0.82266824  0.24999910  0.93314942  1  1.253618  0  0.713067  0.8988  0  2.256212  0
Cd  Cd2  1  0.67733304  0.24999980  0.43314913  1  1.253641  0  0.713068  0.898824  0  2.256162  0
Cd  Cd3  1  0.17733124  0.75000067  0.06685130  1  1.253642  0  0.713048  0.898814  0  2.256169  0
Cd  Cd4  1  0.77125597  0.74999995  0.51528195  1  1.294731  0  0.75565  0.936535  0  2.294416  0
Cd  Cd5  1  0.27125983  0.24999912  0.98471787  1  1.294625  0  0.75564  0.936458  0  2.294541  0
Cd  Cd6  1  0.22874351  0.24999982  0.48471762  1  1.29474  0  0.755645  0.936509  0  2.294449  0
Cd  Cd7  1  0.72874235  0.75000065  0.01528285  1  1.294744  0  0.75564  0.936523  0  2.294443  0
H  H8  1  0.35217146  0.15138107  0.58361258  1  0.138485  0  0.134175  0.104782  0  1.000779  0
H  H9  1  0.85217061  0.84861800  0.91638767  1  0.13848  0  0.134184  0.104825  0  1.000793  0
H  H10  1  0.64782934  0.65138158  0.41638769  1  0.138485  0  0.134183  0.104819  0  1.000794  0
H  H11  1  0.14783160  0.34861795  0.08361273  1  0.138504  0  0.134181  0.104784  0  1.000802  0
H  H12  1  0.64782937  0.84861823  0.41638813  1  0.138485  0  0.134186  0.104836  0  1.000785  0
H  H13  1  0.14783158  0.15138130  0.08361267  1  0.138506  0  0.134166  0.104761  0  1.000834  0
H  H14  1  0.35216878  0.34861867  0.58361265  1  0.138503  0  0.13417  0.104771  0  1.00082  0
H  H15  1  0.85217058  0.65138135  0.91638761  1  0.1385  0  0.134153  0.104756  0  1.000824  0
H  H16  1  0.86790913  0.13633780  0.49926249  1  0.207489  0  0.140355  0.125229  0  1.032748  0
H  H17  1  0.36790958  0.86366221  0.00073729  1  0.207496  0  0.14036  0.125255  0  1.032722  0
H  H18  1  0.13209031  0.63633742  0.50073739  1  0.207485  0  0.140353  0.125216  0  1.032771  0
H  H19  1  0.63209128  0.36366211  0.99926312  1  0.207492  0  0.140354  0.125221  0  1.032755  0
H  H20  1  0.13209305  0.86366244  0.50073746  1  0.207474  0  0.140335  0.125203  0  1.032769  0
H  H21  1  0.63209260  0.13633756  0.99926343  1  0.207492  0  0.140349  0.125232  0  1.032727  0
H  H22  1  0.86790781  0.36366282  0.49926256  1  0.207483  0  0.140343  0.125211  0  1.03276  0
H  H23  1  0.36790819  0.63633719  0.00073683  1  0.207498  0  0.14036  0.125232  0  1.032746  0
H  H24  1  0.62872384  0.08803884  0.55222696  1  0.061243  0  0.106366  0.113107  0  1.009405  0
H  H25  1  0.12872492  0.91196117  0.94777316  1  0.061249  0  0.106376  0.113126  0  1.009381  0
H  H26  1  0.37127559  0.58803889  0.44777327  1  0.061237  0  0.106367  0.113114  0  1.009396  0
H  H27  1  0.87127596  0.41196159  0.05222689  1  0.061257  0  0.106361  0.113112  0  1.009436  0
H  H28  1  0.37127699  0.91196140  0.44777299  1  0.061248  0  0.106383  0.113141  0  1.00943  0
H  H29  1  0.87127862  0.08803907  0.05222756  1  0.061239  0  0.10639  0.11319  0  1.009368  0
H  H30  1  0.62872253  0.41196088  0.55222668  1  0.061226  0  0.106401  0.113197  0  1.009403  0
H  H31  1  0.12872487  0.58803818  0.94777382  1  0.061256  0  0.10638  0.11316  0  1.009401  0
H  H32  1  0.41410461  0.99701383  0.55515254  1  0.135923  0  0.102723  0.102943  0  1.031306  0
H  H33  1  0.91410778  0.00298666  0.94484736  1  0.135499  0  0.102734  0.102972  0  1.031315  0
H  H34  1  0.58589494  0.49701367  0.44484833  1  0.135935  0  0.102733  0.102953  0  1.031285  0
H  H35  1  0.08589568  0.50298680  0.05515205  1  0.135923  0  0.102726  0.102953  0  1.031301  0
H  H36  1  0.58589487  0.00298689  0.44484741  1  0.135936  0  0.102729  0.102944  0  1.031299  0
H  H37  1  0.08589846  0.99701358  0.05515297  1  0.135888  0  0.102712  0.102925  0  1.031272  0
H  H38  1  0.41410183  0.50298563  0.55515277  1  0.135883  0  0.102712  0.102911  0  1.031287  0
H  H39  1  0.91410650  0.49701297  0.94484752  1  0.13571  0  0.102747  0.102976  0  1.031269  0
H  H40  1  0.85961164  0.87112820  0.58390105  1  0.136749  0  0.094256  0.101475  0  1.048654  0
H  H41  1  0.35961496  0.12887181  0.91609844  1  0.136733  0  0.094252  0.10147  0  1.048629  0
H  H42  1  0.14038652  0.37112848  0.41609897  1  0.136749  0  0.094254  0.101475  0  1.048667  0
H  H43  1  0.64038854  0.62887246  0.08390067  1  0.13673  0  0.094239  0.10145  0  1.048692  0
H  H44  1  0.14038648  0.12887204  0.41609890  1  0.13673  0  0.094251  0.101462  0  1.048678  0
H  H45  1  0.64038993  0.87112796  0.08390075  1  0.136753  0  0.094246  0.101478  0  1.048656  0
H  H46  1  0.85960754  0.62887177  0.58390174  1  0.136761  0  0.094253  0.101477  0  1.048617  0
H  H47  1  0.35961364  0.37112778  0.91609851  1  0.136734  0  0.094247  0.10145  0  1.048671  0
H  H48  1  0.07491099  0.96120740  0.58102305  1  0.109261  0  0.111344  0.13126  0  1.012738  0
H  H49  1  0.57491398  0.03879166  0.91897703  1  0.109238  0  0.111334  0.131238  0  1.012734  0
H  H50  1  0.92508855  0.46120817  0.41897627  1  0.109263  0  0.111346  0.131267  0  1.012711  0
H  H51  1  0.42508814  0.53879278  0.08102278  1  0.109256  0  0.111345  0.131266  0  1.012722  0
H  H52  1  0.92508713  0.03879237  0.41897690  1  0.109256  0  0.111341  0.131251  0  1.012719  0
H  H53  1  0.42509226  0.96120764  0.08102292  1  0.109295  0  0.111352  0.131292  0  1.012665  0
H  H54  1  0.07490687  0.53879301  0.58102368  1  0.109299  0  0.111371  0.131325  0  1.012699  0
H  H55  1  0.57491269  0.46120746  0.91897679  1  0.109245  0  0.111332  0.131241  0  1.012745  0
H  H56  1  0.81692227  0.74999978  0.15424065  1  0.167901  0  0.129215  0.110119  0  1.002827  0
H  H57  1  0.31693052  0.24999975  0.34575872  1  0.167995  0  0.129174  0.110076  0  1.002948  0
H  H58  1  0.18307450  0.24999952  0.84575892  1  0.167937  0  0.129192  0.110053  0  1.002871  0
H  H59  1  0.68306761  0.75000002  0.65424046  1  0.167913  0  0.129192  0.110079  0  1.002909  0
H  H60  1  0.36849380  0.74999979  0.19192037  1  0.128177  0  0.140975  0.116352  0  1.000937  0
H  H61  1  0.86850279  0.24999975  0.30808018  1  0.12808  0  0.14096  0.116253  0  1.000949  0
H  H62  1  0.63150297  0.24999998  0.80807996  1  0.128146  0  0.140961  0.116306  0  1.000974  0
H  H63  1  0.13149533  0.75000002  0.69191862  1  0.128175  0  0.140913  0.11625  0  1.000958  0
H  H64  1  0.91917043  0.74999986  0.32156940  1  0.10571  0  0.108937  0.116334  0  1.017049  0
H  H65  1  0.41917879  0.24999967  0.17843042  1  0.105814  0  0.108849  0.116173  0  1.017053  0
H  H66  1  0.08082499  0.24999991  0.67843094  1  0.105767  0  0.108906  0.116268  0  1.016989  0
H  H67  1  0.58082069  0.74999962  0.82156800  1  0.105838  0  0.10888  0.116244  0  1.01697  0
H  H68  1  0.03090931  0.74999989  0.41245828  1  0.120594  0  0.100721  0.100111  0  1.061024  0
H  H69  1  0.53091802  0.24999963  0.08754207  1  0.120669  0  0.100743  0.100154  0  1.060994  0
H  H70  1  0.96908881  0.24999988  0.58754206  1  0.120636  0  0.100732  0.100092  0  1.061001  0
H  H71  1  0.46908416  0.74999967  0.91245750  1  0.120687  0  0.10075  0.100133  0  1.060949  0
H  H72  1  0.57943937  0.74999987  0.35867490  1  0.105677  0  0.105894  0.106351  0  1.011569  0
H  H73  1  0.07944745  0.24999965  0.14132509  1  0.10559  0  0.105909  0.106409  0  1.011553  0
H  H74  1  0.42055876  0.25000037  0.64132467  1  0.105642  0  0.105913  0.106398  0  1.011541  0
H  H75  1  0.92055203  0.74999965  0.85867486  1  0.105592  0  0.105911  0.106449  0  1.011542  0
H  H76  1  0.47332347  0.74999983  0.26884485  1  0.081529  0  0.111431  0.11868  0  1.003072  0
H  H77  1  0.97333189  0.24999971  0.23115462  1  0.082254  0  0.111433  0.118714  0  1.003147  0
H  H78  1  0.52667195  0.24999994  0.73115511  1  0.082257  0  0.111446  0.11872  0  1.003157  0
H  H79  1  0.02666623  0.74999959  0.76884533  1  0.08222  0  0.111416  0.118694  0  1.003159  0
C  C80  1  0.22344202  0.13408863  0.56950705  1  0.968323  0  0.144258  0.140624  0  3.99305  0
C  C81  1  0.72344263  0.86591138  0.93049313  1  0.968326  0  0.144306  0.140617  0  3.9931  0
C  C82  1  0.77655742  0.63408915  0.43049321  1  0.968317  0  0.144306  0.140633  0  3.993076  0
C  C83  1  0.27655958  0.36591133  0.06950690  1  0.968315  0  0.144256  0.140643  0  3.992984  0
C  C84  1  0.77655745  0.86591114  0.43049329  1  0.968313  0  0.144277  0.140563  0  3.992969  0
C  C85  1  0.27655955  0.13408839  0.06950721  1  0.968336  0  0.144258  0.140624  0  3.993064  0
C  C86  1  0.22344070  0.36591157  0.56950712  1  0.968335  0  0.144268  0.140644  0  3.993065  0
C  C87  1  0.72344125  0.63408797  0.93049305  1  0.96813  0  0.144293  0.140675  0  3.993019  0
C  C88  1  0.97736753  0.12930619  0.52661999  1  0.993263  0  0.169183  0.103585  0  3.864229  0
C  C89  1  0.47736743  0.87069383  0.97337995  1  0.993255  0  0.169184  0.103557  0  3.864204  0
C  C90  1  0.02263327  0.62930625  0.47338027  1  0.993251  0  0.16919  0.103607  0  3.864205  0
C  C91  1  0.52263344  0.37069374  0.02662007  1  0.993262  0  0.169218  0.103649  0  3.864257  0
C  C92  1  0.02263330  0.87069358  0.47338034  1  0.993263  0  0.169185  0.103605  0  3.86425  0
C  C93  1  0.52263476  0.12930594  0.02662038  1  0.99325  0  0.169259  0.10365  0  3.864287  0
C  C94  1  0.97736621  0.37069399  0.52662007  1  0.993259  0  0.169273  0.10369  0  3.864288  0
C  C95  1  0.47736739  0.62930603  0.97337988  1  0.99327  0  0.16922  0.103663  0  3.864284  0
C  C96  1  0.86338335  0.02923182  0.56502480  1  0.285746  0  0.099977  0.149009  0  4.012969  0
C  C97  1  0.36338570  0.97076772  0.93497470  1  0.28573  0  0.099927  0.148903  0  4.013057  0
C  C98  1  0.13661606  0.52923185  0.43497501  1  0.285744  0  0.099977  0.149008  0  4.012972  0
C  C99  1  0.63661655  0.47076862  0.06502501  1  0.285752  0  0.099952  0.148915  0  4.012998  0
C  C100  1  0.13661613  0.97076795  0.43497515  1  0.285759  0  0.099988  0.149009  0  4.012975  0
C  C101  1  0.63661919  0.02923158  0.06502564  1  0.285748  0  0.099983  0.149013  0  4.013026  0
C  C102  1  0.86338071  0.47076839  0.56502570  1  0.28576  0  0.099954  0.148909  0  4.012997  0
C  C103  1  0.36338429  0.52923163  0.93497532  1  0.285755  0  0.099953  0.148923  0  4.012953  0
C  C104  1  0.67811060  0.04024943  0.55864388  1  0.009637  0  -0.088637  -0.16572  0  3.981083  0
C  C105  1  0.17811165  0.95975105  0.94135588  1  0.009662  0  -0.088639  -0.16572  0  3.980979  0
C  C106  1  0.32188881  0.54024948  0.44135594  1  0.009634  0  -0.088651  -0.165758  0  3.981048  0
C  C107  1  0.82188925  0.45975100  0.05864382  1  0.00964  0  -0.088642  -0.165722  0  3.981082  0
C  C108  1  0.32189023  0.95975081  0.44135569  1  0.009646  0  -0.088659  -0.165792  0  3.981048  0
C  C109  1  0.82189189  0.04024919  0.05864483  1  0.009651  0  -0.088584  -0.165759  0  3.981011  0
C  C110  1  0.67810796  0.45975029  0.55864440  1  0.009633  0  -0.088628  -0.165752  0  3.981024  0
C  C111  1  0.17811158  0.54024877  0.94135652  1  0.009645  0  -0.088665  -0.165794  0  3.98109  0
C  C112  1  0.55881653  0.98946508  0.56008765  1  -0.061421  0  -0.078052  -0.067432  0  3.969205  0
C  C113  1  0.05881729  0.01053539  0.93991243  1  -0.060948  0  -0.078066  -0.067485  0  3.969223  0
C  C114  1  0.44118301  0.48946539  0.43991284  1  -0.0614  0  -0.078063  -0.067445  0  3.969153  0
C  C115  1  0.94118347  0.51053509  0.06008775  1  -0.061131  0  -0.078057  -0.067454  0  3.969205  0
C  C116  1  0.44118430  0.01053516  0.43991269  1  -0.061428  0  -0.078055  -0.067387  0  3.969126  0
C  C117  1  0.94118760  0.98946485  0.06008829  1  -0.061459  0  -0.078033  -0.067364  0  3.969078  0
C  C118  1  0.55881240  0.51053438  0.56008826  1  -0.061441  0  -0.078003  -0.067333  0  3.969054  0
C  C119  1  0.05881736  0.48946468  0.93991258  1  -0.061179  0  -0.078063  -0.067431  0  3.969108  0
C  C120  1  0.62419124  0.92804084  0.56746627  1  0.002572  0  -0.020553  -0.040818  0  3.957565  0
C  C121  1  0.12419466  0.07195964  0.93253346  1  0.002558  0  -0.020569  -0.04076  0  3.957552  0
C  C122  1  0.37580694  0.42804066  0.43253380  1  0.002562  0  -0.020512  -0.040682  0  3.957455  0
C  C123  1  0.87580747  0.57195982  0.06746714  1  0.002253  0  -0.020586  -0.040848  0  3.957561  0
C  C124  1  0.37580824  0.07195988  0.43253368  1  0.002572  0  -0.020571  -0.040857  0  3.957547  0
C  C125  1  0.87581158  0.92804060  0.06746687  1  0.002682  0  -0.020651  -0.040901  0  3.957622  0
C  C126  1  0.62418712  0.57195911  0.56746730  1  0.002639  0  -0.020642  -0.040907  0  3.95757  0
C  C127  1  0.12419201  0.42803995  0.93253358  1  0.002566  0  -0.020532  -0.040762  0  3.957522  0
C  C128  1  0.80949920  0.91861611  0.57657806  1  -0.073934  0  -0.082418  -0.069221  0  3.958501  0
C  C129  1  0.30950256  0.08138390  0.92342178  1  -0.073935  0  -0.082417  -0.06923  0  3.958535  0
C  C130  1  0.19050033  0.41861592  0.42342200  1  -0.073959  0  -0.082437  -0.069299  0  3.958595  0
C  C131  1  0.69050093  0.58138455  0.07657806  1  -0.073962  0  -0.082389  -0.069169  0  3.95858  0
C  C132  1  0.19050028  0.08138460  0.42342228  1  -0.073942  0  -0.082426  -0.069253  0  3.95857  0
C  C133  1  0.69050504  0.91861587  0.07657817  1  -0.074007  0  -0.0824  -0.069216  0  3.958635  0
C  C134  1  0.80949509  0.58138385  0.57657872  1  -0.074016  0  -0.082381  -0.069165  0  3.958624  0
C  C135  1  0.30949990  0.41861569  0.92342189  1  -0.073957  0  -0.082421  -0.069228  0  3.958616  0
C  C136  1  0.93037474  0.96889394  0.57538779  1  0.009732  0  -0.086722  -0.159618  0  3.952152  0
C  C137  1  0.43037674  0.03110561  0.92461213  1  0.009718  0  -0.086654  -0.159516  0  3.952262  0
C  C138  1  0.06962615  0.46889374  0.42461192  1  0.009726  0  -0.086707  -0.159588  0  3.952173  0
C  C139  1  0.56962538  0.53110672  0.07538768  1  0.009737  0  -0.086657  -0.159525  0  3.952181  0
C  C140  1  0.06962609  0.03110631  0.42461178  1  0.009748  0  -0.086695  -0.159544  0  3.952118  0
C  C141  1  0.56962815  0.96889369  0.07538821  1  0.009712  0  -0.086746  -0.159677  0  3.952191  0
C  C142  1  0.93037062  0.53110650  0.57538880  1  0.009706  0  -0.086759  -0.159694  0  3.952264  0
C  C143  1  0.43037545  0.46889305  0.92461188  1  0.009731  0  -0.086671  -0.159525  0  3.952137  0
C  C144  1  0.49883976  0.87260972  0.56393015  1  1.530751  0  0.197435  0.574221  0  4.204615  0
C  C145  1  0.99884425  0.12739077  0.93606942  1  1.530816  0  0.197331  0.573979  0  4.204911  0
C  C146  1  0.50115840  0.37260955  0.43607026  1  1.530747  0  0.197347  0.574012  0  4.204745  0
C  C147  1  0.00116196  0.62739044  0.06393045  1  1.530806  0  0.197401  0.574193  0  4.204701  0
C  C148  1  0.50115972  0.12739052  0.43607018  1  1.530746  0  0.197381  0.574139  0  4.204709  0
C  C149  1  0.00116199  0.87260947  0.06393053  1  1.530749  0  0.197397  0.574151  0  4.204804  0
C  C150  1  0.49883566  0.62739022  0.56393046  1  1.530806  0  0.197443  0.574248  0  4.204618  0
C  C151  1  0.99884158  0.37260886  0.93606950  1  1.530746  0  0.197253  0.573948  0  4.204882  0
C  C152  1  0.94081975  0.75000026  0.17666846  1  0.954055  0  0.15353  0.165374  0  3.955937  0
C  C153  1  0.44082918  0.24999975  0.32333137  1  0.953725  0  0.153519  0.165294  0  3.956332  0
C  C154  1  0.05917702  0.24999998  0.82333149  1  0.954062  0  0.15349  0.165383  0  3.956007  0
C  C155  1  0.55916759  0.75000050  0.67666667  1  0.953741  0  0.153431  0.165224  0  3.956384  0
C  C156  1  0.22212746  0.75000026  0.19462243  1  1.022172  0  0.168974  0.099142  0  3.884614  0
C  C157  1  0.72213508  0.24999974  0.30537765  1  1.022602  0  0.169038  0.099424  0  3.884656  0
C  C158  1  0.77787066  0.24999998  0.80537790  1  1.022674  0  0.169029  0.099289  0  3.884702  0
C  C159  1  0.27786304  0.75000050  0.69462154  1  1.02247  0  0.169005  0.099336  0  3.884678  0
C  C160  1  0.06317056  0.75000032  0.33031799  1  -0.009519  0  -0.086291  -0.152841  0  3.957609  0
C  C161  1  0.56317852  0.24999967  0.16968161  1  -0.009462  0  -0.086139  -0.152539  0  3.957403  0
C  C162  1  0.93682486  0.24999992  0.66968235  1  -0.009495  0  -0.086243  -0.152764  0  3.957431  0
C  C163  1  0.43681689  0.75000010  0.83031719  1  -0.009442  0  -0.086203  -0.15274  0  3.957338  0
C  C164  1  0.12572395  0.75000035  0.38060117  1  -0.034033  0  -0.084756  -0.069802  0  3.967841  0
C  C165  1  0.62573289  0.24999965  0.11939924  1  -0.03401  0  -0.084792  -0.069892  0  3.968035  0
C  C166  1  0.87427147  0.24999990  0.61939955  1  -0.034008  0  -0.084757  -0.069783  0  3.967856  0
C  C167  1  0.37426794  0.75000012  0.88059956  1  -0.033964  0  -0.084766  -0.069795  0  3.967776  0
C  C168  1  0.31141912  0.75000035  0.39131413  1  -0.017322  0  -0.026513  -0.055496  0  3.98243  0
C  C169  1  0.81142528  0.24999965  0.10868677  1  -0.017315  0  -0.026502  -0.055591  0  3.982684  0
C  C170  1  0.68857765  0.24999989  0.60868621  1  -0.017341  0  -0.026504  -0.055487  0  3.982487  0
C  C171  1  0.18857284  0.75000012  0.89131279  1  -0.017326  0  -0.02645  -0.055479  0  3.982544  0
C  C172  1  0.43482220  0.75000034  0.35042316  1  0.008353  0  -0.082353  -0.075835  0  3.992914  0
C  C173  1  0.93483137  0.24999967  0.14957705  1  0.0069  0  -0.082415  -0.075818  0  3.992793  0
C  C174  1  0.56517457  0.25000038  0.64957680  1  0.008326  0  -0.082467  -0.076018  0  3.993039  0
C  C175  1  0.06516946  0.75000010  0.85042252  1  0.006763  0  -0.082457  -0.075989  0  3.992909  0
C  C176  1  0.37470579  0.75000031  0.29990252  1  -0.121602  0  -0.090284  -0.173747  0  3.988795  0
C  C177  1  0.87471398  0.24999969  0.20009765  1  -0.120337  0  -0.090272  -0.173921  0  3.988955  0
C  C178  1  0.62528963  0.24999993  0.70009781  1  -0.122411  0  -0.090252  -0.173797  0  3.988902  0
C  C179  1  0.12528414  0.75000008  0.79990115  1  -0.120115  0  -0.090236  -0.173871  0  3.989048  0
C  C180  1  0.18822807  0.75000030  0.29003426  1  0.324319  0  0.105861  0.156206  0  4.005325  0
C  C181  1  0.68824176  0.24999969  0.20996541  1  0.323556  0  0.105808  0.156279  0  4.005351  0
C  C182  1  0.81176599  0.24999994  0.70996569  1  0.324301  0  0.105848  0.156331  0  4.005269  0
C  C183  1  0.31175230  0.75000008  0.79003377  1  0.323393  0  0.105768  0.156302  0  4.005427  0
C  C184  1  0.37801927  0.74999991  0.44584303  1  1.575639  0  0.204932  0.576855  0  4.223249  0
C  C185  1  0.87802502  0.24999962  0.05415637  1  1.575662  0  0.204947  0.576863  0  4.223417  0
C  C186  1  0.62198021  0.24999986  0.55415692  1  1.575645  0  0.204933  0.576897  0  4.223222  0
C  C187  1  0.12197716  0.75000015  0.94584243  1  1.575634  0  0.20505  0.577149  0  4.222987  0
N  N188  1  0.98693820  0.08016265  0.55959494  1  -0.871212  0  -0.113756  0.1351  0  3.745261  0
N  N189  1  0.48693923  0.91983737  0.94040539  1  -0.871227  0  -0.113771  0.135115  0  3.745316  0
N  N190  1  0.01306258  0.58016268  0.44040490  1  -0.871036  0  -0.113761  0.135077  0  3.745299  0
N  N191  1  0.51306301  0.41983778  0.05959505  1  -0.871042  0  -0.113792  0.135061  0  3.745251  0
N  N192  1  0.01306398  0.91983759  0.44040501  1  -0.871043  0  -0.113765  0.135058  0  3.745246  0
N  N193  1  0.51306567  0.08016240  0.05959532  1  -0.871054  0  -0.11377  0.135068  0  3.745323  0
N  N194  1  0.98693690  0.41983803  0.55959543  1  -0.871024  0  -0.113799  0.135065  0  3.745231  0
N  N195  1  0.48693782  0.58016199  0.94040490  1  -0.871235  0  -0.113788  0.135061  0  3.74525  0
N  N196  1  0.14453133  0.08236419  0.58709831  1  -0.67205  0  -0.221029  -0.256726  0  3.071309  0
N  N197  1  0.64453182  0.91763534  0.91290182  1  -0.672054  0  -0.221053  -0.256731  0  3.071396  0
N  N198  1  0.85546945  0.58236470  0.41290154  1  -0.672199  0  -0.22105  -0.256721  0  3.071344  0
N  N199  1  0.35547041  0.41763578  0.08709862  1  -0.672219  0  -0.220987  -0.256691  0  3.071284  0
N  N200  1  0.85546815  0.91763558  0.41290203  1  -0.672196  0  -0.221001  -0.256644  0  3.071195  0
N  N201  1  0.35547171  0.08236443  0.08709890  1  -0.672223  0  -0.221015  -0.25668  0  3.071313  0
N  N202  1  0.14453003  0.41763602  0.58709880  1  -0.672243  0  -0.220998  -0.256677  0  3.071287  0
N  N203  1  0.64453042  0.58236352  0.91290171  1  -0.671902  0  -0.221013  -0.256703  0  3.071282  0
N  N204  1  0.12585169  0.16449782  0.53229593  1  -1.205847  0  -0.347707  -0.332058  0  3.496522  0
N  N205  1  0.62585121  0.83550219  0.96770457  1  -1.205852  0  -0.347733  -0.332066  0  3.496493  0
N  N206  1  0.87414776  0.66449791  0.46770473  1  -1.205857  0  -0.347742  -0.332103  0  3.496511  0
N  N207  1  0.37415100  0.33550163  0.03229544  1  -1.205834  0  -0.347766  -0.332134  0  3.496575  0
N  N208  1  0.87415049  0.83550195  0.46770479  1  -1.205851  0  -0.347756  -0.332106  0  3.496553  0
N  N209  1  0.37414962  0.16449758  0.03229576  1  -1.20572  0  -0.347785  -0.332148  0  3.496644  0
N  N210  1  0.12585036  0.33550281  0.53229560  1  -1.20582  0  -0.34777  -0.332151  0  3.496666  0
N  N211  1  0.62584983  0.66449767  0.96770413  1  -1.205804  0  -0.347749  -0.332142  0  3.496626  0
N  N212  1  0.12475404  0.75000028  0.23867277  1  -0.832222  0  -0.112535  0.137345  0  3.747149  0
N  N213  1  0.62476540  0.24999972  0.26132686  1  -0.83282  0  -0.112568  0.137191  0  3.746965  0
N  N214  1  0.87524002  0.24999996  0.76132718  1  -0.832815  0  -0.112531  0.137257  0  3.747078  0
N  N215  1  0.37523408  0.75000005  0.73867232  1  -0.832804  0  -0.112505  0.137266  0  3.746965  0
N  N216  1  0.94346812  0.75000029  0.22746949  1  -0.65212  0  -0.224254  -0.272592  0  3.071228  0
N  N217  1  0.44347582  0.24999972  0.27253034  1  -0.651966  0  -0.224208  -0.272492  0  3.071166  0
N  N218  1  0.05652865  0.24999948  0.77253085  1  -0.652041  0  -0.224173  -0.272485  0  3.071079  0
N  N219  1  0.55652095  0.75000005  0.72746923  1  -0.651839  0  -0.224176  -0.272476  0  3.07124  0
N  N220  1  0.10961603  0.75000024  0.15497120  1  -1.203683  0  -0.338552  -0.301584  0  3.460856  0
N  N221  1  0.60962394  0.24999976  0.34502881  1  -1.203258  0  -0.338556  -0.301648  0  3.461206  0
N  N222  1  0.89038210  0.25000000  0.84502875  1  -1.203643  0  -0.338585  -0.301674  0  3.46109  0
N  N223  1  0.39037689  0.75000048  0.65497037  1  -1.203314  0  -0.338462  -0.301536  0  3.461339  0
Cl  Cl224  1  0.98664463  0.74999999  0.59260656  1  -0.623077  0  -0.27113  -0.484148  0  1.29183  0
Cl  Cl225  1  0.48664928  0.24999861  0.90739301  1  -0.623081  0  -0.271148  -0.484174  0  1.291907  0
Cl  Cl226  1  0.01335485  0.24999978  0.40739263  1  -0.623087  0  -0.271147  -0.484174  0  1.291838  0
Cl  Cl227  1  0.51335291  0.74999974  0.09260771  1  -0.623087  0  -0.271139  -0.484171  0  1.291859  0
O  O228  1  0.57316085  0.81718899  0.56310733  1  -1.177191  0  -0.348328  -0.591553  0  2.400299  0
O  O229  1  0.07316705  0.18281101  0.93689161  1  -1.177247  0  -0.348257  -0.591457  0  2.40042  0
O  O230  1  0.42683729  0.31718882  0.43689228  1  -1.177202  0  -0.348265  -0.591469  0  2.400343  0
O  O231  1  0.92684053  0.68281118  0.06310792  1  -1.177199  0  -0.348285  -0.591548  0  2.400435  0
O  O232  1  0.42683998  0.18281125  0.43689262  1  -1.177216  0  -0.348298  -0.591513  0  2.400433  0
O  O233  1  0.92683919  0.81718923  0.06310758  1  -1.177194  0  -0.348261  -0.591484  0  2.400483  0
O  O234  1  0.57315948  0.68281047  0.56310805  1  -1.177173  0  -0.348325  -0.591597  0  2.400394  0
O  O235  1  0.07316436  0.31718859  0.93689242  1  -1.177222  0  -0.348217  -0.591395  0  2.400389  0
O  O236  1  0.32977159  0.88002447  0.56186056  1  -1.166627  0  -0.324718  -0.55421  0  2.138354  0
O  O237  1  0.82977610  0.11997507  0.93813968  1  -1.166625  0  -0.324681  -0.554077  0  2.138398  0
O  O238  1  0.67022793  0.38002478  0.43813986  1  -1.166593  0  -0.324709  -0.554131  0  2.138317  0
O  O239  1  0.17022876  0.61997380  0.06186172  1  -1.166641  0  -0.324707  -0.554178  0  2.138334  0
O  O240  1  0.67022925  0.11997435  0.43813977  1  -1.166626  0  -0.324693  -0.554159  0  2.138302  0
O  O241  1  0.17023015  0.88002376  0.06186142  1  -1.166647  0  -0.324708  -0.554185  0  2.138369  0
O  O242  1  0.32976749  0.61997546  0.56186086  1  -1.166692  0  -0.32472  -0.554216  0  2.138316  0
O  O243  1  0.82977207  0.38002455  0.93813899  1  -1.166587  0  -0.324664  -0.554107  0  2.138342  0
O  O244  1  0.25842598  0.74999993  0.48114068  1  -1.15887  0  -0.326881  -0.563805  0  2.337015  0
O  O245  1  0.75842606  0.24999960  0.01885865  1  -1.158837  0  -0.326875  -0.563797  0  2.336984  0
O  O246  1  0.74157485  0.24999984  0.51885927  1  -1.158859  0  -0.326886  -0.56385  0  2.337007  0
O  O247  1  0.24157342  0.75000064  0.98114015  1  -1.158796  0  -0.326961  -0.563991  0  2.336933  0
O  O248  1  0.54853881  0.75000039  0.45197691  1  -1.211841  0  -0.33194  -0.576272  0  2.342379  0
O  O249  1  0.04854349  0.24999961  0.04802230  1  -1.211888  0  -0.331918  -0.576205  0  2.342518  0
O  O250  1  0.45146066  0.25000033  0.54802304  1  -1.211844  0  -0.33193  -0.576256  0  2.342386  0
O  O251  1  0.95145869  0.75000064  0.95197727  1  -1.211872  0  -0.331969  -0.576388  0  2.342434  0
