# generated using pymatgen
data_AgH12C14N3O7
_symmetry_space_group_name_H-M   'P 1'
_cell_length_a   7.88977093
_cell_length_b   12.81918219
_cell_length_c   14.90101209
_cell_angle_alpha   98.66462849
_cell_angle_beta   90.00001881
_cell_angle_gamma   89.99998455
_symmetry_Int_Tables_number   1
_chemical_formula_structural   AgH12C14N3O7
_chemical_formula_sum   'Ag4 H48 C56 N12 O28'
_cell_volume   1489.89413630
_cell_formula_units_Z   4
loop_
 _symmetry_equiv_pos_site_id
 _symmetry_equiv_pos_as_xyz
  1  'x, y, z'
loop_
 _atom_site_type_symbol
 _atom_site_label
 _atom_site_symmetry_multiplicity
 _atom_site_fract_x
 _atom_site_fract_y
 _atom_site_fract_z
 _atom_site_occupancy
 _atom_site_hle17_bader_spin_density
 _atom_site_hle17_ddec_charge
 _atom_site_hle17_ddec_spin_density
 _atom_site_hle17_ddec_sum_bond_order
 _atom_site_hle17_magmom
 _atom_site_hse06_10hf_bader_spin_density
 _atom_site_hse06_10hf_ddec_charge
 _atom_site_hse06_10hf_ddec_spin_density
 _atom_site_hse06_10hf_ddec_sum_bond_order
 _atom_site_hse06_10hf_magmom
 _atom_site_hse06_bader_spin_density
 _atom_site_hse06_ddec_charge
 _atom_site_hse06_ddec_spin_density
 _atom_site_hse06_ddec_sum_bond_order
 _atom_site_hse06_magmom
 _atom_site_pbe_bader_spin_density
 _atom_site_pbe_cm5_charge
 _atom_site_pbe_ddec_charge
 _atom_site_pbe_ddec_spin_density
 _atom_site_pbe_ddec_sum_bond_order
 _atom_site_pbe_magmom
Ag  Ag0  1  0.33337866  0.33351605  0.75033011  1  0  0.543571  0  1.379404  0  0  0.398025  0  1.814313  0  0  0.427263  0  1.767794  0  0  0.470826  0.378238  0  1.846384  0
Ag  Ag1  1  0.83338054  0.16648388  0.74967033  1  0  0.543589  0  1.379388  0  0  0.398031  0  1.81432  0  0  0.427269  0  1.767799  0  0  0.470821  0.378243  0  1.84639  0
Ag  Ag2  1  0.66662005  0.66648458  0.24967022  1  0  0.54357  0  1.379382  0  0  0.398016  0  1.81432  0  0  0.427254  0  1.767799  0  0  0.470818  0.37823  0  1.846393  0
Ag  Ag3  1  0.16662071  0.83351517  0.25032981  1  0  0.543562  0  1.379379  0  0  0.398008  0  1.814309  0  0  0.427249  0  1.767787  0  0  0.470826  0.378226  0  1.846384  0
H  H4  1  0.79882297  0.21788854  0.25384854  1  0  0.076314  0  0.922913  0  0  0.091269  0  0.984929  0  0  0.091083  0  0.98449  0  0  0.111456  0.09137  0  0.985304  0
H  H5  1  0.29882238  0.28211134  0.24615162  1  0  0.076309  0  0.922921  0  0  0.091268  0  0.984935  0  0  0.091084  0  0.984494  0  0  0.111461  0.091369  0  0.985308  0
H  H6  1  0.20117701  0.78211130  0.74615169  1  0  0.076321  0  0.922891  0  0  0.09128  0  0.9849  0  0  0.091094  0  0.984462  0  0  0.111457  0.09138  0  0.985273  0
H  H7  1  0.70117760  0.71788850  0.75384861  1  0  0.076316  0  0.922933  0  0  0.091251  0  0.98493  0  0  0.091064  0  0.984488  0  0  0.111448  0.09135  0  0.985305  0
H  H8  1  0.92408897  0.30751614  0.33041156  1  0  0.085625  0  0.931788  0  0  0.097061  0  0.995797  0  0  0.098579  0  0.994148  0  0  0.114305  0.095847  0  0.997214  0
H  H9  1  0.42408837  0.19248451  0.16958940  1  0  0.085597  0  0.931782  0  0  0.097045  0  0.995772  0  0  0.098548  0  0.994141  0  0  0.11429  0.095829  0  0.997188  0
H  H10  1  0.07591101  0.69248291  0.66958992  1  0  0.085608  0  0.931776  0  0  0.097037  0  0.995778  0  0  0.098567  0  0.994115  0  0  0.114299  0.095821  0  0.997193  0
H  H11  1  0.57591288  0.80751533  0.83041083  1  0  0.085637  0  0.931814  0  0  0.097061  0  0.995789  0  0  0.098562  0  0.994157  0  0  0.114309  0.095845  0  0.997206  0
H  H12  1  0.84212075  0.45659910  0.24913891  1  0  0.071171  0  0.953697  0  0  0.073447  0  1.041345  0  0  0.075022  0  1.037326  0  0  0.102224  0.072115  0  1.044362  0
H  H13  1  0.34212153  0.04340156  0.25086136  1  0  0.07111  0  0.953702  0  0  0.073377  0  1.041357  0  0  0.074953  0  1.037334  0  0  0.102195  0.072048  0  1.044369  0
H  H14  1  0.15787922  0.54340153  0.75086210  1  0  0.07113  0  0.953706  0  0  0.073429  0  1.041356  0  0  0.075005  0  1.03733  0  0  0.102219  0.072097  0  1.044373  0
H  H15  1  0.65787844  0.95659828  0.74913887  1  0  0.071062  0  0.953677  0  0  0.073319  0  1.041368  0  0  0.074894  0  1.037346  0  0  0.102182  0.071992  0  1.044378  0
H  H16  1  0.93129571  0.35097162  0.17191532  1  0  0.082198  0  0.945516  0  0  0.089975  0  1.015548  0  0  0.091495  0  1.014002  0  0  0.110918  0.088795  0  1.016789  0
H  H17  1  0.43129523  0.14902903  0.32808564  1  0  0.082164  0  0.945511  0  0  0.089959  0  1.015523  0  0  0.091474  0  1.013989  0  0  0.11092  0.088774  0  1.016772  0
H  H18  1  0.06870427  0.64902822  0.82808559  1  0  0.082135  0  0.945529  0  0  0.089939  0  1.015553  0  0  0.091452  0  1.014024  0  0  0.110909  0.088756  0  1.016795  0
H  H19  1  0.56870475  0.85097081  0.67191460  1  0  0.082139  0  0.945517  0  0  0.089948  0  1.015549  0  0  0.091462  0  1.014016  0  0  0.110921  0.088766  0  1.016793  0
H  H20  1  0.60177297  0.33175943  0.60625478  1  0  0.092902  0  0.956849  0  0  0.098063  0  1.027  0  0  0.100651  0  1.024408  0  0  0.119364  0.096086  0  1.028929  0
H  H21  1  0.10177252  0.16823975  0.89374620  1  0  0.092884  0  0.956887  0  0  0.09809  0  1.02699  0  0  0.100677  0  1.0244  0  0  0.119365  0.096113  0  1.028918  0
H  H22  1  0.39822700  0.66823883  0.39374526  1  0  0.092922  0  0.956844  0  0  0.098087  0  1.026985  0  0  0.100675  0  1.024394  0  0  0.119365  0.096111  0  1.028915  0
H  H23  1  0.89822745  0.83176088  0.10625414  1  0  0.092905  0  0.956901  0  0  0.098079  0  1.027038  0  0  0.100668  0  1.024445  0  0  0.11936  0.096103  0  1.028969  0
H  H24  1  0.08801280  0.40059101  0.60545419  1  0  0.089342  0  0.944009  0  0  0.096252  0  1.011466  0  0  0.098877  0  1.008679  0  0  0.117958  0.094196  0  1.01363  0
H  H25  1  0.58801099  0.09940975  0.89454631  1  0  0.089323  0  0.943982  0  0  0.096238  0  1.011445  0  0  0.098863  0  1.008658  0  0  0.11794  0.09418  0  1.013608  0
H  H26  1  0.91198845  0.59941041  0.39454557  1  0  0.089288  0  0.944011  0  0  0.096202  0  1.011476  0  0  0.098826  0  1.00869  0  0  0.117935  0.094146  0  1.013641  0
H  H27  1  0.41198899  0.90059009  0.10545325  1  0  0.089301  0  0.944001  0  0  0.096218  0  1.011458  0  0  0.098842  0  1.008672  0  0  0.117928  0.09416  0  1.013624  0
H  H28  1  0.09932359  0.43091194  0.44335821  1  0  0.116315  0  0.94727  0  0  0.126653  0  1.005875  0  0  0.130171  0  1.00433  0  0  0.111838  0.124129  0  1.007165  0
H  H29  1  0.59932412  0.06908718  0.05664182  1  0  0.116335  0  0.947258  0  0  0.126658  0  1.005869  0  0  0.130176  0  1.004324  0  0  0.111829  0.124133  0  1.007159  0
H  H30  1  0.90067892  0.56908948  0.55664223  1  0  0.116326  0  0.947286  0  0  0.126667  0  1.005882  0  0  0.130185  0  1.004338  0  0  0.111861  0.124143  0  1.007171  0
H  H31  1  0.40067712  0.93091187  0.94335764  1  0  0.116306  0  0.947283  0  0  0.126639  0  1.005895  0  0  0.130156  0  1.00435  0  0  0.111832  0.124113  0  1.007183  0
H  H32  1  0.37503880  0.40822448  0.36028499  1  0  0.108559  0  0.95242  0  0  0.11589  0  1.019803  0  0  0.119739  0  1.015383  0  0  0.111884  0.112972  0  1.023118  0
H  H33  1  0.87503810  0.09177460  0.13971642  1  0  0.108551  0  0.952416  0  0  0.11589  0  1.019799  0  0  0.119743  0  1.015372  0  0  0.111877  0.112971  0  1.023119  0
H  H34  1  0.62496245  0.59177536  0.63971524  1  0  0.108563  0  0.952402  0  0  0.115899  0  1.019785  0  0  0.119754  0  1.015351  0  0  0.111888  0.112978  0  1.023104  0
H  H35  1  0.12496187  0.90822603  0.86028391  1  0  0.108547  0  0.952415  0  0  0.115884  0  1.019796  0  0  0.11974  0  1.01536  0  0  0.11187  0.112963  0  1.023114  0
H  H36  1  0.60304306  0.32945563  0.89768636  1  0  0.0937  0  0.953297  0  0  0.098918  0  1.025346  0  0  0.101948  0  1.021782  0  0  0.118359  0.096639  0  1.027933  0
H  H37  1  0.10304243  0.17054433  0.60231337  1  0  0.093686  0  0.953326  0  0  0.098875  0  1.025381  0  0  0.101905  0  1.021816  0  0  0.118343  0.096597  0  1.027963  0
H  H38  1  0.39695945  0.67054500  0.10231465  1  0  0.093677  0  0.953328  0  0  0.098895  0  1.025391  0  0  0.101924  0  1.021827  0  0  0.118351  0.096618  0  1.027974  0
H  H39  1  0.89695755  0.82945551  0.39768619  1  0  0.093664  0  0.953321  0  0  0.09886  0  1.025391  0  0  0.10189  0  1.021824  0  0  0.118334  0.096584  0  1.027976  0
H  H40  1  0.08628787  0.39107871  0.91115059  1  0  0.090295  0  0.937968  0  0  0.099973  0  1.001163  0  0  0.10236  0  0.998596  0  0  0.119477  0.098093  0  1.003174  0
H  H41  1  0.58628714  0.10892283  0.58885068  1  0  0.090228  0  0.938086  0  0  0.099976  0  1.001211  0  0  0.102363  0  0.998644  0  0  0.119489  0.098096  0  1.00322  0
H  H42  1  0.91371464  0.60892113  0.08884965  1  0  0.090287  0  0.93801  0  0  0.100031  0  1.001136  0  0  0.102418  0  0.998569  0  0  0.119526  0.098151  0  1.003147  0
H  H43  1  0.41371410  0.89107859  0.41115109  1  0  0.090319  0  0.937981  0  0  0.099998  0  1.001166  0  0  0.102384  0  0.9986  0  0  0.119515  0.098119  0  1.003178  0
H  H44  1  0.09630311  0.43983357  0.07940763  1  0  0.112876  0  0.952583  0  0  0.123438  0  1.011009  0  0  0.126406  0  1.01054  0  0  0.111269  0.1213  0  1.011527  0
H  H45  1  0.59630260  0.06016713  0.42059328  1  0  0.112877  0  0.952607  0  0  0.123434  0  1.01103  0  0  0.126402  0  1.010561  0  0  0.111265  0.121296  0  1.011547  0
H  H46  1  0.90369560  0.56016706  0.92059204  1  0  0.11285  0  0.952604  0  0  0.123413  0  1.011028  0  0  0.12638  0  1.010563  0  0  0.111255  0.121275  0  1.011544  0
H  H47  1  0.40369484  0.93983114  0.57940742  1  0  0.112883  0  0.952614  0  0  0.12343  0  1.011055  0  0  0.126398  0  1.010587  0  0  0.11126  0.121292  0  1.011571  0
H  H48  1  0.37526180  0.43205597  0.15980080  1  0  0.108858  0  0.957146  0  0  0.112145  0  1.031979  0  0  0.116109  0  1.027268  0  0  0.111866  0.10916  0  1.03547  0
H  H49  1  0.87525998  0.06794311  0.34019994  1  0  0.108802  0  0.957161  0  0  0.112099  0  1.031987  0  0  0.116062  0  1.027273  0  0  0.111853  0.109115  0  1.035481  0
H  H50  1  0.62473818  0.56794387  0.84020010  1  0  0.108882  0  0.957139  0  0  0.112175  0  1.031957  0  0  0.116139  0  1.027248  0  0  0.11188  0.109189  0  1.035448  0
H  H51  1  0.12473873  0.93205595  0.65980086  1  0  0.108795  0  0.957116  0  0  0.112092  0  1.031947  0  0  0.116056  0  1.027234  0  0  0.111839  0.109106  0  1.035438  0
C  C52  1  0.67682833  0.34428575  0.43244081  1  0  0.580833  0  3.834373  0  0  0.530605  0  4.127912  0  0  0.563354  0  4.123004  0  0  0.235133  0.508341  0  4.130828  0
C  C53  1  0.17682895  0.15571414  0.06756001  1  0  0.580835  0  3.834384  0  0  0.530579  0  4.127954  0  0  0.56333  0  4.123044  0  0  0.235134  0.508316  0  4.130871  0
C  C54  1  0.32317165  0.65571409  0.56756010  1  0  0.580959  0  3.83417  0  0  0.530636  0  4.127804  0  0  0.563406  0  4.122874  0  0  0.235169  0.508372  0  4.130722  0
C  C55  1  0.82317230  0.84428727  0.93243975  1  0  0.580951  0  3.834232  0  0  0.530655  0  4.127836  0  0  0.563407  0  4.122934  0  0  0.23518  0.508391  0  4.130755  0
C  C56  1  0.81173589  0.30010704  0.28656461  1  0  0.076306  0  3.576412  0  0  0.009716  0  3.848686  0  0  0.018265  0  3.851776  0  0  -0.06553  0.003797  0  3.84677  0
C  C57  1  0.31173531  0.19989284  0.21343556  1  0  0.076347  0  3.576357  0  0  0.00974  0  3.848638  0  0  0.018295  0  3.851739  0  0  -0.065526  0.003827  0  3.846717  0
C  C58  1  0.18826536  0.69989201  0.71343553  1  0  0.076322  0  3.576268  0  0  0.009728  0  3.848548  0  0  0.01827  0  3.851644  0  0  -0.065531  0.00381  0  3.846629  0
C  C59  1  0.68826467  0.80010621  0.78656457  1  0  0.07627  0  3.576459  0  0  0.009773  0  3.8486  0  0  0.018347  0  3.851684  0  0  -0.065512  0.003855  0  3.846686  0
C  C60  1  0.82441683  0.37425261  0.21756749  1  0  0.060883  0  3.598551  0  0  -0.006948  0  3.878902  0  0  0.002005  0  3.880135  0  0  -0.072363  -0.012832  0  3.878053  0
C  C61  1  0.32441632  0.12574805  0.28243345  1  0  0.061012  0  3.598446  0  0  -0.006825  0  3.878826  0  0  0.002129  0  3.880054  0  0  -0.072316  -0.012712  0  3.877978  0
C  C62  1  0.17558315  0.62574723  0.78243408  1  0  0.061073  0  3.598325  0  0  -0.006848  0  3.878776  0  0  0.002105  0  3.880009  0  0  -0.072324  -0.012734  0  3.877928  0
C  C63  1  0.67558239  0.87425100  0.71756668  1  0  0.061119  0  3.598322  0  0  -0.006801  0  3.878755  0  0  0.00215  0  3.879981  0  0  -0.072346  -0.012685  0  3.877904  0
C  C64  1  0.67910965  0.36777104  0.07535352  1  0  0.586185  0  3.828348  0  0  0.534563  0  4.123583  0  0  0.567666  0  4.118327  0  0  0.235112  0.512105  0  4.126751  0
C  C65  1  0.17910923  0.13222806  0.42464585  1  0  0.586207  0  3.828378  0  0  0.534579  0  4.123615  0  0  0.567684  0  4.118355  0  0  0.235097  0.512121  0  4.126784  0
C  C66  1  0.32089033  0.63222880  0.92464738  1  0  0.586136  0  3.828446  0  0  0.53452  0  4.123663  0  0  0.56762  0  4.11841  0  0  0.235094  0.51206  0  4.126831  0
C  C67  1  0.82089075  0.86777099  0.57535361  1  0  0.586155  0  3.828406  0  0  0.534545  0  4.123622  0  0  0.567648  0  4.118365  0  0  0.235124  0.512086  0  4.126793  0
C  C68  1  0.50829493  0.36341188  0.47621134  1  0  -0.118252  0  3.783336  0  0  -0.093633  0  4.020154  0  0  -0.106857  0  4.044749  0  0  -0.013273  -0.085237  0  4.003918  0
C  C69  1  0.00829553  0.13658804  0.02378945  1  0  -0.118215  0  3.783289  0  0  -0.093595  0  4.020132  0  0  -0.106816  0  4.044722  0  0  -0.013286  -0.085199  0  4.003898  0
C  C70  1  0.49170505  0.63658638  0.52378869  1  0  -0.118214  0  3.78327  0  0  -0.093584  0  4.020119  0  0  -0.106806  0  4.044699  0  0  -0.01326  -0.085187  0  4.003882  0
C  C71  1  0.99170572  0.86341259  0.97621021  1  0  -0.118272  0  3.783329  0  0  -0.093648  0  4.020177  0  0  -0.10687  0  4.044772  0  0  -0.013255  -0.085251  0  4.00394  0
C  C72  1  0.49255559  0.35166775  0.56746353  1  0  0.132408  0  3.648883  0  0  0.090619  0  3.892784  0  0  0.099901  0  3.910001  0  0  0.05771  0.084613  0  3.881208  0
C  C73  1  0.99255506  0.14833137  0.93253683  1  0  0.132407  0  3.648896  0  0  0.090589  0  3.892804  0  0  0.09987  0  3.91002  0  0  0.057721  0.084583  0  3.881228  0
C  C74  1  0.50744439  0.64833051  0.43253650  1  0  0.132328  0  3.64887  0  0  0.09054  0  3.892758  0  0  0.099821  0  3.909974  0  0  0.057683  0.084534  0  3.881184  0
C  C75  1  0.00744492  0.85166926  0.06746350  1  0  0.132399  0  3.648939  0  0  0.090593  0  3.892838  0  0  0.099874  0  3.910056  0  0  0.057692  0.084584  0  3.881266  0
C  C76  1  0.20581469  0.39124044  0.56674281  1  0  0.13497  0  3.650485  0  0  0.100021  0  3.900524  0  0  0.108509  0  3.918236  0  0  0.052218  0.094573  0  3.888553  0
C  C77  1  0.70581417  0.10875872  0.93325817  1  0  0.13501  0  3.650487  0  0  0.100054  0  3.900535  0  0  0.108542  0  3.918246  0  0  0.052234  0.094606  0  3.88856  0
C  C78  1  0.79418529  0.60876018  0.43325752  1  0  0.135055  0  3.650441  0  0  0.100096  0  3.900484  0  0  0.108585  0  3.918196  0  0  0.052231  0.094646  0  3.888515  0
C  C79  1  0.29418708  0.89124112  0.06674139  1  0  0.13503  0  3.650434  0  0  0.100069  0  3.900476  0  0  0.108558  0  3.918188  0  0  0.052247  0.09462  0  3.888505  0
C  C80  1  0.21270459  0.40716225  0.47643228  1  0  -0.099849  0  3.702959  0  0  -0.112084  0  3.957209  0  0  -0.119671  0  3.977329  0  0  -0.079479  -0.107384  0  3.943879  0
C  C81  1  0.71270382  0.09283684  0.02356710  1  0  -0.099914  0  3.703009  0  0  -0.112117  0  3.957249  0  0  -0.119704  0  3.977371  0  0  -0.079482  -0.107416  0  3.943917  0
C  C82  1  0.78729539  0.59283837  0.52356805  1  0  -0.099885  0  3.703014  0  0  -0.112119  0  3.957267  0  0  -0.119707  0  3.977389  0  0  -0.079494  -0.107417  0  3.943933  0
C  C83  1  0.28729615  0.90716142  0.97643226  1  0  -0.099869  0  3.702991  0  0  -0.112087  0  3.957231  0  0  -0.119675  0  3.977352  0  0  -0.079485  -0.107386  0  3.943897  0
C  C84  1  0.36601321  0.39318290  0.43009857  1  0  -0.008789  0  3.677008  0  0  -0.044424  0  3.93274  0  0  -0.037941  0  3.948818  0  0  -0.060064  -0.048433  0  3.921908  0
C  C85  1  0.86601374  0.10681618  0.06990150  1  0  -0.008799  0  3.67698  0  0  -0.044451  0  3.932706  0  0  -0.037969  0  3.948784  0  0  -0.060073  -0.048461  0  3.921876  0
C  C86  1  0.63398803  0.60681694  0.56990166  1  0  -0.008793  0  3.677014  0  0  -0.044435  0  3.932741  0  0  -0.037954  0  3.948823  0  0  -0.060071  -0.048441  0  3.921905  0
C  C87  1  0.13398624  0.89318445  0.93009816  1  0  -0.008797  0  3.67702  0  0  -0.044445  0  3.932748  0  0  -0.037961  0  3.948825  0  0  -0.060085  -0.048452  0  3.921911  0
C  C88  1  0.50880304  0.37547732  0.03453322  1  0  -0.119943  0  3.778815  0  0  -0.094699  0  4.013716  0  0  -0.108413  0  4.038668  0  0  -0.013368  -0.085994  0  3.997224  0
C  C89  1  0.00879758  0.12452101  0.46546469  1  0  -0.120052  0  3.778844  0  0  -0.094804  0  4.013738  0  0  -0.108519  0  4.038682  0  0  -0.013322  -0.086098  0  3.997248  0
C  C90  1  0.49119694  0.62452252  0.96546769  1  0  -0.119929  0  3.778855  0  0  -0.094672  0  4.013735  0  0  -0.108385  0  4.038691  0  0  -0.013339  -0.085965  0  3.997242  0
C  C91  1  0.99119732  0.87547724  0.53453333  1  0  -0.119912  0  3.778781  0  0  -0.094675  0  4.013682  0  0  -0.108391  0  4.038631  0  0  -0.013352  -0.085965  0  3.997181  0
C  C92  1  0.49292454  0.35224294  0.94033137  1  0  0.129826  0  3.652281  0  0  0.088403  0  3.895508  0  0  0.097544  0  3.913989  0  0  0.057678  0.082583  0  3.882971  0
C  C93  1  0.99292377  0.14775854  0.55966795  1  0  0.129887  0  3.652328  0  0  0.088523  0  3.895495  0  0  0.097666  0  3.913971  0  0  0.057722  0.082702  0  3.882955  0
C  C94  1  0.50707544  0.64775690  0.05966954  1  0  0.129898  0  3.652312  0  0  0.08847  0  3.895533  0  0  0.097611  0  3.914014  0  0  0.057704  0.082647  0  3.882997  0
C  C95  1  0.00707620  0.85224287  0.44033114  1  0  0.129849  0  3.652293  0  0  0.088462  0  3.895507  0  0  0.097606  0  3.913983  0  0  0.057698  0.082637  0  3.882973  0
C  C96  1  0.20481351  0.38811421  0.94836477  1  0  0.137966  0  3.655853  0  0  0.102976  0  3.906549  0  0  0.112323  0  3.923353  0  0  0.05229  0.097042  0  3.895089  0
C  C97  1  0.70481275  0.11188811  0.55163595  1  0  0.138161  0  3.655742  0  0  0.103107  0  3.906434  0  0  0.112455  0  3.923233  0  0  0.052341  0.097173  0  3.894973  0
C  C98  1  0.79518774  0.61188484  0.05163536  1  0  0.137998  0  3.655703  0  0  0.102971  0  3.906411  0  0  0.112317  0  3.923214  0  0  0.05229  0.097035  0  3.894955  0
C  C99  1  0.29518849  0.88811410  0.44836391  1  0  0.138023  0  3.655811  0  0  0.103041  0  3.906497  0  0  0.112389  0  3.923298  0  0  0.052305  0.097103  0  3.895042  0
C  C100  1  0.21160936  0.41477789  0.04236980  1  0  -0.099599  0  3.694771  0  0  -0.111596  0  3.947372  0  0  -0.11984  0  3.968137  0  0  -0.079401  -0.106453  0  3.933568  0
C  C101  1  0.71160634  0.08522279  0.45763180  1  0  -0.099733  0  3.694923  0  0  -0.111733  0  3.947578  0  0  -0.119976  0  3.968334  0  0  -0.079457  -0.106588  0  3.933772  0
C  C102  1  0.78839188  0.58522194  0.95762976  1  0  -0.099607  0  3.694633  0  0  -0.111625  0  3.947284  0  0  -0.119865  0  3.968048  0  0  -0.079441  -0.106479  0  3.933476  0
C  C103  1  0.28839111  0.91477705  0.54236777  1  0  -0.099692  0  3.694892  0  0  -0.111696  0  3.947524  0  0  -0.119939  0  3.968283  0  0  -0.079449  -0.106549  0  3.933713  0
C  C104  1  0.36574820  0.40918884  0.08655967  1  0  -0.006144  0  3.672531  0  0  -0.040326  0  3.928543  0  0  -0.033974  0  3.945455  0  0  -0.059493  -0.044162  0  3.917005  0
C  C105  1  0.86574388  0.09081023  0.41343973  1  0  -0.005953  0  3.672508  0  0  -0.040139  0  3.928498  0  0  -0.0338  0  3.94545  0  0  -0.059463  -0.043978  0  3.916964  0
C  C106  1  0.63425178  0.59081021  0.91344046  1  0  -0.006165  0  3.672449  0  0  -0.040354  0  3.928498  0  0  -0.033993  0  3.945384  0  0  -0.059499  -0.044188  0  3.916957  0
C  C107  1  0.13425230  0.90918881  0.58655906  1  0  -0.006048  0  3.672434  0  0  -0.04022  0  3.928414  0  0  -0.033877  0  3.945353  0  0  -0.059454  -0.044056  0  3.916869  0
N  N108  1  0.34406460  0.36486222  0.61196220  1  0  -0.294713  0  3.326304  0  0  -0.205069  0  3.609912  0  0  -0.225036  0  3.624846  0  0  -0.342611  -0.191798  0  3.599619  0
N  N109  1  0.84406404  0.13513692  0.88803814  1  0  -0.294685  0  3.326254  0  0  -0.205065  0  3.609893  0  0  -0.225031  0  3.624829  0  0  -0.342596  -0.191793  0  3.599599  0
N  N110  1  0.65593665  0.63513683  0.38803726  1  0  -0.294726  0  3.326245  0  0  -0.205072  0  3.609839  0  0  -0.225037  0  3.624772  0  0  -0.342602  -0.191801  0  3.59955  0
N  N111  1  0.15593720  0.86486371  0.11196152  1  0  -0.294679  0  3.326261  0  0  -0.205028  0  3.60986  0  0  -0.224995  0  3.624795  0  0  -0.342575  -0.191758  0  3.599572  0
N  N112  1  0.34370093  0.35883334  0.89779749  1  0  -0.295488  0  3.311429  0  0  -0.207748  0  3.594391  0  0  -0.228437  0  3.610397  0  0  -0.343087  -0.193944  0  3.583261  0
N  N113  1  0.84370273  0.14116817  0.60220382  1  0  -0.295603  0  3.311394  0  0  -0.207859  0  3.59436  0  0  -0.228548  0  3.610364  0  0  -0.343148  -0.194056  0  3.583231  0
N  N114  1  0.65630032  0.64116650  0.10220274  1  0  -0.295534  0  3.311321  0  0  -0.207807  0  3.594329  0  0  -0.228497  0  3.610334  0  0  -0.34311  -0.194005  0  3.583205  0
N  N115  1  0.15629852  0.85883325  0.39779729  1  0  -0.295521  0  3.311371  0  0  -0.207793  0  3.59433  0  0  -0.228481  0  3.610331  0  0  -0.3431  -0.193991  0  3.58321  0
N  N116  1  0.33801003  0.08850296  0.75602720  1  0  0.696162  0  4.141603  0  0  0.731249  0  4.426687  0  0  0.75949  0  4.433577  0  0  0.091204  0.724852  0  4.403505  0
N  N117  1  0.83800926  0.41149697  0.74397189  1  0  0.696177  0  4.14161  0  0  0.731287  0  4.426673  0  0  0.759526  0  4.433567  0  0  0.091179  0.724885  0  4.403492  0
N  N118  1  0.66198995  0.91149767  0.24397179  1  0  0.696187  0  4.14158  0  0  0.731286  0  4.426662  0  0  0.759525  0  4.433553  0  0  0.091202  0.724894  0  4.403467  0
N  N119  1  0.16198945  0.58850366  0.25602777  1  0  0.696143  0  4.141793  0  0  0.731245  0  4.426857  0  0  0.759484  0  4.433749  0  0  0.09115  0.724817  0  4.403713  0
O  O120  1  0.81156863  0.34572828  0.47327007  1  0  -0.51944  0  1.981741  0  0  -0.480922  0  2.203905  0  0  -0.503159  0  2.202364  0  0  -0.270431  -0.465693  0  2.204723  0
O  O121  1  0.31156796  0.15427317  0.02673030  1  0  -0.519427  0  1.98172  0  0  -0.480903  0  2.20389  0  0  -0.503141  0  2.202347  0  0  -0.270418  -0.465674  0  2.204705  0
O  O122  1  0.18843135  0.65427235  0.52673027  1  0  -0.519487  0  1.981595  0  0  -0.48095  0  2.203793  0  0  -0.503194  0  2.202245  0  0  -0.270455  -0.465721  0  2.204611  0
O  O123  1  0.68843075  0.84572904  0.97327024  1  0  -0.519499  0  1.981597  0  0  -0.480961  0  2.20377  0  0  -0.503198  0  2.202227  0  0  -0.270458  -0.465733  0  2.20459  0
O  O124  1  0.66012693  0.32354217  0.34089093  1  0  -0.316452  0  2.276979  0  0  -0.239894  0  2.513285  0  0  -0.262198  0  2.512805  0  0  -0.163102  -0.22431  0  2.513119  0
O  O125  1  0.16012633  0.17645773  0.15910988  1  0  -0.316499  0  2.276996  0  0  -0.239903  0  2.513288  0  0  -0.262208  0  2.512805  0  0  -0.163108  -0.224322  0  2.513123  0
O  O126  1  0.33987304  0.67645688  0.65910920  1  0  -0.316575  0  2.277019  0  0  -0.239909  0  2.513289  0  0  -0.262235  0  2.512816  0  0  -0.163117  -0.224326  0  2.513123  0
O  O127  1  0.83987238  0.82354290  0.84089045  1  0  -0.31651  0  2.277062  0  0  -0.239884  0  2.513286  0  0  -0.262206  0  2.512811  0  0  -0.163105  -0.224302  0  2.513121  0
O  O128  1  0.66768349  0.36914000  0.16617278  1  0  -0.32243  0  2.291076  0  0  -0.248833  0  2.536726  0  0  -0.270835  0  2.53471  0  0  -0.16502  -0.233623  0  2.537642  0
O  O129  1  0.16768302  0.13085990  0.33382736  1  0  -0.322468  0  2.291083  0  0  -0.248875  0  2.53674  0  0  -0.270874  0  2.53472  0  0  -0.165034  -0.233666  0  2.53766  0
O  O130  1  0.33231649  0.63085984  0.83382812  1  0  -0.322454  0  2.291064  0  0  -0.248845  0  2.53675  0  0  -0.270843  0  2.534726  0  0  -0.165006  -0.233634  0  2.537666  0
O  O131  1  0.83231569  0.86913994  0.66617220  1  0  -0.322453  0  2.291092  0  0  -0.248849  0  2.53678  0  0  -0.270844  0  2.534756  0  0  -0.165006  -0.233642  0  2.5377  0
O  O132  1  0.81226306  0.36168754  0.03257586  1  0  -0.525344  0  1.981757  0  0  -0.484855  0  2.205398  0  0  -0.507249  0  2.203732  0  0  -0.271796  -0.469522  0  2.206297  0
O  O133  1  0.31226140  0.13831234  0.46742430  1  0  -0.525327  0  1.981713  0  0  -0.484837  0  2.205362  0  0  -0.507228  0  2.20369  0  0  -0.271799  -0.469504  0  2.206258  0
O  O134  1  0.18773692  0.63831309  0.96742514  1  0  -0.525325  0  1.981736  0  0  -0.484846  0  2.205384  0  0  -0.507237  0  2.203715  0  0  -0.27182  -0.469514  0  2.206282  0
O  O135  1  0.68773731  0.86168671  0.53257516  1  0  -0.525337  0  1.981734  0  0  -0.484861  0  2.205383  0  0  -0.507251  0  2.203709  0  0  -0.271827  -0.46953  0  2.206282  0
O  O136  1  0.20157386  0.13813608  0.74483730  1  0  -0.500455  0  1.812532  0  0  -0.484499  0  2.067027  0  0  -0.500618  0  2.054413  0  0  -0.204378  -0.477248  0  2.070512  0
O  O137  1  0.70157312  0.36186387  0.75516178  1  0  -0.500469  0  1.812532  0  0  -0.484519  0  2.067017  0  0  -0.500638  0  2.054405  0  0  -0.204373  -0.477265  0  2.070507  0
O  O138  1  0.79842738  0.86186454  0.25516169  1  0  -0.500468  0  1.812452  0  0  -0.484516  0  2.066957  0  0  -0.500634  0  2.054343  0  0  -0.204383  -0.477262  0  2.070443  0
O  O139  1  0.29842812  0.63813676  0.24483788  1  0  -0.500476  0  1.812559  0  0  -0.48453  0  2.06706  0  0  -0.500649  0  2.054448  0  0  -0.204388  -0.477264  0  2.070558  0
O  O140  1  0.33292477  0.99698571  0.77768340  1  0  -0.471368  0  1.714522  0  0  -0.459604  0  1.923517  0  0  -0.474372  0  1.918134  0  0  -0.198107  -0.453209  0  1.921806  0
O  O141  1  0.83292417  0.50301407  0.72231625  1  0  -0.47134  0  1.714464  0  0  -0.459591  0  1.923469  0  0  -0.47436  0  1.918089  0  0  -0.198083  -0.453193  0  1.921758  0
O  O142  1  0.66707394  0.00301413  0.22231616  1  0  -0.47135  0  1.714509  0  0  -0.459605  0  1.92352  0  0  -0.47437  0  1.918137  0  0  -0.198095  -0.453208  0  1.921802  0
O  O143  1  0.16707581  0.49698576  0.27768331  1  0  -0.471409  0  1.714594  0  0  -0.459637  0  1.923581  0  0  -0.474405  0  1.918198  0  0  -0.198104  -0.453234  0  1.921886  0
O  O144  1  0.47969094  0.13291477  0.74542265  1  0  -0.508995  0  1.786887  0  0  -0.494133  0  2.037586  0  0  -0.510167  0  2.02539  0  0  -0.211591  -0.487008  0  2.040868  0
O  O145  1  0.97969020  0.36708514  0.75457781  1  0  -0.509022  0  1.786911  0  0  -0.49417  0  2.037624  0  0  -0.510204  0  2.025431  0  0  -0.211591  -0.48704  0  2.040904  0
O  O146  1  0.52031031  0.86708508  0.25457826  1  0  -0.509008  0  1.7869  0  0  -0.494154  0  2.037615  0  0  -0.510187  0  2.02542  0  0  -0.211586  -0.487027  0  2.040891  0
O  O147  1  0.02030851  0.63291469  0.24542175  1  0  -0.508892  0  1.786911  0  0  -0.494041  0  2.037614  0  0  -0.510075  0  2.025423  0  0  -0.211519  -0.4869  0  2.040904  0
