# generated using pymatgen
data_ZnH13C21N2O5
_symmetry_space_group_name_H-M   'P 1'
_cell_length_a   11.28388830
_cell_length_b   11.28388771
_cell_length_c   15.31090954
_cell_angle_alpha   94.42442619
_cell_angle_beta   94.42589069
_cell_angle_gamma   92.06229762
_symmetry_Int_Tables_number   1
_chemical_formula_structural   ZnH13C21N2O5
_chemical_formula_sum   'Zn4 H52 C84 N8 O20'
_cell_volume   1936.14773816
_cell_formula_units_Z   4
loop_
 _symmetry_equiv_pos_site_id
 _symmetry_equiv_pos_as_xyz
  1  'x, y, z'
loop_
 _atom_site_type_symbol
 _atom_site_label
 _atom_site_symmetry_multiplicity
 _atom_site_fract_x
 _atom_site_fract_y
 _atom_site_fract_z
 _atom_site_occupancy
 _atom_site_pbe_bader_charge
 _atom_site_pbe_bader_spin_density
 _atom_site_pbe_cm5_charge
 _atom_site_pbe_ddec_charge
 _atom_site_pbe_ddec_spin_density
 _atom_site_pbe_ddec_sum_bond_order
 _atom_site_pbe_magmom
Zn  Zn0  1  0.66951734  0.09017692  0.33424980  1  1.256862  0  0.692075  0.773999  0  2.323042  0
Zn  Zn1  1  0.90981068  0.33048287  0.16573084  1  1.257103  0  0.692019  0.773987  0  2.322914  0
Zn  Zn2  1  0.33049325  0.90980577  0.66575969  1  1.256812  0  0.692041  0.774069  0  2.322969  0
Zn  Zn3  1  0.09020458  0.66951506  0.83427993  1  1.257034  0  0.691917  0.773871  0  2.323091  0
H  H4  1  0.05411304  0.94589591  0.75000265  1  0.132898  0  0.106328  0.116493  0  1.015192  0
H  H5  1  0.94588104  0.05410512  0.24999847  1  0.132883  0  0.106328  0.116513  0  1.015235  0
H  H6  1  0.93810382  0.98102132  0.87997547  1  0.114414  0  0.105442  0.13282  0  1.015608  0
H  H7  1  0.01897156  0.06190629  0.62002244  1  0.114499  0  0.105432  0.132831  0  1.015428  0
H  H8  1  0.06190253  0.01897461  0.12003330  1  0.11429  0  0.105364  0.132795  0  1.015566  0
H  H9  1  0.98102251  0.93809297  0.37997791  1  0.114402  0  0.105435  0.132744  0  1.015582  0
H  H10  1  0.74752624  0.25245960  0.74999458  1  0.09134  0  0.115105  0.151854  0  0.972692  0
H  H11  1  0.25247468  0.74752996  0.25001342  1  0.091251  0  0.115152  0.152001  0  0.972562  0
H  H12  1  0.65136700  0.96375462  0.81156202  1  0.092277  0  0.101163  0.113757  0  1.035297  0
H  H13  1  0.03623071  0.34862515  0.68841997  1  0.092636  0  0.10115  0.113687  0  1.035542  0
H  H14  1  0.34863252  0.03625102  0.18843778  1  0.092142  0  0.10117  0.113722  0  1.035337  0
H  H15  1  0.96377988  0.65136105  0.31159301  1  0.092908  0  0.101144  0.113735  0  1.035455  0
H  H16  1  0.53503638  0.81113601  0.88373603  1  0.067398  0  0.100535  0.098173  0  1.003562  0
H  H17  1  0.18887315  0.46495182  0.61625999  1  0.067531  0  0.100592  0.098253  0  1.003548  0
H  H18  1  0.46494635  0.18887981  0.11626661  1  0.067119  0  0.100578  0.098257  0  1.003542  0
H  H19  1  0.81113579  0.53503621  0.38374582  1  0.067575  0  0.100548  0.098235  0  1.003548  0
H  H20  1  0.53951398  0.82331437  0.04840226  1  0.071377  0  0.103126  0.110323  0  1.00765  0
H  H21  1  0.17668770  0.46048478  0.45158813  1  0.070381  0  0.103098  0.110312  0  1.00759  0
H  H22  1  0.46048662  0.17670813  0.95160327  1  0.071293  0  0.103085  0.110298  0  1.007612  0
H  H23  1  0.82330600  0.53949221  0.54841273  1  0.070808  0  0.103166  0.110366  0  1.007646  0
H  H24  1  0.76709933  0.85725487  0.40065344  1  0.11676  0  0.124318  0.097524  0  0.97852  0
H  H25  1  0.14271793  0.23289111  0.09931936  1  0.116856  0  0.124326  0.097473  0  0.978519  0
H  H26  1  0.23288975  0.14269907  0.59933323  1  0.116903  0  0.124332  0.097451  0  0.978805  0
H  H27  1  0.85731952  0.76713102  0.90065911  1  0.11663  0  0.124323  0.097482  0  0.978702  0
H  H28  1  0.67778404  0.67111845  0.45116056  1  0.097906  0  0.105757  0.109285  0  1.038648  0
H  H29  1  0.32884945  0.32219765  0.04880117  1  0.097942  0  0.105909  0.109583  0  1.038418  0
H  H30  1  0.32217170  0.32883504  0.54879128  1  0.097387  0  0.105981  0.109667  0  1.038387  0
H  H31  1  0.67115305  0.67785392  0.95116519  1  0.097691  0  0.105779  0.109473  0  1.03841  0
H  H32  1  0.45641029  0.66136530  0.47048827  1  0.072956  0  0.115978  0.115701  0  0.964454  0
H  H33  1  0.33861737  0.54357467  0.02949615  1  0.072717  0  0.115897  0.11563  0  0.964493  0
H  H34  1  0.54355017  0.33860785  0.52946644  1  0.072762  0  0.115815  0.115424  0  0.964691  0
H  H35  1  0.66136260  0.45648213  0.97049653  1  0.07283  0  0.115964  0.115656  0  0.964563  0
H  H36  1  0.33756226  0.83286355  0.43559690  1  0.1096  0  0.111086  0.119407  0  1.053993  0
H  H37  1  0.16715159  0.66242926  0.06441997  1  0.109563  0  0.111103  0.119463  0  1.054169  0
H  H38  1  0.66242039  0.16713817  0.56439503  1  0.108794  0  0.111067  0.119368  0  1.054185  0
H  H39  1  0.83283181  0.33759511  0.93560874  1  0.109248  0  0.110975  0.119298  0  1.054125  0
H  H40  1  0.25304424  0.99027990  0.41675919  1  0.101532  0  0.112832  0.122392  0  1.020647  0
H  H41  1  0.00975549  0.74697426  0.08324539  1  0.101644  0  0.11279  0.122214  0  1.020636  0
H  H42  1  0.74695553  0.00972950  0.58322715  1  0.101454  0  0.112865  0.122286  0  1.020754  0
H  H43  1  0.99022641  0.25304684  0.91675950  1  0.101084  0  0.112767  0.122083  0  1.020958  0
H  H44  1  0.15511525  0.16816803  0.36550273  1  0.115135  0  0.113545  0.11378  0  1.001258  0
H  H45  1  0.83185479  0.84490551  0.13448641  1  0.114855  0  0.113543  0.113785  0  1.001195  0
H  H46  1  0.84490777  0.83184824  0.63448359  1  0.114741  0  0.113544  0.113792  0  1.001205  0
H  H47  1  0.16811057  0.15508222  0.86551724  1  0.114521  0  0.113507  0.113708  0  1.001215  0
H  H48  1  0.27454049  0.32384735  0.29957319  1  0.144497  0  0.111884  0.131668  0  1.018057  0
H  H49  1  0.67617481  0.72548129  0.20041497  1  0.144425  0  0.111887  0.131894  0  1.017833  0
H  H50  1  0.72549833  0.67616827  0.70042782  1  0.143745  0  0.111853  0.13177  0  1.017929  0
H  H51  1  0.32381336  0.27449010  0.79959366  1  0.144103  0  0.111866  0.131855  0  1.018017  0
H  H52  1  0.49496124  0.29145348  0.28737708  1  0.07872  0  0.125033  0.094313  0  0.963277  0
H  H53  1  0.70855790  0.50506396  0.21262016  1  0.07873  0  0.124957  0.094229  0  0.963265  0
H  H54  1  0.50507997  0.70855844  0.71263952  1  0.079006  0  0.12493  0.094203  0  0.963193  0
H  H55  1  0.29145789  0.49491436  0.78739396  1  0.078555  0  0.124851  0.094206  0  0.963257  0
C  C56  1  0.98700547  0.01298664  0.74999919  1  0.002141  0  -0.082474  -0.021511  0  3.986009  0
C  C57  1  0.01298413  0.98701598  0.25000632  1  0.002422  0  -0.082517  -0.021647  0  3.986088  0
C  C58  1  0.92032351  0.03103825  0.82264424  1  -0.005416  0  -0.109099  -0.230728  0  3.986299  0
C  C59  1  0.96895134  0.07966892  0.67735516  1  -0.005072  0  -0.109078  -0.230614  0  3.985809  0
C  C60  1  0.07966946  0.96895727  0.17736690  1  -0.005254  0  -0.109054  -0.230646  0  3.985805  0
C  C61  1  0.03103830  0.92033287  0.32264638  1  -0.005492  0  -0.109106  -0.230412  0  3.986272  0
C  C62  1  0.83487233  0.11747522  0.82157538  1  0.344377  0  0.077184  0.260107  0  4.084212  0
C  C63  1  0.88251757  0.16512731  0.67842047  1  0.343357  0  0.077201  0.259921  0  4.084077  0
C  C64  1  0.16514126  0.88253066  0.17843645  1  0.344123  0  0.077364  0.260068  0  4.083675  0
C  C65  1  0.11747653  0.83487724  0.32158349  1  0.34365  0  0.077289  0.260006  0  4.084089  0
C  C66  1  0.81453336  0.18544840  0.74999495  1  0.012516  0  -0.110934  -0.312299  0  3.970082  0
C  C67  1  0.18547663  0.81455383  0.25001576  1  0.012721  0  -0.11105  -0.312494  0  3.969959  0
C  C68  1  0.71703276  0.05661112  0.93433869  1  0.419927  0  0.085452  0.228671  0  4.016448  0
C  C69  1  0.94338082  0.28297145  0.56564707  1  0.420632  0  0.085379  0.228554  0  4.015982  0
C  C70  1  0.28297547  0.94338845  0.06566782  1  0.420458  0  0.085381  0.228501  0  4.016492  0
C  C71  1  0.05662736  0.71702719  0.43436199  1  0.420433  0  0.08536  0.228554  0  4.016025  0
C  C72  1  0.65326683  0.96498148  0.88278154  1  0.020757  0  -0.098257  -0.183856  0  3.999553  0
C  C73  1  0.03501159  0.34673299  0.61720732  1  0.020533  0  -0.098227  -0.183735  0  3.999695  0
C  C74  1  0.34672736  0.03502841  0.11722211  1  0.020283  0  -0.098142  -0.183585  0  3.999401  0
C  C75  1  0.96500249  0.65324974  0.38280631  1  0.016049  0  -0.098167  -0.183712  0  3.999934  0
C  C76  1  0.58959312  0.87999401  0.92362771  1  -0.050853  0  -0.094306  -0.074798  0  4.055075  0
C  C77  1  0.12000615  0.41040281  0.57636679  1  -0.051024  0  -0.094312  -0.074851  0  4.055101  0
C  C78  1  0.41039141  0.12002449  0.07637718  1  -0.050341  0  -0.094446  -0.075017  0  4.055278  0
C  C79  1  0.88000795  0.58957731  0.42364277  1  -0.046106  0  -0.094249  -0.074935  0  4.055679  0
C  C80  1  0.64605250  0.98331423  0.16462913  1  1.552427  0  0.196686  0.553229  0  4.2365  0
C  C81  1  0.01667868  0.35394411  0.33535938  1  1.552557  0  0.196852  0.553553  0  4.236098  0
C  C82  1  0.35395828  0.01668180  0.83538123  1  1.553426  0  0.196562  0.553236  0  4.236405  0
C  C83  1  0.98333136  0.64605116  0.66463978  1  1.552558  0  0.196692  0.553156  0  4.236178  0
C  C84  1  0.59087787  0.88681870  0.01487343  1  -0.025579  0  -0.092759  -0.120031  0  4.011811  0
C  C85  1  0.11318385  0.40911226  0.48511894  1  -0.024703  0  -0.092704  -0.119975  0  4.011281  0
C  C86  1  0.40911900  0.11319215  0.98513111  1  -0.025453  0  -0.09262  -0.119896  0  4.011705  0
C  C87  1  0.88681251  0.59087005  0.51488896  1  -0.025083  0  -0.09291  -0.120172  0  4.011757  0
C  C88  1  0.65450514  0.97918597  0.06667707  1  0.009992  0  -0.016313  -0.046556  0  3.960613  0
C  C89  1  0.02080095  0.34548290  0.43331063  1  0.009756  0  -0.016437  -0.046892  0  3.960458  0
C  C90  1  0.34550038  0.02081174  0.93332980  1  0.010028  0  -0.016391  -0.046727  0  3.960559  0
C  C91  1  0.97919292  0.65450565  0.56669164  1  0.009087  0  -0.016244  -0.046325  0  3.960311  0
C  C92  1  0.71922158  0.06593608  0.02623664  1  -0.02759  0  -0.009988  -0.123124  0  3.903353  0
C  C93  1  0.93403733  0.28078593  0.47375014  1  -0.02804  0  -0.009892  -0.122711  0  3.902922  0
C  C94  1  0.28079358  0.93405386  0.97377231  1  -0.027027  0  -0.009974  -0.123075  0  3.903447  0
C  C95  1  0.06596082  0.71919732  0.52625794  1  -0.027695  0  -0.009898  -0.122846  0  3.902958  0
C  C96  1  0.79255887  0.16657461  0.07627728  1  1.595696  0  0.196941  0.597555  0  4.213012  0
C  C97  1  0.83339447  0.20746130  0.42370193  1  1.594965  0  0.197041  0.597579  0  4.2136  0
C  C98  1  0.20745565  0.83342694  0.92372714  1  1.595346  0  0.196877  0.597407  0  4.213527  0
C  C99  1  0.16659432  0.79254575  0.57630315  1  1.595249  0  0.197016  0.597477  0  4.213634  0
C  C100  1  0.67204536  0.84770715  0.40847517  1  0.490044  0  0.061255  0.115644  0  3.927846  0
C  C101  1  0.15226855  0.32794576  0.09150425  1  0.489264  0  0.061266  0.115992  0  3.927668  0
C  C102  1  0.32793233  0.15224840  0.59150043  1  0.488307  0  0.061314  0.116091  0  3.927969  0
C  C103  1  0.84775266  0.67208358  0.90849846  1  0.488414  0  0.061318  0.115905  0  3.928227  0
C  C104  1  0.62125872  0.74417519  0.43635948  1  0.011291  0  -0.080953  -0.129334  0  3.968167  0
C  C105  1  0.25579749  0.37871638  0.06361137  1  0.011476  0  -0.081061  -0.129906  0  3.96803  0
C  C106  1  0.37869608  0.25578347  0.56360242  1  0.012421  0  -0.081138  -0.130021  0  3.967671  0
C  C107  1  0.74420267  0.62131793  0.93637529  1  0.011882  0  -0.080941  -0.129475  0  3.967654  0
C  C108  1  0.49964437  0.73922326  0.44665839  1  -0.013453  0  -0.06011  -0.011962  0  3.944286  0
C  C109  1  0.26075945  0.50034017  0.05332438  1  -0.013213  0  -0.059989  -0.011683  0  3.944064  0
C  C110  1  0.50031604  0.26075421  0.55330574  1  -0.012953  0  -0.060051  -0.011597  0  3.943937  0
C  C111  1  0.73922210  0.49970072  0.94666412  1  -0.01282  0  -0.060264  -0.01215  0  3.944461  0
C  C112  1  0.43243649  0.83649122  0.42753391  1  0.006339  0  -0.075458  -0.145747  0  3.904944  0
C  C113  1  0.16350821  0.56756101  0.07246490  1  0.006441  0  -0.0756  -0.146036  0  3.905368  0
C  C114  1  0.56755070  0.16351246  0.57245452  1  0.007027  0  -0.075408  -0.145787  0  3.905056  0
C  C115  1  0.83647028  0.43246628  0.92753625  1  0.005927  0  -0.075221  -0.145509  0  3.905028  0
C  C116  1  0.48896995  0.93677566  0.39856114  1  0.451203  0  0.123345  0.171005  0  3.971201  0
C  C117  1  0.06323125  0.51102869  0.10143977  1  0.451433  0  0.123478  0.171354  0  3.971426  0
C  C118  1  0.51103044  0.06323086  0.60144138  1  0.451279  0  0.123417  0.171217  0  3.971336  0
C  C119  1  0.93675853  0.48897937  0.89855891  1  0.452144  0  0.123411  0.171331  0  3.971395  0
C  C120  1  0.42440476  0.04302790  0.37425354  1  0.48954  0  0.122192  0.163459  0  3.979963  0
C  C121  1  0.95698854  0.57559634  0.12574479  1  0.489792  0  0.122205  0.163358  0  3.98029  0
C  C122  1  0.57560109  0.95698327  0.62574571  1  0.49023  0  0.122202  0.163414  0  3.979943  0
C  C123  1  0.04300199  0.42440635  0.87425751  1  0.489964  0  0.122144  0.163177  0  3.980381  0
C  C124  1  0.30373483  0.05657084  0.38565772  1  0.014154  0  -0.073256  -0.150418  0  3.931337  0
C  C125  1  0.94344554  0.69627502  0.11433077  1  0.0144  0  -0.073353  -0.150291  0  3.930942  0
C  C126  1  0.69627018  0.94342723  0.61432235  1  0.014736  0  -0.073444  -0.150459  0  3.931423  0
C  C127  1  0.05653611  0.30372743  0.88567095  1  0.014295  0  -0.073365  -0.150125  0  3.931185  0
C  C128  1  0.24921825  0.15723015  0.35762655  1  -0.032805  0  -0.058187  -0.008511  0  3.929468  0
C  C129  1  0.84278465  0.75079905  0.14235956  1  -0.033096  0  -0.057983  -0.008332  0  3.929533  0
C  C130  1  0.75080734  0.84277822  0.64235746  1  -0.032604  0  -0.057982  -0.008292  0  3.929601  0
C  C131  1  0.15719146  0.24919431  0.85764514  1  -0.032544  0  -0.057911  -0.008253  0  3.929562  0
C  C132  1  0.31627596  0.24400498  0.32078395  1  -0.021805  0  -0.077583  -0.129859  0  3.940066  0
C  C133  1  0.75601342  0.68374943  0.17920861  1  -0.021075  0  -0.077722  -0.130279  0  3.940392  0
C  C134  1  0.68376731  0.75601076  0.67921735  1  -0.021283  0  -0.077682  -0.130037  0  3.940264  0
C  C135  1  0.24397589  0.31623801  0.82080047  1  -0.02084  0  -0.0777  -0.130136  0  3.940326  0
C  C136  1  0.43686288  0.22613178  0.31392102  1  0.466948  0  0.055919  0.098798  0  3.952026  0
C  C137  1  0.77387796  0.56316671  0.18607907  1  0.466369  0  0.056048  0.099024  0  3.95195  0
C  C138  1  0.56318188  0.77387147  0.68608610  1  0.466078  0  0.056052  0.098886  0  3.951517  0
C  C139  1  0.22611762  0.43682532  0.81393266  1  0.466781  0  0.056201  0.098957  0  3.951771  0
N  N140  1  0.48894439  0.12802857  0.33922827  1  -1.24628  0  -0.320524  -0.265615  0  3.546398  0
N  N141  1  0.87197946  0.51107385  0.16077632  1  -1.246546  0  -0.320565  -0.265731  0  3.54656  0
N  N142  1  0.51107716  0.87197221  0.66078178  1  -1.246508  0  -0.320593  -0.26574  0  3.546091  0
N  N143  1  0.12801894  0.48892366  0.83923073  1  -1.246482  0  -0.320597  -0.265658  0  3.546753  0
N  N144  1  0.60747577  0.94121447  0.39041132  1  -1.241849  0  -0.322037  -0.264519  0  3.583848  0
N  N145  1  0.05877730  0.39252348  0.10958385  1  -1.241624  0  -0.322123  -0.264797  0  3.583873  0
N  N146  1  0.39252346  0.05876987  0.60958448  1  -1.241153  0  -0.322068  -0.264717  0  3.583916  0
N  N147  1  0.94123025  0.60748853  0.89042210  1  -1.240905  0  -0.322062  -0.264822  0  3.58439  0
O  O148  1  0.58836741  0.90273863  0.19637564  1  -1.172853  0  -0.330861  -0.552078  0  2.135959  0
O  O149  1  0.09726296  0.41162410  0.30361985  1  -1.172757  0  -0.330888  -0.552128  0  2.136047  0
O  O150  1  0.41164456  0.09727348  0.80363256  1  -1.173255  0  -0.330767  -0.552056  0  2.135498  0
O  O151  1  0.90273801  0.58835237  0.69636968  1  -1.17267  0  -0.330864  -0.552067  0  2.13581  0
O  O152  1  0.70043468  0.07446733  0.20997242  1  -1.153986  0  -0.325165  -0.529791  0  2.331164  0
O  O153  1  0.92551773  0.29957115  0.29001213  1  -1.154183  0  -0.325291  -0.530039  0  2.330823  0
O  O154  1  0.29959204  0.92552117  0.79003522  1  -1.154402  0  -0.32506  -0.529759  0  2.331391  0
O  O155  1  0.07448579  0.70041228  0.70999369  1  -1.154157  0  -0.32519  -0.529916  0  2.330957  0
O  O156  1  0.74644072  0.26652702  0.09419451  1  -1.160811  0  -0.333539  -0.552121  0  2.154723  0
O  O157  1  0.73343970  0.25357017  0.40578520  1  -1.160514  0  -0.33356  -0.552146  0  2.154865  0
O  O158  1  0.25357357  0.73347518  0.90582692  1  -1.161298  0  -0.333502  -0.552016  0  2.154896  0
O  O159  1  0.26655561  0.74645048  0.59421464  1  -1.160462  0  -0.333611  -0.552151  0  2.155244  0
O  O160  1  0.90238018  0.15121295  0.09584061  1  -1.167264  0  -0.319701  -0.544617  0  2.170464  0
O  O161  1  0.84875243  0.09764271  0.40413971  1  -1.166687  0  -0.319768  -0.54472  0  2.171112  0
O  O162  1  0.09763730  0.84879072  0.90414520  1  -1.167016  0  -0.319615  -0.544454  0  2.170743  0
O  O163  1  0.15122123  0.90236217  0.59586296  1  -1.167333  0  -0.319786  -0.544731  0  2.170992  0
O  O164  1  0.77427300  0.14748365  0.89541946  1  -1.110801  0  -0.157661  -0.22518  0  2.580758  0
O  O165  1  0.85251072  0.22572590  0.60457363  1  -1.11102  0  -0.157651  -0.225147  0  2.580571  0
O  O166  1  0.22575120  0.85251631  0.10459136  1  -1.111161  0  -0.157698  -0.225085  0  2.580646  0
O  O167  1  0.14748687  0.77427079  0.39542678  1  -1.110979  0  -0.157646  -0.22517  0  2.580539  0
