# generated using pymatgen
data_ZnH7C7(NO)3
_symmetry_space_group_name_H-M   'P 1'
_cell_length_a   10.21204656
_cell_length_b   14.12224495
_cell_length_c   14.12174015
_cell_angle_alpha   114.39233925
_cell_angle_beta   103.95331587
_cell_angle_gamma   103.94561831
_symmetry_Int_Tables_number   1
_chemical_formula_structural   ZnH7C7(NO)3
_chemical_formula_sum   'Zn6 H42 C42 N18 O18'
_cell_volume   1661.06850155
_cell_formula_units_Z   6
loop_
 _symmetry_equiv_pos_site_id
 _symmetry_equiv_pos_as_xyz
  1  'x, y, z'
loop_
 _atom_site_type_symbol
 _atom_site_label
 _atom_site_symmetry_multiplicity
 _atom_site_fract_x
 _atom_site_fract_y
 _atom_site_fract_z
 _atom_site_occupancy
 _atom_site_pbe_bader_charge
 _atom_site_pbe_bader_spin_density
 _atom_site_pbe_cm5_charge
 _atom_site_pbe_ddec_charge
 _atom_site_pbe_ddec_spin_density
 _atom_site_pbe_ddec_sum_bond_order
 _atom_site_pbe_magmom
Zn  Zn0  1  0.48504864  0.38238791  0.66838899  1  1.260708  0  0.722917  0.762958  0  2.46293  0
Zn  Zn1  1  0.81645900  0.33145033  0.71404599  1  1.257879  0  0.722527  0.762002  0  2.464257  0
Zn  Zn2  1  0.10259423  0.28596004  0.61753765  1  1.263597  0  0.723164  0.76279  0  2.461632  0
Zn  Zn3  1  0.31752570  0.71265070  0.32513577  1  1.261904  0  0.724332  0.76258  0  2.45714  0
Zn  Zn4  1  0.99260946  0.67497777  0.38754016  1  1.264356  0  0.72393  0.761761  0  2.458347  0
Zn  Zn5  1  0.60485428  0.61241563  0.28728927  1  1.265661  0  0.724505  0.762805  0  2.457216  0
H  H6  1  0.08108907  0.10865944  0.28784123  1  0.090794  0  0.12067  0.087466  0  0.95649  0
H  H7  1  0.79281193  0.71188022  0.82083294  1  0.092373  0  0.12163  0.089272  0  0.955744  0
H  H8  1  0.97182155  0.17910625  0.89098965  1  0.088737  0  0.121718  0.088108  0  0.956961  0
H  H9  1  0.23699509  0.00530209  0.32914287  1  0.034838  0  0.095795  0.13865  0  0.987751  0
H  H10  1  0.90707056  0.67083890  0.67595063  1  0.075203  0  0.096045  0.139158  0  0.988364  0
H  H11  1  0.23080286  0.32411321  0.99497142  1  0.043359  0  0.096469  0.138962  0  0.988474  0
H  H12  1  0.22473298  0.00462496  0.20092434  1  0.031438  0  0.097622  0.13976  0  0.986222  0
H  H13  1  0.02300378  0.79905111  0.80356728  1  0.030847  0  0.097811  0.139929  0  0.985922  0
H  H14  1  0.21940551  0.19664613  0.99575276  1  0.044582  0  0.097688  0.13993  0  0.986387  0
H  H15  1  0.38621904  0.09782565  0.32503208  1  0.020708  0  0.094267  0.131381  0  1.013458  0
H  H16  1  0.06069404  0.67506629  0.77247489  1  0.046804  0  0.094889  0.132242  0  1.012308  0
H  H17  1  0.28824743  0.22774194  0.90288024  1  0.053638  0  0.095304  0.132608  0  1.012867  0
H  H18  1  0.34947890  0.24770762  0.28610336  1  0.486698  0  0.308077  0.279997  0  0.972764  0
H  H19  1  0.06328411  0.71372914  0.96136627  1  0.498156  0  0.308884  0.280183  0  0.971341  0
H  H20  1  0.10184976  0.03852633  0.75245816  1  0.504855  0  0.308071  0.277976  0  0.973394  0
H  H21  1  0.45263571  0.37565410  0.24690353  1  0.202897  0  0.12167  0.120113  0  1.080978  0
H  H22  1  0.20602292  0.75335429  0.12898155  1  0.198387  0  0.122031  0.120089  0  1.079268  0
H  H23  1  0.07706143  0.87092859  0.62444919  1  0.175805  0  0.121722  0.119807  0  1.080799  0
H  H24  1  0.09384183  0.48186611  0.28370104  1  0.156127  0  0.116261  0.109269  0  1.051431  0
H  H25  1  0.81009817  0.71622415  0.19793630  1  0.154922  0  0.117796  0.112626  0  1.049178  0
H  H26  1  0.61215656  0.80199560  0.51800409  1  0.158175  0  0.117569  0.112774  0  1.048862  0
H  H27  1  0.70129110  0.88270584  0.20818739  1  0.064524  0  0.125207  0.088317  0  0.928808  0
H  H28  1  0.49356285  0.79207611  0.67474744  1  0.07716  0  0.125939  0.089817  0  0.92857  0
H  H29  1  0.81894350  0.32533010  0.11750522  1  0.077436  0  0.126215  0.08948  0  0.929392  0
H  H30  1  0.58478359  0.00612670  0.30294060  1  0.051638  0  0.089639  0.128327  0  1.005928  0
H  H31  1  0.28225004  0.69699198  0.70321948  1  0.062645  0  0.089374  0.128012  0  1.00598  0
H  H32  1  0.57895008  0.29651768  0.99377837  1  0.056554  0  0.089213  0.127273  0  1.006916  0
H  H33  1  0.57661632  0.00173900  0.17377383  1  0.032765  0  0.091248  0.132397  0  0.993828  0
H  H34  1  0.40304625  0.82622237  0.82801949  1  0.048887  0  0.091634  0.133114  0  0.99282  0
H  H35  1  0.57543079  0.17188023  0.99836843  1  0.05445  0  0.091741  0.133488  0  0.991951  0
H  H36  1  0.41749598  0.92539573  0.18218332  1  0.057247  0  0.091191  0.131272  0  1.035662  0
H  H37  1  0.23539660  0.81757162  0.74311353  1  0.059229  0  0.091685  0.131278  0  1.034431  0
H  H38  1  0.49234070  0.25654100  0.07447967  1  0.08055  0  0.091275  0.131493  0  1.037078  0
H  H39  1  0.61009266  0.75159602  0.03130333  1  0.50841  0  0.30114  0.274216  0  1.012929  0
H  H40  1  0.57870819  0.96885539  0.72039402  1  0.510893  0  0.30189  0.276567  0  1.011698  0
H  H41  1  0.85853093  0.27984926  0.24873639  1  0.516943  0  0.302474  0.277965  0  1.009518  0
H  H42  1  0.57692949  0.62440904  0.86252043  1  0.150317  0  0.119277  0.114883  0  1.067657  0
H  H43  1  0.71392848  0.13715398  0.76154885  1  0.166527  0  0.118741  0.113818  0  1.066366  0
H  H44  1  0.95264879  0.23880191  0.37587392  1  0.164685  0  0.119367  0.115433  0  1.066664  0
H  H45  1  0.11915192  0.51594720  0.81413196  1  0.151401  0  0.118026  0.111606  0  1.046056  0
H  H46  1  0.30476643  0.18592062  0.70189900  1  0.162387  0  0.117553  0.111684  0  1.046208  0
H  H47  1  0.60273743  0.29775484  0.48405224  1  0.156181  0  0.117904  0.110768  0  1.046174  0
C  C48  1  0.25300604  0.22020321  0.45134182  1  1.591522  0  0.233767  0.595524  0  4.082813  0
C  C49  1  0.80143972  0.54844532  0.76865527  1  1.576974  0  0.234555  0.598899  0  4.082791  0
C  C50  1  0.03282274  0.23123591  0.77979116  1  1.530139  0  0.232362  0.595359  0  4.08087  0
C  C51  1  0.20076810  0.14799120  0.32221859  1  0.35396  0  0.014716  0.069993  0  3.883614  0
C  C52  1  0.87819894  0.67757230  0.82563081  1  0.369004  0  0.01522  0.066982  0  3.885209  0
C  C53  1  0.05250023  0.17430983  0.85197367  1  0.36516  0  0.013665  0.068363  0  3.886289  0
C  C54  1  0.26651986  0.05851942  0.29274363  1  -0.002003  0  -0.235182  -0.402593  0  3.904151  0
C  C55  1  0.97315967  0.70722293  0.76554786  1  -0.07174  0  -0.236837  -0.404242  0  3.904547  0
C  C56  1  0.20749870  0.23453266  0.94183765  1  -0.042566  0  -0.236328  -0.403565  0  3.906738  0
C  C57  1  0.16396517  0.28413454  0.26538025  1  1.383184  0  0.238735  0.500217  0  4.171371  0
C  C58  1  0.89864771  0.73458638  0.01869259  1  1.37974  0  0.237871  0.498998  0  4.173792  0
C  C59  1  0.87986588  0.98126408  0.71576411  1  1.383809  0  0.238675  0.499507  0  4.172269  0
C  C60  1  0.23820711  0.38308828  0.25974108  1  -0.023992  0  -0.044177  -0.149913  0  4.07024  0
C  C61  1  0.97863341  0.74033402  0.12334009  1  -0.077307  0  -0.044384  -0.150997  0  4.070781  0
C  C62  1  0.85526943  0.87663221  0.61686176  1  0.004715  0  -0.045376  -0.151462  0  4.071703  0
C  C63  1  0.37683547  0.41817153  0.25616377  1  0.404535  0  0.021086  -0.014941  0  3.952166  0
C  C64  1  0.12086238  0.74400755  0.16212032  1  0.442538  0  0.019644  -0.013651  0  3.951602  0
C  C65  1  0.95875569  0.83780848  0.58187458  1  0.43764  0  0.020846  -0.012399  0  3.950332  0
C  C66  1  0.19350023  0.47306113  0.27424455  1  0.408005  0  0.02087  0.001481  0  3.941237  0
C  C67  1  0.91930786  0.72578815  0.19874431  1  0.426311  0  0.020413  -0.001265  0  3.939566  0
C  C68  1  0.72058589  0.80123468  0.52681978  1  0.400894  0  0.020023  -0.002244  0  3.940311  0
C  C69  1  0.53949051  0.77798063  0.23012572  1  1.593208  0  0.235541  0.590998  0  4.082904  0
C  C70  1  0.30965968  0.76988266  0.54790226  1  1.571105  0  0.235857  0.591507  0  4.080768  0
C  C71  1  0.76181339  0.45217343  0.22195649  1  1.585772  0  0.235711  0.589152  0  4.088293  0
C  C72  1  0.58104896  0.85162108  0.17721050  1  0.360642  0  0.020948  0.08354  0  3.858857  0
C  C73  1  0.40410003  0.82283676  0.67451693  1  0.354325  0  0.020225  0.080179  0  3.862415  0
C  C74  1  0.72969325  0.32557013  0.14846378  1  0.339135  0  0.019438  0.082543  0  3.862405  0
C  C75  1  0.53624683  0.95214379  0.21094422  1  -0.067395  0  -0.247207  -0.412497  0  3.948934  0
C  C76  1  0.32553397  0.78896924  0.74122054  1  -0.073996  0  -0.248646  -0.412739  0  3.947857  0
C  C77  1  0.58444103  0.25862601  0.04784214  1  -0.095062  0  -0.247984  -0.413296  0  3.950031  0
C  C78  1  0.38889342  0.71388610  0.98620938  1  1.384601  0  0.2374  0.498719  0  4.164698  0
C  C79  1  0.40236557  0.01365107  0.72753647  1  1.384745  0  0.238028  0.503107  0  4.163204  0
C  C80  1  0.67494671  0.27257516  0.28629576  1  1.403324  0  0.23786  0.501328  0  4.161216  0
C  C81  1  0.36047961  0.61537077  0.87922056  1  0.001004  0  -0.041536  -0.146802  0  4.066785  0
C  C82  1  0.48085246  0.12059865  0.73592088  1  -0.019671  0  -0.041722  -0.148753  0  4.06222  0
C  C83  1  0.74500170  0.26409867  0.38481584  1  0.003061  0  -0.041156  -0.146097  0  4.060135  0
C  C84  1  0.45959709  0.58091507  0.83370099  1  0.432931  0  0.018964  -0.009833  0  3.947702  0
C  C85  1  0.62548725  0.16606268  0.74698753  1  0.430508  0  0.019544  -0.008517  0  3.943478  0
C  C86  1  0.87868845  0.25320784  0.41928805  1  0.394475  0  0.018877  -0.012269  0  3.944207  0
C  C87  1  0.22507970  0.52488354  0.80818177  1  0.403968  0  0.020182  -0.003046  0  3.947513  0
C  C88  1  0.41658522  0.19174891  0.71664307  1  0.401681  0  0.021601  -0.002926  0  3.94392  0
C  C89  1  0.69988477  0.28313571  0.47515857  1  0.405858  0  0.021444  -0.001619  0  3.944865  0
N  N90  1  0.24228372  0.22109591  0.27699666  1  -1.22507  0  -0.417088  -0.382683  0  3.491578  0
N  N91  1  0.96517822  0.72281972  0.94392625  1  -1.220838  0  -0.419242  -0.382376  0  3.491089  0
N  N92  1  0.02117204  0.05599781  0.77894388  1  -1.239656  0  -0.418084  -0.380726  0  3.491204  0
N  N93  1  0.41129839  0.52102671  0.26774401  1  -0.803499  0  -0.28198  -0.191533  0  3.632865  0
N  N94  1  0.14365343  0.73242143  0.25338990  1  -0.823398  0  -0.281453  -0.19265  0  3.6308  0
N  N95  1  0.89034077  0.74654367  0.47898816  1  -0.832273  0  -0.281303  -0.192024  0  3.630386  0
N  N96  1  0.29890405  0.55570240  0.27945055  1  -0.809825  0  -0.278239  -0.207737  0  3.61637  0
N  N97  1  0.01949625  0.72066227  0.27626315  1  -0.793394  0  -0.279237  -0.207746  0  3.616484  0
N  N98  1  0.74330683  0.72371437  0.44421584  1  -0.808051  0  -0.278333  -0.207621  0  3.614645  0
N  N99  1  0.53197685  0.77713603  0.05564153  1  -1.195059  0  -0.418159  -0.386755  0  3.48484  0
N  N100  1  0.47629353  0.94441610  0.72160699  1  -1.210211  0  -0.419047  -0.390146  0  3.486258  0
N  N101  1  0.75493609  0.27871581  0.22314793  1  -1.233011  0  -0.420139  -0.39206  0  3.48402  0
N  N102  1  0.38813017  0.47763237  0.74279286  1  -0.822118  0  -0.282004  -0.194523  0  3.626258  0
N  N103  1  0.64504269  0.25704725  0.73478490  1  -0.813984  0  -0.28188  -0.193257  0  3.626781  0
N  N104  1  0.91040754  0.26529710  0.52244218  1  -0.807913  0  -0.28144  -0.192006  0  3.625222  0
N  N105  1  0.24328621  0.44240773  0.72693742  1  -0.807755  0  -0.279216  -0.207393  0  3.618428  0
N  N106  1  0.51611710  0.27301106  0.71551084  1  -0.816179  0  -0.279848  -0.208104  0  3.617749  0
N  N107  1  0.80059608  0.28430987  0.55757441  1  -0.806503  0  -0.281137  -0.209524  0  3.619085  0
O  O108  1  0.38219414  0.29564227  0.50217129  1  -1.181308  0  -0.311028  -0.518068  0  2.358622  0
O  O109  1  0.87972797  0.49767960  0.79348142  1  -1.169726  0  -0.310699  -0.518765  0  2.357756  0
O  O110  1  0.08664608  0.20659625  0.70441059  1  -1.168956  0  -0.310066  -0.517657  0  2.356165  0
O  O111  1  0.16586463  0.19879908  0.49731337  1  -1.197319  0  -0.319868  -0.539514  0  2.345629  0
O  O112  1  0.66842152  0.50238115  0.70099506  1  -1.206473  0  -0.321242  -0.541621  0  2.346254  0
O  O113  1  0.96724765  0.29874048  0.80123001  1  -1.178429  0  -0.319574  -0.53963  0  2.34629  0
O  O114  1  0.03718995  0.26126557  0.26478739  1  -1.182645  0  -0.310264  -0.523309  0  2.182508  0
O  O115  1  0.77245194  0.73515543  0.99646156  1  -1.186634  0  -0.308268  -0.521107  0  2.184727  0
O  O116  1  0.77582126  0.00348782  0.73841592  1  -1.184712  0  -0.309381  -0.52192  0  2.183515  0
O  O117  1  0.46500474  0.80022913  0.29050782  1  -1.198364  0  -0.309422  -0.512244  0  2.349817  0
O  O118  1  0.17473500  0.70959957  0.50976254  1  -1.194205  0  -0.308458  -0.511714  0  2.349161  0
O  O119  1  0.66496450  0.49026132  0.19984907  1  -1.18646  0  -0.308588  -0.510822  0  2.351251  0
O  O120  1  0.58751572  0.69911123  0.20798549  1  -1.190757  0  -0.31734  -0.535938  0  2.380644  0
O  O121  1  0.37987046  0.79196965  0.49119045  1  -1.185633  0  -0.318157  -0.536298  0  2.380128  0
O  O122  1  0.88886505  0.50896509  0.30063659  1  -1.192504  0  -0.31735  -0.534349  0  2.38317  0
O  O123  1  0.28548742  0.73342082  0.01228643  1  -1.176525  0  -0.306706  -0.51473  0  2.164654  0
O  O124  1  0.27290411  0.98748291  0.72095172  1  -1.178816  0  -0.306702  -0.515322  0  2.164392  0
O  O125  1  0.55200666  0.27906561  0.26663041  1  -1.18082  0  -0.306685  -0.51526  0  2.16652  0
