# generated using pymatgen
data_CoH24C24S2(NO)6
_symmetry_space_group_name_H-M   'P 1'
_cell_length_a   8.22090752
_cell_length_b   8.55358472
_cell_length_c   9.31659364
_cell_angle_alpha   98.54830853
_cell_angle_beta   109.39141595
_cell_angle_gamma   93.02116976
_symmetry_Int_Tables_number   1
_chemical_formula_structural   CoH24C24S2(NO)6
_chemical_formula_sum   'Co1 H24 C24 S2 N6 O6'
_cell_volume   607.42897528
_cell_formula_units_Z   1
loop_
 _symmetry_equiv_pos_site_id
 _symmetry_equiv_pos_as_xyz
  1  'x, y, z'
loop_
 _atom_site_type_symbol
 _atom_site_label
 _atom_site_symmetry_multiplicity
 _atom_site_fract_x
 _atom_site_fract_y
 _atom_site_fract_z
 _atom_site_occupancy
 _atom_site_hle17_ddec_charge
 _atom_site_hle17_ddec_spin_density
 _atom_site_hle17_ddec_sum_bond_order
 _atom_site_hle17_magmom
 _atom_site_hse06_10hf_ddec_charge
 _atom_site_hse06_10hf_ddec_spin_density
 _atom_site_hse06_10hf_ddec_sum_bond_order
 _atom_site_hse06_10hf_magmom
 _atom_site_hse06_ddec_charge
 _atom_site_hse06_ddec_spin_density
 _atom_site_hse06_ddec_sum_bond_order
 _atom_site_hse06_magmom
 _atom_site_pbe_cm5_charge
 _atom_site_pbe_ddec_charge
 _atom_site_pbe_ddec_spin_density
 _atom_site_pbe_ddec_sum_bond_order
 _atom_site_pbe_magmom
Co  Co0  1  0.50000494  0.50000107  0.50000173  1  0.615134  -1.141677  2.392777  -1.044  0.578182  -1.063992  2.814713  -0.994  0.637933  -1.05743  2.753113  -0.997  0.676279  0.543413  -1.055362  2.853487  -0.975
H  H1  1  0.80545459  0.71182871  0.51330280  1  0.083441  0.000133  1.007709  0.0  0.082355  0.000174  1.086634  0.0  0.084643  0.000133  1.083236  0.0  0.114811  0.080271  0.000175  1.089559  0.0
H  H2  1  0.19455551  0.28817581  0.48669569  1  0.083395  0.000132  1.007719  0.0  0.082322  0.000174  1.086655  0.0  0.084606  0.000133  1.083251  0.0  0.114762  0.080236  0.000175  1.089581  0.0
H  H3  1  0.85027807  0.95256464  0.40864399  1  0.115472  0.000268  0.951991  0.0  0.119759  1e-06  1.019381  0.0  0.123549  2.7e-05  1.01687  0.0  0.10912  0.116794  -5e-05  1.021539  0.0
H  H4  1  0.14972818  0.04743985  0.59135553  1  0.115488  0.000269  0.951885  0.0  0.119738  1e-06  1.019323  0.0  0.123528  2.7e-05  1.016812  0.0  0.109106  0.116772  -5e-05  1.021483  0.0
H  H5  1  0.59281286  0.07165564  0.25154445  1  0.101695  4e-06  0.955353  0.0  0.1056  0.000107  1.030745  0.0  0.10857  6.1e-05  1.028125  0.0  0.102987  0.103621  0.00016  1.032243  0.0
H  H6  1  0.40718913  0.92834526  0.74845442  1  0.101668  4e-06  0.955301  0.0  0.105572  0.000107  1.030725  0.0  0.108542  6.1e-05  1.028105  0.0  0.102956  0.103603  0.00016  1.032196  0.0
H  H7  1  0.26869584  0.70803315  0.33554163  1  0.085062  0.000151  1.019468  0.0  0.086931  0.000152  1.095229  0.0  0.089328  0.000121  1.092412  0.0  0.114928  0.084779  0.000141  1.097906  0.0
H  H8  1  0.73131377  0.29196662  0.66446036  1  0.085042  0.000151  1.019458  0.0  0.086911  0.000152  1.095274  0.0  0.089311  0.000121  1.092452  0.0  0.114927  0.084763  0.000141  1.097935  0.0
H  H9  1  0.26772325  0.09118910  0.20246675  1  0.099625  6e-05  0.973752  0.0  0.114069  6.9e-05  1.038075  0.0  0.113488  5.5e-05  1.041397  0.0  0.097019  0.11444  8.3e-05  1.035816  0.0
H  H10  1  0.73227325  0.90880819  0.79753971  1  0.09962  5.9e-05  0.973729  0.0  0.114058  6.9e-05  1.038058  0.0  0.113478  5.5e-05  1.041378  0.0  0.097001  0.11443  8.2e-05  1.035802  0.0
H  H11  1  0.13556832  0.92966498  0.21776929  1  0.105409  -2.6e-05  0.942427  0.0  0.118617  -5e-06  1.008322  0.0  0.119896  -7e-06  1.007555  0.0  0.099584  0.117749  -3e-06  1.00834  0.0
H  H12  1  0.86443509  0.07032524  0.78223283  1  0.105379  -2.7e-05  0.94249  0.0  0.1186  -5e-06  1.008348  0.0  0.119875  -7e-06  1.007584  0.0  0.099559  0.117729  -3e-06  1.008364  0.0
H  H13  1  0.14203058  0.62328935  0.86385763  1  0.115469  3e-06  0.934766  0.0  0.129444  2.1e-05  0.995159  0.0  0.131094  1.6e-05  0.993891  0.0  0.10403  0.127762  2.7e-05  0.996748  0.0
H  H14  1  0.85796173  0.37671742  0.13613712  1  0.115474  3e-06  0.934749  0.0  0.129468  2.1e-05  0.995139  0.0  0.131113  1.6e-05  0.993872  0.0  0.104024  0.127785  2.7e-05  0.996726  0.0
H  H15  1  0.17396481  0.64561488  0.06438209  1  0.095581  0.000109  0.96397  0.0  0.110739  0.000105  1.02679  0.0  0.110375  6.2e-05  1.02954  0.0  0.096336  0.110707  0.00014  1.025514  0.0
H  H16  1  0.82604038  0.35438010  0.93561475  1  0.095546  0.000109  0.96406  0.0  0.110752  0.000105  1.026841  0.0  0.110382  6.2e-05  1.029598  0.0  0.096343  0.110724  0.00014  1.025545  0.0
H  H17  1  0.90473848  0.74753392  0.14806808  1  0.116829  -3.8e-05  0.953538  0.0  0.128797  5.6e-05  1.012661  0.0  0.131613  2.7e-05  1.009649  0.0  0.111118  0.126289  9e-05  1.015646  0.0
H  H18  1  0.09525736  0.25245743  0.85193738  1  0.116816  -3.9e-05  0.95362  0.0  0.128821  5.6e-05  1.012695  0.0  0.131638  2.7e-05  1.009684  0.0  0.111165  0.126314  9e-05  1.015681  0.0
H  H19  1  0.58005938  0.71758835  0.05416500  1  0.103191  0.000359  0.959321  0.0  0.110667  0.000157  1.021867  0.0  0.112702  0.000122  1.023372  0.0  0.104456  0.109393  0.000162  1.02074  0.0
H  H20  1  0.41993590  0.28239825  0.94583535  1  0.103229  0.000359  0.959312  0.0  0.110705  0.000158  1.021833  0.0  0.112755  0.000122  1.023296  0.0  0.104454  0.109422  0.000162  1.020739  0.0
H  H21  1  0.41449405  0.61505097  0.77381271  1  0.09821  7.4e-05  0.977482  0.0  0.101089  9.5e-05  1.047143  0.0  0.104574  8.3e-05  1.042639  0.0  0.118511  0.098286  9.1e-05  1.050942  0.0
H  H22  1  0.58550624  0.38493446  0.22618679  1  0.098209  7.3e-05  0.977355  0.0  0.101054  9.5e-05  1.047066  0.0  0.104536  8.3e-05  1.04257  0.0  0.118479  0.098251  9.1e-05  1.050863  0.0
H  H23  1  0.86985326  0.57831691  0.67814881  1  0.09348  7.1e-05  1.001491  0.0  0.091486  8.4e-05  1.080515  0.0  0.094288  7.1e-05  1.076814  0.0  0.118574  0.089041  6.5e-05  1.083754  0.0
H  H24  1  0.13015225  0.42169233  0.32185437  1  0.093502  6.9e-05  1.001448  0.0  0.091517  8.4e-05  1.080474  0.0  0.094319  7.1e-05  1.076773  0.0  0.118567  0.089071  6.5e-05  1.083717  0.0
C  C25  1  0.69453521  0.76644947  0.44897038  1  0.119461  0.011272  3.651385  0.008  0.089796  0.004773  3.904645  0.003  0.099609  0.003457  3.921175  0.002  0.042366  0.083222  0.005476  3.894001  0.004
C  C26  1  0.30546820  0.23355263  0.55102799  1  0.119416  0.011278  3.651007  0.008  0.089751  0.004774  3.904353  0.003  0.099574  0.003459  3.920885  0.002  0.042301  0.083177  0.005477  3.893706  0.004
C  C27  1  0.71893257  0.90185478  0.38885608  1  -0.100239  -0.002661  3.722917  -0.004  -0.111918  -0.000313  3.974994  -0.001  -0.119682  -0.000285  3.995146  -0.001  -0.080669  -0.107065  -0.000254  3.961812  -0.001
C  C28  1  0.28107223  0.09814852  0.61113964  1  -0.100253  -0.002663  3.722717  -0.004  -0.111893  -0.000314  3.974816  -0.001  -0.119654  -0.000285  3.994963  -0.001  -0.080614  -0.107041  -0.000254  3.961636  -0.001
C  C29  1  0.57556842  0.96808626  0.30280942  1  -0.05828  0.011376  3.683112  0.007  -0.08664  0.004726  3.935518  0.003  -0.081431  0.003068  3.952099  0.002  -0.071736  -0.090266  0.005893  3.924255  0.003
C  C30  1  0.42443395  0.03191821  0.69718791  1  -0.058124  0.011377  3.682956  0.007  -0.086459  0.004728  3.935357  0.003  -0.081247  0.00307  3.951933  0.002  -0.07165  -0.090088  0.005895  3.924105  0.003
C  C31  1  0.40910196  0.89831904  0.28146827  1  0.05915  -0.002534  3.767205  -0.004  0.08465  -0.000366  4.003725  -0.001  0.079564  -0.000331  4.027736  -0.001  -0.011161  0.087832  -0.000303  3.987709  -0.001
C  C32  1  0.59090433  0.10168545  0.71853663  1  0.059012  -0.002534  3.767229  -0.004  0.084416  -0.000367  4.003903  -0.001  0.079328  -0.000331  4.027913  -0.001  -0.011202  0.087598  -0.000303  3.987889  -0.001
C  C33  1  0.39553487  0.76404281  0.34704597  1  0.043269  0.010766  3.643567  0.007  0.00389  0.00427  3.902509  0.003  0.012198  0.003107  3.919727  0.002  0.029417  -0.001952  0.004795  3.892097  0.003
C  C34  1  0.60447086  0.23595693  0.65295382  1  0.043313  0.010768  3.643546  0.007  0.003964  0.004271  3.902563  0.003  0.012281  0.003109  3.919788  0.002  0.02943  -0.001877  0.004796  3.892148  0.003
C  C35  1  0.24897984  0.96113074  0.18657366  1  -0.201658  0.000686  3.704837  0.001  -0.243455  0.000236  3.958277  0.0  -0.2424  0.00019  3.970272  0.0  -0.151051  -0.243967  0.000264  3.949586  0.0
C  C36  1  0.75102333  0.03886898  0.81342754  1  -0.201649  0.00069  3.704859  0.001  -0.243428  0.000236  3.958378  0.0  -0.242365  0.000189  3.970367  0.0  -0.151047  -0.243938  0.000263  3.949687  0.0
C  C37  1  0.10783353  0.69018681  0.95770070  1  -0.194693  0.000611  3.67666  0.001  -0.234475  0.000222  3.923869  0.0  -0.234043  0.000166  3.936788  0.0  -0.149045  -0.234717  0.000244  3.916026  0.0
C  C38  1  0.89217156  0.30981887  0.04229865  1  -0.194769  0.000611  3.676867  0.001  -0.234609  0.000221  3.924084  0.0  -0.234166  0.000166  3.936992  0.0  -0.149104  -0.23484  0.000244  3.91623  0.0
C  C39  1  0.91424984  0.67197480  0.91780256  1  0.067109  -0.001863  3.728107  -0.003  0.091786  -9.2e-05  3.965282  -0.001  0.087159  -0.000132  3.987996  0.0  -0.005162  0.094617  2.6e-05  3.950246  0.0
C  C40  1  0.08574974  0.32802728  0.08220115  1  0.067164  -0.00187  3.728132  -0.003  0.091856  -9.2e-05  3.965354  -0.001  0.087224  -0.000132  3.988071  0.0  -0.005142  0.094686  2.6e-05  3.950317  0.0
C  C41  1  0.83090692  0.70821253  0.02576099  1  -0.055823  0.010079  3.666142  0.007  -0.085144  0.004429  3.913339  0.003  -0.079172  0.002818  3.927753  0.002  -0.066494  -0.08925  0.00513  3.904533  0.003
C  C42  1  0.16909445  0.29178242  0.97424226  1  -0.055858  0.010093  3.666224  0.007  -0.085218  0.004428  3.91343  0.003  -0.079249  0.002817  3.927847  0.002  -0.06657  -0.089303  0.005129  3.904569  0.003
C  C43  1  0.65005100  0.68859949  0.97458860  1  -0.11052  -0.002307  3.74859  -0.003  -0.119676  -0.000273  4.000981  -0.001  -0.126927  -0.000262  4.021441  -0.001  -0.085182  -0.114987  -0.000139  3.987523  -0.001
C  C44  1  0.34994752  0.31139307  0.02541242  1  -0.110641  -0.002312  3.748684  -0.003  -0.119762  -0.000273  4.001063  -0.001  -0.127008  -0.000262  4.021529  -0.001  -0.085175  -0.115079  -0.000139  3.987608  -0.001
C  C45  1  0.55573201  0.63189848  0.81945156  1  0.096084  0.009074  3.662965  0.006  0.062137  0.00358  3.923606  0.002  0.071943  0.002662  3.937524  0.002  0.035723  0.054711  0.004538  3.915673  0.003
C  C46  1  0.44426504  0.36809288  0.18054352  1  0.096124  0.009086  3.66287  0.006  0.0622  0.003579  3.923503  0.002  0.072001  0.002662  3.937428  0.002  0.035751  0.054775  0.004537  3.915565  0.003
C  C47  1  0.81039276  0.61425971  0.76420592  1  0.051443  0.009877  3.633066  0.007  0.013028  0.00439  3.894947  0.003  0.022727  0.003075  3.907738  0.002  0.039669  0.006657  0.00455  3.887026  0.003
C  C48  1  0.18961248  0.38574715  0.23579579  1  0.051383  0.009894  3.633001  0.007  0.012924  0.004388  3.894938  0.003  0.022622  0.003074  3.907733  0.002  0.039649  0.006551  0.004548  3.88702  0.003
S  S49  1  0.19983276  0.89500941  0.97954115  1  -0.00985  -1.3e-05  2.28964  0.0  0.002148  5.2e-05  2.636956  0.0  -0.005927  -2.1e-05  2.640559  0.0  -0.011497  0.007494  0.000103  2.634419  0.0
S  S50  1  0.80016822  0.10499386  0.02045991  1  -0.009792  -1.4e-05  2.28958  0.0  0.002236  5.2e-05  2.636911  0.0  -0.005844  -2.1e-05  2.640493  0.0  -0.011453  0.00758  0.000103  2.634374  0.0
N  N51  1  0.53518685  0.69741352  0.42819832  1  -0.247622  0.015719  3.383826  0.011  -0.196415  0.011577  3.669411  0.009  -0.223355  0.011836  3.689757  0.009  -0.339936  -0.179854  0.010255  3.656271  0.008
N  N52  1  0.46482455  0.30259100  0.57180054  1  -0.247461  0.015717  3.38338  0.011  -0.196343  0.011576  3.669078  0.009  -0.223305  0.011835  3.689444  0.009  -0.339851  -0.179782  0.010254  3.655933  0.008
N  N53  1  0.63513893  0.59409586  0.71465626  1  -0.251696  0.015024  3.393088  0.01  -0.199214  0.011256  3.677761  0.008  -0.225392  0.011448  3.697337  0.009  -0.337845  -0.18304  0.01004  3.66497  0.007
N  N54  1  0.36486680  0.40590388  0.28534246  1  -0.251587  0.015014  3.393007  0.01  -0.199103  0.011256  3.677698  0.008  -0.225281  0.011447  3.697276  0.009  -0.337773  -0.182929  0.01004  3.664904  0.007
N  N55  1  0.87378685  0.32371014  0.47735987  1  0.688926  -0.000876  4.125467  -0.002  0.73309  -0.002032  4.406253  -0.004  0.76224  -0.00149  4.411067  -0.003  0.096188  0.712738  -0.002549  4.40204  -0.005
N  N56  1  0.12621021  0.67629310  0.52263469  1  0.689075  -0.000876  4.12546  -0.002  0.733108  -0.002032  4.406418  -0.004  0.762256  -0.001489  4.411226  -0.003  0.096242  0.712755  -0.002548  4.402205  -0.005
O  O57  1  0.76183392  0.42489960  0.44980627  1  -0.497531  -0.010398  1.84925  -0.014  -0.491533  -0.010645  2.088674  -0.014  -0.510772  -0.008004  2.07867  -0.01  -0.193858  -0.475979  -0.014412  2.094716  -0.019
O  O58  1  0.23816488  0.57510722  0.55019465  1  -0.497578  -0.010395  1.849308  -0.014  -0.491505  -0.010645  2.088754  -0.014  -0.510751  -0.008001  2.078779  -0.01  -0.193817  -0.47595  -0.01441  2.094798  -0.019
O  O59  1  0.95575208  0.31007770  0.61539222  1  -0.46664  -0.000906  1.765703  -0.002  -0.460054  -0.0014  1.978907  -0.003  -0.474308  -0.001053  1.972854  -0.002  -0.190977  -0.448641  -0.001805  1.982579  -0.003
O  O60  1  0.04424574  0.68992079  0.38460084  1  -0.466755  -0.000907  1.765875  -0.002  -0.460137  -0.001399  1.979115  -0.003  -0.474379  -0.001055  1.973052  -0.002  -0.191023  -0.448719  -0.001805  1.982788  -0.003
O  O61  1  0.90072677  0.24058507  0.36583015  1  -0.451914  -0.003267  1.776292  -0.006  -0.440643  -0.003408  1.989957  -0.006  -0.455101  -0.002308  1.984766  -0.004  -0.178378  -0.428404  -0.005252  1.992385  -0.009
O  O62  1  0.09926811  0.75942172  0.63416320  1  -0.451964  -0.003266  1.776189  -0.006  -0.44061  -0.003408  1.989848  -0.006  -0.455108  -0.002308  1.984726  -0.004  -0.178423  -0.428372  -0.005252  1.992275  -0.009
