# generated using pymatgen
data_AlH7C14(NO3)2
_symmetry_space_group_name_H-M   'P 1'
_cell_length_a   6.66867299
_cell_length_b   23.20170715
_cell_length_c   26.12271384
_cell_angle_alpha   100.54989175
_cell_angle_beta   90.00028175
_cell_angle_gamma   90.00051227
_symmetry_Int_Tables_number   1
_chemical_formula_structural   AlH7C14(NO3)2
_chemical_formula_sum   'Al4 H28 C56 N8 O24'
_cell_volume   3973.50274456
_cell_formula_units_Z   4
loop_
 _symmetry_equiv_pos_site_id
 _symmetry_equiv_pos_as_xyz
  1  'x, y, z'
loop_
 _atom_site_type_symbol
 _atom_site_label
 _atom_site_symmetry_multiplicity
 _atom_site_fract_x
 _atom_site_fract_y
 _atom_site_fract_z
 _atom_site_occupancy
 _atom_site_pbe_bader_charge
 _atom_site_pbe_bader_spin_density
 _atom_site_pbe_cm5_charge
 _atom_site_pbe_ddec_charge
 _atom_site_pbe_ddec_spin_density
 _atom_site_pbe_ddec_sum_bond_order
 _atom_site_pbe_magmom
Al  Al0  1  0.78911986  0.74879534  0.25132255  1  2.503531  0  0.403138  1.651772  0  2.574915  0
Al  Al1  1  0.21087435  0.25119952  0.74867480  1  2.50346  0  0.403086  1.651853  0  2.574977  0
Al  Al2  1  0.28912234  0.75120085  0.24867629  1  2.503412  0  0.403083  1.651967  0  2.574666  0
Al  Al3  1  0.71087786  0.24879630  0.75132379  1  2.503455  0  0.403112  1.651823  0  2.574775  0
H  H4  1  0.69353768  0.95411039  0.45583506  1  0.072272  0  0.110239  0.112045  0  0.996533  0
H  H5  1  0.30646103  0.04589222  0.54416227  1  0.072306  0  0.110234  0.112  0  0.996676  0
H  H6  1  0.19353755  0.54588543  0.04416321  1  0.072348  0  0.1102  0.111993  0  0.996596  0
H  H7  1  0.80645665  0.45411091  0.95583296  1  0.072289  0  0.110255  0.112039  0  0.996534  0
H  H8  1  0.66291548  0.03454257  0.53333103  1  0.076105  0  0.108128  0.109493  0  1.004058  0
H  H9  1  0.33708922  0.96546097  0.46666864  1  0.076234  0  0.108084  0.109492  0  1.003882  0
H  H10  1  0.16291060  0.46545718  0.96666630  1  0.076051  0  0.10813  0.109585  0  1.003886  0
H  H11  1  0.83709110  0.53453795  0.03333027  1  0.076254  0  0.108106  0.109499  0  1.003908  0
H  H12  1  0.28812761  0.10202715  0.94288545  1  0.10207  0  0.106917  0.113917  0  1.039182  0
H  H13  1  0.71188009  0.89797849  0.05711811  1  0.10219  0  0.106969  0.114015  0  1.039079  0
H  H14  1  0.78812760  0.39797783  0.55711676  1  0.102093  0  0.106952  0.113982  0  1.039074  0
H  H15  1  0.21187710  0.60202439  0.44288486  1  0.102146  0  0.106951  0.113995  0  1.039044  0
H  H16  1  0.67501009  0.05362309  0.90573781  1  0.095805  0  0.103045  0.106058  0  1.028564  0
H  H17  1  0.32499611  0.94637830  0.09426810  1  0.095983  0  0.103053  0.106055  0  1.028573  0
H  H18  1  0.17501871  0.44637722  0.59426616  1  0.095764  0  0.10306  0.10607  0  1.028666  0
H  H19  1  0.82499200  0.55362551  0.40573585  1  0.096013  0  0.103049  0.106078  0  1.028658  0
H  H20  1  0.67371791  0.12099710  0.84061991  1  0.114232  0  0.109454  0.111627  0  1.008916  0
H  H21  1  0.32628829  0.87899806  0.15938095  1  0.114631  0  0.109448  0.111601  0  1.00896  0
H  H22  1  0.17372567  0.37900193  0.65938211  1  0.114556  0  0.109411  0.111559  0  1.008829  0
H  H23  1  0.82627304  0.62100005  0.34061834  1  0.114551  0  0.10943  0.11158  0  1.008857  0
H  H24  1  0.42291516  0.16726248  0.90106574  1  0.603163  0  0.336604  0.361153  0  0.877907  0
H  H25  1  0.57708804  0.83274030  0.09893237  1  0.603117  0  0.33659  0.361164  0  0.877914  0
H  H26  1  0.92291693  0.33273909  0.59893087  1  0.603061  0  0.336586  0.361098  0  0.877957  0
H  H27  1  0.07707878  0.66726213  0.40106802  1  0.603062  0  0.3366  0.361146  0  0.877916  0
H  H28  1  0.54644309  0.82632095  0.25260204  1  0.620894  0  0.359837  0.439326  0  0.839181  0
H  H29  1  0.45356311  0.17367523  0.74739959  1  0.620774  0  0.359831  0.439403  0  0.83907  0
H  H30  1  0.04644167  0.67367681  0.24739909  1  0.620816  0  0.359817  0.439309  0  0.839209  0
H  H31  1  0.95356303  0.32632067  0.75260254  1  0.6209  0  0.359816  0.439269  0  0.839268  0
C  C32  1  0.53373432  0.68559478  0.31325427  1  1.601815  0  0.272363  0.661523  0  4.086972  0
C  C33  1  0.46626589  0.31440369  0.68674385  1  1.602039  0  0.272307  0.661473  0  4.086899  0
C  C34  1  0.03372410  0.81440435  0.18674527  1  1.601927  0  0.27242  0.661512  0  4.086844  0
C  C35  1  0.96625961  0.18559257  0.81325363  1  1.601664  0  0.272314  0.661573  0  4.086862  0
C  C36  1  0.53966805  0.67431249  0.17253183  1  1.668206  0  0.27223  0.711942  0  4.169666  0
C  C37  1  0.46033515  0.32568256  0.82746435  1  1.667705  0  0.272349  0.712058  0  4.169778  0
C  C38  1  0.03965180  0.82568081  0.32746656  1  1.668505  0  0.272406  0.712028  0  4.169494  0
C  C39  1  0.96033641  0.17431637  0.67253156  1  1.668637  0  0.272408  0.712119  0  4.169417  0
C  C40  1  0.80979290  0.01920044  0.51847432  1  -0.037304  0  -0.076374  -0.116063  0  3.953043  0
C  C41  1  0.19019980  0.98080452  0.48152185  1  -0.037361  0  -0.076362  -0.11611  0  3.953127  0
C  C42  1  0.30979327  0.48080028  0.98152171  1  -0.037424  0  -0.076404  -0.116267  0  3.952921  0
C  C43  1  0.69020243  0.51919450  0.01847525  1  -0.036975  0  -0.076365  -0.116133  0  3.952941  0
C  C44  1  0.98294343  0.04544368  0.54374879  1  0.094708  0  0.007212  0.134116  0  4.103813  0
C  C45  1  0.01705227  0.95456153  0.45624854  1  0.094449  0  0.007219  0.134268  0  4.1036  0
C  C46  1  0.48294402  0.45455853  0.95624599  1  0.094071  0  0.007224  0.134352  0  4.103942  0
C  C47  1  0.51705318  0.54543652  0.04375019  1  0.09416  0  0.007284  0.13444  0  4.103661  0
C  C48  1  0.17335309  0.02549998  0.52448368  1  -0.021054  0  -0.074712  -0.114355  0  3.950561  0
C  C49  1  0.82664411  0.97450221  0.47551366  1  -0.020909  0  -0.074696  -0.114389  0  3.950361  0
C  C50  1  0.67334821  0.47449904  0.97551211  1  -0.020946  0  -0.074725  -0.114371  0  3.950424  0
C  C51  1  0.32664300  0.52549687  0.02448407  1  -0.021017  0  -0.074681  -0.114296  0  3.950202  0
C  C52  1  0.96808251  0.09080333  0.58789623  1  -0.403775  0  -0.0264  -0.044838  0  4.094662  0
C  C53  1  0.03190720  0.90919371  0.41209917  1  -0.403873  0  -0.026465  -0.045097  0  4.094861  0
C  C54  1  0.46808239  0.40920112  0.91210125  1  -0.402671  0  -0.026587  -0.045446  0  4.094296  0
C  C55  1  0.53191332  0.59079668  0.08789571  1  -0.403972  0  -0.026609  -0.045417  0  4.094763  0
C  C56  1  0.03928102  0.87028242  0.37388116  1  0.162724  0  -0.035428  -0.18242  0  3.949422  0
C  C57  1  0.96070719  0.12972079  0.62611695  1  0.162651  0  -0.035442  -0.18263  0  3.949111  0
C  C58  1  0.53928005  0.62971263  0.12612151  1  0.163295  0  -0.035238  -0.182202  0  3.948884  0
C  C59  1  0.46071265  0.37028134  0.87387155  1  0.162716  0  -0.035252  -0.182163  0  3.948515  0
C  C60  1  0.15281892  0.14351808  0.88369087  1  0.504268  0  0.097537  0.315914  0  4.048168  0
C  C61  1  0.84718128  0.85648312  0.11630998  1  0.504547  0  0.097583  0.316047  0  4.04797  0
C  C62  1  0.65282623  0.35648299  0.61630877  1  0.504594  0  0.097503  0.315882  0  4.048271  0
C  C63  1  0.34717847  0.64351831  0.38369051  1  0.504222  0  0.097525  0.315942  0  4.048155  0
C  C64  1  0.15307211  0.10634794  0.92024735  1  -0.012085  0  -0.103137  -0.265588  0  3.969869  0
C  C65  1  0.84693109  0.89365649  0.07975661  1  -0.012557  0  -0.103213  -0.265753  0  3.969976  0
C  C66  1  0.65307989  0.39365609  0.57975618  1  -0.012564  0  -0.103199  -0.265693  0  3.969994  0
C  C67  1  0.34692781  0.60634852  0.42024660  1  -0.012154  0  -0.103137  -0.265595  0  3.969732  0
C  C68  1  0.98284997  0.07398124  0.92836300  1  -0.020954  0  -0.003034  0.055154  0  4.022029  0
C  C69  1  0.01715323  0.92602324  0.07164330  1  -0.021851  0  -0.00302  0.055141  0  4.022203  0
C  C70  1  0.48285754  0.42602264  0.57164190  1  -0.021215  0  -0.002975  0.055297  0  4.021897  0
C  C71  1  0.51715016  0.57398249  0.42836127  1  -0.020928  0  -0.002961  0.055215  0  4.021895  0
C  C72  1  0.80696772  0.07922059  0.89973668  1  -0.040712  0  -0.099236  -0.152146  0  4.006321  0
C  C73  1  0.19303998  0.92078142  0.10026806  1  -0.039782  0  -0.099269  -0.152167  0  4.006222  0
C  C74  1  0.30697116  0.42078029  0.60026636  1  -0.040023  0  -0.099254  -0.152258  0  4.006232  0
C  C75  1  0.69303505  0.57922228  0.39973487  1  -0.040784  0  -0.099238  -0.152225  0  4.006379  0
C  C76  1  0.80698445  0.11636686  0.86368039  1  -0.04142  0  -0.084012  -0.077797  0  4.013997  0
C  C77  1  0.19301726  0.88363172  0.13632241  1  -0.041824  0  -0.084011  -0.077664  0  4.013908  0
C  C78  1  0.30699192  0.38363154  0.63632109  1  -0.041948  0  -0.083975  -0.077626  0  4.013685  0
C  C79  1  0.69301129  0.61636879  0.36367975  1  -0.041745  0  -0.083982  -0.07761  0  4.013847  0
C  C80  1  0.97713565  0.14868083  0.85435507  1  -0.020596  0  -0.017137  -0.141438  0  3.898073  0
C  C81  1  0.02286905  0.85131821  0.14564577  1  -0.020734  0  -0.017151  -0.141599  0  3.898158  0
C  C82  1  0.47714380  0.35131810  0.64564476  1  -0.020775  0  -0.017151  -0.141567  0  3.898216  0
C  C83  1  0.52286090  0.64868336  0.35435530  1  -0.020664  0  -0.017255  -0.141744  0  3.898402  0
C  C84  1  0.00869153  0.96533496  0.03349043  1  0.975662  0  0.242236  0.247534  0  3.966833  0
C  C85  1  0.99131467  0.03467158  0.96651741  1  0.975086  0  0.242309  0.247614  0  3.966908  0
C  C86  1  0.50869096  0.53467091  0.46651490  1  0.975392  0  0.242238  0.247599  0  3.96681  0
C  C87  1  0.49131674  0.46533336  0.53348828  1  0.975645  0  0.242295  0.247592  0  3.966736  0
N  N88  1  0.82654682  0.00240132  0.97251688  1  -0.562194  0  -0.15136  -0.1402  0  3.209679  0
N  N89  1  0.17345788  0.99760376  0.02749019  1  -0.562445  0  -0.151498  -0.140252  0  3.209702  0
N  N90  1  0.32654977  0.49760218  0.52748813  1  -0.562338  0  -0.151343  -0.140109  0  3.209566  0
N  N91  1  0.67345793  0.50240157  0.47251466  1  -0.562302  0  -0.151292  -0.140108  0  3.209577  0
N  N92  1  0.83560245  0.96716314  0.00658544  1  -0.541402  0  -0.153846  -0.144315  0  3.216613  0
N  N93  1  0.16440225  0.03284186  0.99342124  1  -0.540933  0  -0.153795  -0.144355  0  3.216609  0
N  N94  1  0.33560277  0.53284079  0.49341892  1  -0.541201  0  -0.153914  -0.144507  0  3.216731  0
N  N95  1  0.66440493  0.46716253  0.50658387  1  -0.541456  0  -0.153948  -0.144479  0  3.216645  0
O  O96  1  0.36807364  0.69328650  0.18913918  1  -1.235547  0  -0.230286  -0.582747  0  2.285759  0
O  O97  1  0.63191157  0.30670855  0.81085700  1  -1.235706  0  -0.230314  -0.582697  0  2.286022  0
O  O98  1  0.86807854  0.80671019  0.31085902  1  -1.235813  0  -0.230272  -0.582674  0  2.286095  0
O  O99  1  0.13191567  0.19328984  0.68913832  1  -1.235818  0  -0.230352  -0.582744  0  2.286026  0
O  O100  1  0.70828336  0.69882995  0.29898757  1  -1.24512  0  -0.236835  -0.595222  0  2.323136  0
O  O101  1  0.29171385  0.30116944  0.70101289  1  -1.245134  0  -0.236803  -0.595185  0  2.322952  0
O  O102  1  0.20829399  0.80116880  0.20101423  1  -1.24514  0  -0.23699  -0.595388  0  2.322642  0
O  O103  1  0.79171221  0.19883124  0.79898934  1  -1.24522  0  -0.236846  -0.595311  0  2.323071  0
O  O104  1  0.70967831  0.68954782  0.19275902  1  -1.238517  0  -0.231252  -0.585265  0  2.285228  0
O  O105  1  0.29031440  0.31044224  0.80723600  1  -1.238542  0  -0.231305  -0.585427  0  2.285063  0
O  O106  1  0.20968670  0.81044522  0.30723812  1  -1.238402  0  -0.231388  -0.585408  0  2.284842  0
O  O107  1  0.79031500  0.18955123  0.69276273  1  -1.23843  0  -0.231327  -0.585383  0  2.284859  0
O  O108  1  0.86926960  0.80021286  0.20547339  1  -1.248031  0  -0.230842  -0.582735  0  2.374433  0
O  O109  1  0.13073960  0.19978006  0.79452084  1  -1.24762  0  -0.230843  -0.582877  0  2.37422  0
O  O110  1  0.36925186  0.69978438  0.29452325  1  -1.247867  0  -0.230878  -0.582872  0  2.374164  0
O  O111  1  0.63074534  0.30021520  0.70547604  1  -1.247854  0  -0.23093  -0.582908  0  2.374178  0
O  O112  1  0.54059573  0.78490782  0.25373781  1  -1.420157  0  -0.445425  -0.996793  0  2.215674  0
O  O113  1  0.45939848  0.21508728  0.74626070  1  -1.420086  0  -0.445471  -0.996906  0  2.215478  0
O  O114  1  0.04059856  0.71508874  0.24626174  1  -1.420167  0  -0.445443  -0.996823  0  2.215718  0
O  O115  1  0.95940315  0.28490748  0.75373794  1  -1.420131  0  -0.445418  -0.996703  0  2.215711  0
O  O116  1  0.31945069  0.17500196  0.87675669  1  -1.106573  0  -0.329494  -0.409346  0  2.298831  0
O  O117  1  0.68055101  0.82499969  0.12324220  1  -1.106467  0  -0.329458  -0.40935  0  2.298852  0
O  O118  1  0.81945867  0.32499971  0.62324169  1  -1.106499  0  -0.329449  -0.409234  0  2.298828  0
O  O119  1  0.18054004  0.67500030  0.37675760  1  -1.106512  0  -0.329475  -0.409311  0  2.298794  0
