# generated using pymatgen
data_CaH12C8O7
_symmetry_space_group_name_H-M   'P 1'
_cell_length_a   6.05037840
_cell_length_b   8.45611903
_cell_length_c   10.37219177
_cell_angle_alpha   72.53562474
_cell_angle_beta   85.01971217
_cell_angle_gamma   74.93643511
_symmetry_Int_Tables_number   1
_chemical_formula_structural   CaH12C8O7
_chemical_formula_sum   'Ca2 H24 C16 O14'
_cell_volume   488.79100713
_cell_formula_units_Z   2
loop_
 _symmetry_equiv_pos_site_id
 _symmetry_equiv_pos_as_xyz
  1  'x, y, z'
loop_
 _atom_site_type_symbol
 _atom_site_label
 _atom_site_symmetry_multiplicity
 _atom_site_fract_x
 _atom_site_fract_y
 _atom_site_fract_z
 _atom_site_occupancy
 _atom_site_hle17_bader_spin_density
 _atom_site_hle17_ddec_charge
 _atom_site_hle17_ddec_spin_density
 _atom_site_hle17_ddec_sum_bond_order
 _atom_site_hle17_magmom
 _atom_site_hse06_10hf_bader_spin_density
 _atom_site_hse06_10hf_ddec_charge
 _atom_site_hse06_10hf_ddec_spin_density
 _atom_site_hse06_10hf_ddec_sum_bond_order
 _atom_site_hse06_10hf_magmom
 _atom_site_hse06_bader_spin_density
 _atom_site_hse06_ddec_charge
 _atom_site_hse06_ddec_spin_density
 _atom_site_hse06_ddec_sum_bond_order
 _atom_site_hse06_magmom
 _atom_site_pbe_bader_spin_density
 _atom_site_pbe_cm5_charge
 _atom_site_pbe_ddec_charge
 _atom_site_pbe_ddec_spin_density
 _atom_site_pbe_ddec_sum_bond_order
 _atom_site_pbe_magmom
Ca  Ca0  1  0.20522486  0.09926553  0.07933142  1  0  1.557632  0  1.050679  0  0  1.422009  0  1.392646  0  0  1.466268  0  1.347543  0  0  0.873554  1.387427  0  1.426096  0
Ca  Ca1  1  0.79476862  0.90073612  0.92066812  1  0  1.55763  0  1.050674  0  0  1.421945  0  1.39273  0  0  1.466212  0  1.347624  0  0  0.873517  1.387362  0  1.426179  0
H  H2  1  0.21885030  0.53572315  0.36351980  1  0  0.092633  0  0.928665  0  0  0.103052  0  0.98973  0  0  0.105155  0  0.988874  0  0  0.106359  0.101861  0  0.990082  0
H  H3  1  0.78115231  0.46428119  0.63648239  1  0  0.092598  0  0.928665  0  0  0.103011  0  0.989724  0  0  0.105118  0  0.988873  0  0  0.106366  0.101821  0  0.990071  0
H  H4  1  0.56098078  0.58412280  0.41523487  1  0  0.083455  0  0.956199  0  0  0.093624  0  1.020088  0  0  0.095196  0  1.02012  0  0  0.100988  0.092369  0  1.0204  0
H  H5  1  0.43903695  0.41586108  0.58477082  1  0  0.083546  0  0.956142  0  0  0.093708  0  1.020037  0  0  0.095278  0  1.020069  0  0  0.101017  0.092453  0  1.02035  0
H  H6  1  0.49434240  0.93675423  0.37950636  1  0  0.059304  0  0.927132  0  0  0.070787  0  0.988508  0  0  0.071394  0  0.988006  0  0  0.118182  0.070325  0  0.989058  0
H  H7  1  0.50565731  0.06324880  0.62049537  1  0  0.059307  0  0.9271  0  0  0.070809  0  0.988487  0  0  0.07142  0  0.987979  0  0  0.118188  0.070341  0  0.989051  0
H  H8  1  0.25684664  0.89265266  0.59082965  1  0  0.086323  0  0.948349  0  0  0.099931  0  1.015349  0  0  0.101524  0  1.014723  0  0  0.097631  0.0987  0  1.015984  0
H  H9  1  0.74316275  0.10734154  0.40917865  1  0  0.086349  0  0.948332  0  0  0.099884  0  1.015375  0  0  0.10148  0  1.014752  0  0  0.097605  0.098655  0  1.016009  0
H  H10  1  0.41406970  0.68056388  0.60638380  1  0  0.083325  0  0.95539  0  0  0.099769  0  1.018827  0  0  0.101163  0  1.018329  0  0  0.094406  0.098622  0  1.019579  0
H  H11  1  0.58591752  0.31944158  0.39361415  1  0  0.083401  0  0.955384  0  0  0.099851  0  1.018758  0  0  0.101233  0  1.01828  0  0  0.094484  0.098704  0  1.019514  0
H  H12  1  0.07055211  0.61248907  0.56358880  1  0  0.081052  0  0.956533  0  0  0.095449  0  1.022858  0  0  0.09688  0  1.022471  0  0  0.090207  0.094372  0  1.023247  0
H  H13  1  0.92945424  0.38750874  0.43640909  1  0  0.081065  0  0.956549  0  0  0.095465  0  1.022867  0  0  0.096896  0  1.02248  0  0  0.090227  0.09439  0  1.023258  0
H  H14  1  0.92042641  0.82334242  0.56186441  1  0  0.095829  0  0.945795  0  0  0.111119  0  1.004954  0  0  0.113226  0  1.004282  0  0  0.098874  0.109229  0  1.006407  0
H  H15  1  0.07957802  0.17664656  0.43814167  1  0  0.09584  0  0.945707  0  0  0.111125  0  1.00488  0  0  0.113232  0  1.004209  0  0  0.098894  0.109237  0  1.006336  0
H  H16  1  0.89042997  0.84481518  0.31683995  1  0  0.05931  0  0.932693  0  0  0.069816  0  0.994468  0  0  0.070514  0  0.99385  0  0  0.119711  0.069344  0  0.994953  0
H  H17  1  0.10956478  0.15518786  0.68316303  1  0  0.059284  0  0.932653  0  0  0.069746  0  0.994459  0  0  0.070442  0  0.993844  0  0  0.119707  0.069278  0  0.994934  0
H  H18  1  0.80937396  0.36509022  0.04088210  1  0  0.412683  0  0.9063  0  0  0.376713  0  0.978792  0  0  0.389398  0  0.960277  0  0  0.295368  0.367387  0  0.992318  0
H  H19  1  0.19062369  0.63490889  0.95911787  1  0  0.412663  0  0.906331  0  0  0.376691  0  0.978828  0  0  0.389376  0  0.960313  0  0  0.295351  0.367364  0  0.992355  0
H  H20  1  0.85968895  0.39855438  0.17569823  1  0  0.443294  0  0.845754  0  0  0.4165  0  0.902055  0  0  0.426291  0  0.88789  0  0  0.304016  0.409252  0  0.912715  0
H  H21  1  0.14031573  0.60144341  0.82429880  1  0  0.443283  0  0.845769  0  0  0.416458  0  0.902112  0  0  0.42625  0  0.887947  0  0  0.303979  0.409208  0  0.912775  0
H  H22  1  0.59257194  0.22267827  0.16449381  1  0  0.425322  0  0.861513  0  0  0.399535  0  0.921127  0  0  0.40986  0  0.905819  0  0  0.307637  0.392221  0  0.931965  0
H  H23  1  0.40742697  0.77732219  0.83550863  1  0  0.425352  0  0.861476  0  0  0.399567  0  0.921078  0  0  0.409892  0  0.905772  0  0  0.307641  0.392254  0  0.931916  0
H  H24  1  0.36307907  0.35751605  0.16122104  1  0  0.43113  0  0.87279  0  0  0.396934  0  0.941579  0  0  0.408408  0  0.924855  0  0  0.295709  0.388412  0  0.954051  0
H  H25  1  0.63693237  0.64247680  0.83878363  1  0  0.431085  0  0.872838  0  0  0.396918  0  0.941586  0  0  0.40839  0  0.924866  0  0  0.295679  0.388399  0  0.954056  0
C  C26  1  0.22997742  0.66647820  0.30931140  1  0  -0.194558  0  3.579455  0  0  -0.206909  0  3.818556  0  0  -0.212143  0  3.82876  0  0  -0.082675  -0.203053  0  3.811232  0
C  C27  1  0.77002385  0.33352986  0.69068508  1  0  -0.19452  0  3.579445  0  0  -0.206843  0  3.818555  0  0  -0.212096  0  3.828772  0  0  -0.082672  -0.202997  0  3.811254  0
C  C28  1  0.19716613  0.69367554  0.15944807  1  0  0.714097  0  3.834622  0  0  0.656507  0  4.141361  0  0  0.690544  0  4.132994  0  0  0.233554  0.632919  0  4.146729  0
C  C29  1  0.80284383  0.30633120  0.84054536  1  0  0.714285  0  3.83444  0  0  0.656596  0  4.141312  0  0  0.690639  0  4.132949  0  0  0.233642  0.633009  0  4.146679  0
C  C30  1  0.46527066  0.69629916  0.33932734  1  0  -0.197565  0  3.567845  0  0  -0.207307  0  3.805893  0  0  -0.212705  0  3.816523  0  0  -0.08554  -0.203448  0  3.798898  0
C  C31  1  0.53474415  0.30368859  0.66067943  1  0  -0.197685  0  3.567972  0  0  -0.207439  0  3.806093  0  0  -0.21283  0  3.816723  0  0  -0.085595  -0.20358  0  3.799099  0
C  C32  1  0.61644642  0.72739541  0.21304221  1  0  0.678373  0  3.888377  0  0  0.624483  0  4.201892  0  0  0.657349  0  4.194285  0  0  0.214106  0.601898  0  4.206831  0
C  C33  1  0.38355372  0.27260109  0.78695541  1  0  0.678535  0  3.88837  0  0  0.624643  0  4.201874  0  0  0.657512  0  4.194262  0  0  0.214119  0.602055  0  4.206814  0
C  C34  1  0.38070939  0.85043510  0.39731172  1  0  0.186926  0  3.531993  0  0  0.159435  0  3.786432  0  0  0.166494  0  3.795733  0  0  0.004083  0.154484  0  3.780229  0
C  C35  1  0.61928323  0.14956909  0.60268625  1  0  0.186947  0  3.532069  0  0  0.15934  0  3.786602  0  0  0.166398  0  3.795907  0  0  0.004018  0.154388  0  3.780399  0
C  C36  1  0.29265117  0.79001174  0.54226151  1  0  -0.165348  0  3.616167  0  0  -0.212342  0  3.876355  0  0  -0.213237  0  3.886548  0  0  -0.165954  -0.211999  0  3.870313  0
C  C37  1  0.70733771  0.20999374  0.45773730  1  0  -0.165557  0  3.616318  0  0  -0.212408  0  3.876355  0  0  -0.213303  0  3.886558  0  0  -0.165981  -0.212053  0  3.870302  0
C  C38  1  0.06687377  0.74828995  0.51844913  1  0  -0.172547  0  3.602452  0  0  -0.217911  0  3.861375  0  0  -0.219508  0  3.871549  0  0  -0.168517  -0.216934  0  3.855459  0
C  C39  1  0.93312807  0.25170666  0.48155319  1  0  -0.172502  0  3.602437  0  0  -0.217867  0  3.861242  0  0  -0.219461  0  3.871417  0  0  -0.168513  -0.216902  0  3.855345  0
C  C40  1  0.05902104  0.80131399  0.36363364  1  0  0.18889  0  3.537582  0  0  0.162053  0  3.791556  0  0  0.169254  0  3.800569  0  0  0.0028  0.157196  0  3.785139  0
C  C41  1  0.94097416  0.19868258  0.63636810  1  0  0.188853  0  3.537618  0  0  0.16208  0  3.791484  0  0  0.169287  0  3.800509  0  0  0.002741  0.157227  0  3.785064  0
O  O42  1  0.27752535  0.56878397  0.11185961  1  0  -0.617707  0  2.022697  0  0  -0.549981  0  2.238728  0  0  -0.575571  0  2.227199  0  0  -0.2864  -0.531227  0  2.246768  0
O  O43  1  0.72247514  0.43121106  0.88813065  1  0  -0.61759  0  2.022991  0  0  -0.549861  0  2.239093  0  0  -0.575448  0  2.22756  0  0  -0.286383  -0.531116  0  2.24714  0
O  O44  1  0.09520659  0.84265222  0.08733538  1  0  -0.760417  0  2.027243  0  0  -0.695871  0  2.286126  0  0  -0.724904  0  2.276505  0  0  -0.392429  -0.674563  0  2.292299  0
O  O45  1  0.90479398  0.15734825  0.91266697  1  0  -0.760669  0  2.026917  0  0  -0.696089  0  2.285858  0  0  -0.725124  0  2.276233  0  0  -0.392559  -0.674776  0  2.292031  0
O  O46  1  0.78256385  0.60852200  0.19903376  1  0  -0.634523  0  1.957421  0  0  -0.583479  0  2.188892  0  0  -0.606709  0  2.180458  0  0  -0.304346  -0.567156  0  2.194845  0
O  O47  1  0.21741989  0.39148832  0.80095251  1  0  -0.634699  0  1.95715  0  0  -0.583633  0  2.188593  0  0  -0.606867  0  2.180158  0  0  -0.304381  -0.567305  0  2.194544  0
O  O48  1  0.56326122  0.87594457  0.12565207  1  0  -0.755896  0  1.990299  0  0  -0.687841  0  2.245572  0  0  -0.717051  0  2.236374  0  0  -0.392778  -0.666765  0  2.251618  0
O  O49  1  0.43673138  0.12406483  0.87434841  1  0  -0.755931  0  1.990708  0  0  -0.687818  0  2.245892  0  0  -0.717035  0  2.236695  0  0  -0.39273  -0.666745  0  2.251939  0
O  O50  1  0.16908184  0.94386713  0.32380100  1  0  -0.394893  0  2.130445  0  0  -0.321141  0  2.368943  0  0  -0.339382  0  2.369685  0  0  -0.232893  -0.307564  0  2.367976  0
O  O51  1  0.83091163  0.05613451  0.67619758  1  0  -0.394841  0  2.130463  0  0  -0.321048  0  2.368944  0  0  -0.339281  0  2.369672  0  0  -0.232825  -0.307466  0  2.36797  0
O  O52  1  0.87778137  0.30483067  0.13410480  1  0  -0.897092  0  1.795597  0  0  -0.83404  0  1.971395  0  0  -0.85668  0  1.93901  0  0  -0.615012  -0.817263  0  1.995279  0
O  O53  1  0.12221877  0.69516582  0.86589282  1  0  -0.897097  0  1.795592  0  0  -0.834007  0  1.971433  0  0  -0.85665  0  1.939049  0  0  -0.615013  -0.81723  0  1.995317  0
O  O54  1  0.42659766  0.23255494  0.17309741  1  0  -0.888984  0  1.783179  0  0  -0.840854  0  1.971997  0  0  -0.860989  0  1.939019  0  0  -0.630608  -0.826005  0  1.996019  0
O  O55  1  0.57340128  0.76744034  0.82690349  1  0  -0.888981  0  1.783241  0  0  -0.840864  0  1.972011  0  0  -0.861001  0  1.939037  0  0  -0.630553  -0.826016  0  1.99603  0
