# generated using pymatgen
data_MnH20C20N5O2
_symmetry_space_group_name_H-M   'P 1'
_cell_length_a   7.38716684
_cell_length_b   11.30544077
_cell_length_c   11.71160745
_cell_angle_alpha   90.00146371
_cell_angle_beta   90.00085013
_cell_angle_gamma   92.43128682
_symmetry_Int_Tables_number   1
_chemical_formula_structural   MnH20C20N5O2
_chemical_formula_sum   'Mn2 H40 C40 N10 O4'
_cell_volume   977.21650128
_cell_formula_units_Z   2
loop_
 _symmetry_equiv_pos_site_id
 _symmetry_equiv_pos_as_xyz
  1  'x, y, z'
loop_
 _atom_site_type_symbol
 _atom_site_label
 _atom_site_symmetry_multiplicity
 _atom_site_fract_x
 _atom_site_fract_y
 _atom_site_fract_z
 _atom_site_occupancy
 _atom_site_pbe_cm5_charge
 _atom_site_pbe_ddec_charge
 _atom_site_pbe_ddec_spin_density
 _atom_site_pbe_ddec_sum_bond_order
 _atom_site_pbe_magmom
Mn  Mn0  1  0.04899838  0.98264169  0.30342496  1  0.812893  0.79134  0.128003  3.541054  0.096
Mn  Mn1  1  0.95099325  0.01735565  0.80345116  1  0.812863  0.791371  -0.128054  3.541021  -0.096
H  H2  1  0.07009563  0.36479031  0.20502449  1  0.099432  0.111536  0.000301  1.045681  0.0
H  H3  1  0.92985341  0.63517255  0.70512202  1  0.099269  0.111333  -0.000301  1.045607  0.0
H  H4  1  0.83099383  0.51111247  0.22231014  1  0.097115  0.08914  4.3e-05  1.01571  0.0
H  H5  1  0.16899784  0.48887379  0.72233292  1  0.0971  0.089203  -4.3e-05  1.015593  0.0
H  H6  1  0.52281942  0.44859674  0.29290456  1  0.093595  0.090985  -0.000168  1.034445  0.0
H  H7  1  0.47720547  0.55141530  0.79286772  1  0.093614  0.091055  0.000168  1.03441  0.0
H  H8  1  0.45726552  0.23698494  0.34467422  1  0.106256  0.105299  0.00052  1.00562  0.0
H  H9  1  0.54274432  0.76302678  0.84465600  1  0.106217  0.105243  -0.00052  1.00574  0.0
H  H10  1  0.53925265  0.04628466  0.36817288  1  0.123037  0.092665  0.000856  1.025823  0.001
H  H11  1  0.46074339  0.95371533  0.86818419  1  0.123033  0.092739  -0.000859  1.025755  -0.001
H  H12  1  0.67997219  0.81235035  0.31063747  1  0.111028  0.069665  -0.001085  0.986719  -0.001
H  H13  1  0.32003901  0.18763386  0.81065256  1  0.111  0.069659  0.001085  0.986695  0.001
H  H14  1  0.92658341  0.84209783  0.51770194  1  0.121335  0.084069  -0.000632  0.956889  0.0
H  H15  1  0.07342917  0.15792708  0.01771121  1  0.121334  0.084174  0.000632  0.956864  0.0
H  H16  1  0.94767333  0.62385669  0.50487533  1  0.091588  0.088795  8e-05  1.000397  0.0
H  H17  1  0.05236236  0.37617402  0.00486415  1  0.091578  0.088886  -8e-05  1.00043  0.0
H  H18  1  0.79065075  0.61882368  0.39033944  1  0.090342  0.086699  -0.00014  1.011583  0.0
H  H19  1  0.20939998  0.38117681  0.89034032  1  0.090377  0.086611  0.000141  1.011893  0.0
H  H20  1  0.63527287  0.57343247  0.57406443  1  0.085638  0.078043  2.2e-05  1.035311  0.0
H  H21  1  0.36476494  0.42658596  0.07407876  1  0.085623  0.078072  -2.2e-05  1.035307  0.0
H  H22  1  0.71614956  0.71035146  0.63218149  1  0.090118  0.08542  -0.000734  1.013323  0.0
H  H23  1  0.28387071  0.28966770  0.13219682  1  0.090114  0.085425  0.000733  1.013357  0.0
H  H24  1  0.45954981  0.68182082  0.42818403  1  0.079904  0.068991  -0.000134  1.024585  0.0
H  H25  1  0.54046878  0.31817191  0.92819926  1  0.079873  0.068983  0.000134  1.024471  0.0
H  H26  1  0.40031181  0.72728100  0.56742993  1  0.086304  0.084994  0.00013  1.012505  0.0
H  H27  1  0.59971119  0.27272135  0.06745036  1  0.086289  0.084954  -0.00013  1.012316  0.0
H  H28  1  0.44662505  0.90023250  0.43836373  1  0.094509  0.094716  -0.00022  1.034667  0.0
H  H29  1  0.55335960  0.09975526  0.93840702  1  0.094432  0.094724  0.000221  1.034724  0.0
H  H30  1  0.60745000  0.90543897  0.55150529  1  0.097555  0.106816  -0.000662  0.989673  0.0
H  H31  1  0.39252910  0.09457984  0.05153051  1  0.097595  0.106818  0.000662  0.990091  0.0
H  H32  1  0.09197693  0.64150641  0.34521028  1  0.117841  0.078102  0.001351  1.012147  0.001
H  H33  1  0.90805365  0.35851148  0.84521031  1  0.117795  0.078037  -0.001351  1.011981  -0.001
H  H34  1  0.29162289  0.55675752  0.22159179  1  0.097405  0.089315  0.000461  1.028849  0.0
H  H35  1  0.70838494  0.44324729  0.72158691  1  0.09739  0.089289  -0.000461  1.028955  0.0
H  H36  1  0.55453063  0.56854664  0.08745957  1  0.09781  0.100603  -0.000174  1.018483  0.0
H  H37  1  0.44547332  0.43144744  0.58745108  1  0.097805  0.100599  0.000174  1.018434  0.0
H  H38  1  0.68350803  0.76605621  0.02872429  1  0.10261  0.093546  7.8e-05  1.023277  0.0
H  H39  1  0.31647776  0.23393010  0.52872682  1  0.102613  0.093623  -7.8e-05  1.023131  0.0
H  H40  1  0.55536162  0.94968056  0.10320249  1  0.105201  0.116356  0.00044  1.028578  0.0
H  H41  1  0.44461879  0.05032018  0.60322988  1  0.105209  0.116236  -0.00044  1.028686  0.0
C  C42  1  0.90199040  0.21661721  0.26389807  1  0.098755  0.310482  0.002998  4.057995  0.005
C  C43  1  0.09795815  0.78335788  0.76397096  1  0.098584  0.309987  -0.003002  4.058398  -0.005
C  C44  1  0.93558772  0.33755855  0.23538527  1  -0.11408  -0.227574  -0.013708  3.988032  -0.007
C  C45  1  0.06436688  0.66241575  0.73546171  1  -0.113657  -0.226789  0.013712  3.987895  0.007
C  C46  1  0.80129742  0.41889178  0.24595378  1  -0.093922  -0.065389  0.001335  4.06566  0.002
C  C47  1  0.19867892  0.58109959  0.74599277  1  -0.094026  -0.065793  -0.001333  4.06593  -0.002
C  C48  1  0.62729350  0.38396676  0.28550134  1  -0.110604  -0.12297  -0.019845  4.058131  -0.011
C  C49  1  0.37270721  0.61603095  0.78550439  1  -0.1106  -0.122908  0.019853  4.05821  0.011
C  C50  1  0.59147297  0.26684674  0.31490816  1  -0.07952  -0.086172  0.005107  3.982969  0.004
C  C51  1  0.40852602  0.73315532  0.81490930  1  -0.079468  -0.086238  -0.005106  3.98309  -0.004
C  C52  1  0.72637269  0.18207956  0.30745788  1  -0.027673  -0.07083  -0.01444  4.023655  -0.008
C  C53  1  0.27360766  0.81790994  0.80748631  1  -0.027749  -0.070469  0.014445  4.02373  0.008
C  C54  1  0.68109714  0.06424429  0.34483111  1  0.071255  0.096015  -0.005971  3.916985  -0.002
C  C55  1  0.31887517  0.93575333  0.84484919  1  0.071327  0.095818  0.005971  3.917058  0.002
C  C56  1  0.72214203  0.85972188  0.38935503  1  0.012388  0.090938  0.001891  3.816801  0.002
C  C57  1  0.27786254  0.14027690  0.88937539  1  0.012462  0.091073  -0.00189  3.816782  -0.002
C  C58  1  0.88384854  0.79602718  0.43832949  1  0.013579  0.080504  0.000729  3.836692  0.001
C  C59  1  0.11616514  0.20398885  0.93833880  1  0.013641  0.080187  -0.000728  3.837033  -0.001
C  C60  1  0.83142877  0.66804749  0.46796408  1  -0.164816  -0.199574  -0.000406  3.931051  0.0
C  C61  1  0.16860080  0.33197287  0.96796337  1  -0.164831  -0.199426  0.000407  3.93125  0.0
C  C62  1  0.67313244  0.66559888  0.55258364  1  -0.169598  -0.150571  -0.000263  3.944898  0.0
C  C63  1  0.32689363  0.33441368  0.05259278  1  -0.169376  -0.150478  0.000263  3.944578  0.0
C  C64  1  0.51115380  0.72868758  0.50477894  1  -0.169893  -0.135662  0.000121  3.937638  0.0
C  C65  1  0.48887119  0.27130597  0.00479403  1  -0.170035  -0.135724  -0.00012  3.937139  0.0
C  C66  1  0.56454865  0.85702490  0.47373294  1  -0.165747  -0.210677  -0.001242  3.895697  -0.001
C  C67  1  0.43544987  0.14297531  0.97376167  1  -0.165662  -0.210691  0.001244  3.896117  0.001
C  C68  1  0.12509950  0.73181334  0.31572541  1  0.07125  0.087581  -0.001308  3.94341  0.001
C  C69  1  0.87491742  0.26819315  0.81572718  1  0.071302  0.087737  0.001315  3.943168  -0.001
C  C70  1  0.27203444  0.74563029  0.23663380  1  -0.027637  -0.069342  -0.006072  4.044226  -0.003
C  C71  1  0.72798054  0.25437492  0.73663897  1  -0.027561  -0.069254  0.006085  4.044235  0.003
C  C72  1  0.35053523  0.64249935  0.19443886  1  -0.092699  -0.117364  0.003031  4.039396  0.002
C  C73  1  0.64948249  0.35750116  0.69443815  1  -0.092753  -0.117462  -0.003034  4.039335  -0.002
C  C74  1  0.49612745  0.64866251  0.12017910  1  -0.112901  -0.130128  -0.010115  4.067386  -0.006
C  C75  1  0.50387905  0.35133776  0.62017859  1  -0.112824  -0.130013  0.010133  4.067089  0.006
C  C76  1  0.56876796  0.76038200  0.08710252  1  -0.08805  -0.050319  0.001853  4.046006  0.002
C  C77  1  0.43122909  0.23961030  0.58711053  1  -0.087978  -0.050385  -0.001854  4.046017  -0.002
C  C78  1  0.49725125  0.86340061  0.12785704  1  -0.106048  -0.213248  -0.00551  3.966895  -0.003
C  C79  1  0.50273649  0.13659991  0.62787344  1  -0.106106  -0.213078  0.00552  3.967301  0.003
C  C80  1  0.34681545  0.85965851  0.20292540  1  0.1011  0.305626  0.00294  4.054281  0.003
C  C81  1  0.65318686  0.14035112  0.70293732  1  0.101061  0.30561  -0.002942  4.05437  -0.003
N  N82  1  0.79369301  0.97824087  0.35242764  1  -0.361142  -0.269822  -0.00388  3.526241  -0.007
N  N83  1  0.20629303  0.02175693  0.85245040  1  -0.361177  -0.269741  0.003871  3.526468  0.007
N  N84  1  0.03051230  0.81761813  0.35500159  1  -0.362046  -0.243867  0.001073  3.562778  -0.003
N  N85  1  0.96950346  0.18239740  0.85500726  1  -0.362255  -0.244013  -0.001069  3.562652  0.003
N  N86  1  0.96104503  0.89212395  0.12244784  1  -0.156375  -0.350249  0.027275  2.772045  0.02
N  N87  1  0.03892966  0.10782686  0.62246175  1  -0.156497  -0.350559  -0.027329  2.771136  -0.02
N  N88  1  0.91454610  0.93261368  0.03548140  1  0.111413  0.418564  0.004644  4.392434  0.003
N  N89  1  0.08544398  0.06737369  0.53546060  1  0.111469  0.41885  -0.004634  4.3919  -0.003
N  N90  1  0.84797011  0.96410386  0.94793863  1  -0.266877  -0.414033  0.01969  3.064931  0.006
N  N91  1  0.15200813  0.03594438  0.44791405  1  -0.266877  -0.414195  -0.019667  3.065399  -0.006
O  O92  1  0.02939218  0.14012276  0.24700980  1  -0.308315  -0.4391  0.008747  2.387272  0.0
O  O93  1  0.97055041  0.85985011  0.74708078  1  -0.308274  -0.439119  -0.008728  2.387204  0.0
O  O94  1  0.28455119  0.95972711  0.24112946  1  -0.3033  -0.429902  0.034467  2.393956  0.023
O  O95  1  0.71543830  0.04028004  0.74115061  1  -0.303274  -0.429969  -0.034468  2.393773  -0.023
