# generated using pymatgen
data_CdH7C3SN3Cl2
_symmetry_space_group_name_H-M   'P 1'
_cell_length_a   7.05342728
_cell_length_b   10.42571013
_cell_length_c   12.28175678
_cell_angle_alpha   90.00069753
_cell_angle_beta   103.70139277
_cell_angle_gamma   89.99908446
_symmetry_Int_Tables_number   1
_chemical_formula_structural   CdH7C3SN3Cl2
_chemical_formula_sum   'Cd4 H28 C12 S4 N12 Cl8'
_cell_volume   877.46241039
_cell_formula_units_Z   4
loop_
 _symmetry_equiv_pos_site_id
 _symmetry_equiv_pos_as_xyz
  1  'x, y, z'
loop_
 _atom_site_type_symbol
 _atom_site_label
 _atom_site_symmetry_multiplicity
 _atom_site_fract_x
 _atom_site_fract_y
 _atom_site_fract_z
 _atom_site_occupancy
 _atom_site_hle17_bader_spin_density
 _atom_site_hle17_ddec_charge
 _atom_site_hle17_ddec_spin_density
 _atom_site_hle17_ddec_sum_bond_order
 _atom_site_hle17_magmom
 _atom_site_hse06_10hf_bader_spin_density
 _atom_site_hse06_10hf_ddec_charge
 _atom_site_hse06_10hf_ddec_spin_density
 _atom_site_hse06_10hf_ddec_sum_bond_order
 _atom_site_hse06_10hf_magmom
 _atom_site_hse06_bader_spin_density
 _atom_site_hse06_ddec_charge
 _atom_site_hse06_ddec_spin_density
 _atom_site_hse06_ddec_sum_bond_order
 _atom_site_hse06_magmom
 _atom_site_pbe_bader_spin_density
 _atom_site_pbe_cm5_charge
 _atom_site_pbe_ddec_charge
 _atom_site_pbe_ddec_spin_density
 _atom_site_pbe_ddec_sum_bond_order
 _atom_site_pbe_magmom
Cd  Cd0  1  0.88473557  0.82192605  0.66875343  1  0  0.958722  0  1.930411  0  0  0.798705  0  2.385475  0  0  0.843196  0  2.345952  0  0  0.593882  0.767001  0  2.413148  0
Cd  Cd1  1  0.61526873  0.32192931  0.33124429  1  0  0.958748  0  1.930529  0  0  0.798763  0  2.385605  0  0  0.843247  0  2.346081  0  0  0.59394  0.76706  0  2.413287  0
Cd  Cd2  1  0.11527263  0.17807410  0.33124382  1  0  0.958739  0  1.9304  0  0  0.798723  0  2.385468  0  0  0.843216  0  2.345943  0  0  0.593888  0.767018  0  2.41315  0
Cd  Cd3  1  0.38473676  0.67807468  0.66875995  1  0  0.95875  0  1.930495  0  0  0.798768  0  2.385574  0  0  0.843253  0  2.346052  0  0  0.593925  0.767065  0  2.413247  0
H  H4  1  0.75690608  0.05852927  0.53029087  1  0  0.281287  0  0.919001  0  0  0.268731  0  0.984522  0  0  0.274237  0  0.980617  0  0  0.275371  0.264396  0  0.988115  0
H  H5  1  0.74309829  0.55852649  0.46971402  1  0  0.281224  0  0.918989  0  0  0.268673  0  0.984495  0  0  0.27418  0  0.980584  0  0  0.275299  0.264339  0  0.988085  0
H  H6  1  0.24309181  0.94146705  0.46970181  1  0  0.281192  0  0.919007  0  0  0.268668  0  0.984483  0  0  0.274173  0  0.980574  0  0  0.275321  0.264335  0  0.988075  0
H  H7  1  0.25691019  0.44146983  0.53029304  1  0  0.281221  0  0.918993  0  0  0.268688  0  0.984462  0  0  0.274186  0  0.980574  0  0  0.275341  0.264356  0  0.988051  0
H  H8  1  0.99826699  0.07178296  0.56142315  1  0  0.280048  0  0.905056  0  0  0.271665  0  0.963402  0  0  0.276533  0  0.959955  0  0  0.296687  0.267933  0  0.966281  0
H  H9  1  0.50173395  0.57178034  0.43857329  1  0  0.280114  0  0.904963  0  0  0.271719  0  0.963328  0  0  0.276588  0  0.959879  0  0  0.296701  0.267987  0  0.966205  0
H  H10  1  0.00174248  0.92821335  0.43856775  1  0  0.280081  0  0.905096  0  0  0.271708  0  0.963425  0  0  0.276576  0  0.959978  0  0  0.29674  0.267979  0  0.966298  0
H  H11  1  0.49826568  0.42821694  0.56142939  1  0  0.280097  0  0.905001  0  0  0.27171  0  0.963354  0  0  0.276578  0  0.959906  0  0  0.296722  0.26798  0  0.96623  0
H  H12  1  0.64589423  0.86242883  0.89343362  1  0  0.067871  0  0.940419  0  0  0.082654  0  1.008061  0  0  0.082914  0  1.008046  0  0  0.092192  0.082347  0  1.008305  0
H  H13  1  0.85408460  0.36243397  0.10656859  1  0  0.06791  0  0.940545  0  0  0.082672  0  1.008204  0  0  0.08293  0  1.008185  0  0  0.092232  0.082368  0  1.008451  0
H  H14  1  0.35410665  0.13757133  0.10656189  1  0  0.067908  0  0.940404  0  0  0.082656  0  1.008068  0  0  0.082918  0  1.00805  0  0  0.092206  0.082353  0  1.008316  0
H  H15  1  0.14589604  0.63756906  0.89343086  1  0  0.067871  0  0.940515  0  0  0.082669  0  1.00817  0  0  0.082929  0  1.008157  0  0  0.092226  0.082363  0  1.008414  0
H  H16  1  0.88717456  0.91167553  0.95900643  1  0  0.052943  0  0.944432  0  0  0.065776  0  1.01567  0  0  0.066068  0  1.015773  0  0  0.088888  0.065472  0  1.015759  0
H  H17  1  0.61283085  0.41168224  0.04099639  1  0  0.05288  0  0.944595  0  0  0.065772  0  1.015777  0  0  0.066063  0  1.015876  0  0  0.088866  0.065468  0  1.015865  0
H  H18  1  0.11282484  0.08833134  0.04098807  1  0  0.052958  0  0.944392  0  0  0.065806  0  1.015618  0  0  0.066101  0  1.015717  0  0  0.088891  0.065502  0  1.015709  0
H  H19  1  0.38715433  0.58831696  0.95900934  1  0  0.052863  0  0.944497  0  0  0.065766  0  1.015719  0  0  0.066065  0  1.015816  0  0  0.088843  0.065457  0  1.015803  0
H  H20  1  0.51013496  0.07099095  0.90273247  1  0  0.090633  0  0.960459  0  0  0.102348  0  1.027643  0  0  0.103633  0  1.028091  0  0  0.08477  0.10091  0  1.028596  0
H  H21  1  0.98987841  0.57097918  0.09729160  1  0  0.090745  0  0.960391  0  0  0.10237  0  1.027669  0  0  0.103649  0  1.028123  0  0  0.084795  0.100929  0  1.028622  0
H  H22  1  0.48986180  0.92900921  0.09727147  1  0  0.09069  0  0.960499  0  0  0.102383  0  1.027681  0  0  0.10367  0  1.02813  0  0  0.084778  0.100943  0  1.028634  0
H  H23  1  0.01012112  0.42901330  0.90270781  1  0  0.090718  0  0.96046  0  0  0.102381  0  1.027666  0  0  0.103663  0  1.02812  0  0  0.084789  0.10094  0  1.028621  0
H  H24  1  0.70434715  0.07889474  0.02711225  1  0  0.107953  0  0.962692  0  0  0.122852  0  1.023587  0  0  0.124499  0  1.023338  0  0  0.089404  0.121627  0  1.023932  0
H  H25  1  0.79566686  0.57888918  0.97288918  1  0  0.107839  0  0.962792  0  0  0.122811  0  1.023602  0  0  0.124456  0  1.023353  0  0  0.089354  0.121583  0  1.023951  0
H  H26  1  0.29566241  0.92110926  0.97288192  1  0  0.107921  0  0.962775  0  0  0.12279  0  1.023691  0  0  0.124439  0  1.023443  0  0  0.08938  0.121567  0  1.024028  0
H  H27  1  0.20431957  0.42110618  0.02710937  1  0  0.108035  0  0.962786  0  0  0.122878  0  1.023707  0  0  0.124525  0  1.023458  0  0  0.089418  0.121654  0  1.024049  0
H  H28  1  0.85572989  0.22255497  0.65859816  1  0  0.275134  0  0.891537  0  0  0.259208  0  0.956694  0  0  0.265805  0  0.95154  0  0  0.308392  0.254657  0  0.960266  0
H  H29  1  0.64427989  0.72255902  0.34141474  1  0  0.275162  0  0.891884  0  0  0.259259  0  0.95701  0  0  0.265855  0  0.95186  0  0  0.308436  0.254729  0  0.960573  0
H  H30  1  0.14427812  0.77744039  0.34139255  1  0  0.27506  0  0.891717  0  0  0.259177  0  0.95685  0  0  0.265771  0  0.9517  0  0  0.308376  0.254647  0  0.960423  0
H  H31  1  0.35573739  0.27743826  0.65859507  1  0  0.275113  0  0.89174  0  0  0.259228  0  0.956852  0  0  0.265825  0  0.951701  0  0  0.308388  0.2547  0  0.960419  0
C  C32  1  0.81765040  0.08350263  0.77056984  1  0  0.358202  0  3.875531  0  0  0.31766  0  4.176269  0  0  0.34126  0  4.18522  0  0  0.23781  0.301577  0  4.169858  0
C  C33  1  0.68234582  0.58349409  0.22942286  1  0  0.358247  0  3.87504  0  0  0.317804  0  4.17571  0  0  0.341402  0  4.184656  0  0  0.237895  0.301752  0  4.169308  0
C  C34  1  0.18234001  0.91650616  0.22941538  1  0  0.358185  0  3.875381  0  0  0.317723  0  4.176078  0  0  0.341321  0  4.185023  0  0  0.23792  0.301679  0  4.169675  0
C  C35  1  0.31765112  0.41650990  0.77058762  1  0  0.358121  0  3.874776  0  0  0.317698  0  4.175448  0  0  0.341293  0  4.184392  0  0  0.237873  0.301649  0  4.169052  0
C  C36  1  0.75149272  0.94096109  0.89901818  1  0  0.058184  0  3.682479  0  0  0.002943  0  3.948269  0  0  0.008007  0  3.961256  0  0  -0.073335  -0.000354  0  3.939269  0
C  C37  1  0.74849751  0.44096151  0.10098463  1  0  0.058138  0  3.682538  0  0  0.002837  0  3.948431  0  0  0.007906  0  3.961387  0  0  -0.073454  -0.000466  0  3.939453  0
C  C38  1  0.24850679  0.05904290  0.10098041  1  0  0.058069  0  3.682507  0  0  0.00286  0  3.948207  0  0  0.007925  0  3.961194  0  0  -0.073367  -0.000448  0  3.93923  0
C  C39  1  0.25148312  0.55904152  0.89901481  1  0  0.058312  0  3.682361  0  0  0.002945  0  3.948307  0  0  0.007999  0  3.961286  0  0  -0.073326  -0.000346  0  3.93931  0
C  C40  1  0.66856309  0.06509532  0.93598839  1  0  -0.162582  0  3.609861  0  0  -0.197834  0  3.869727  0  0  -0.199038  0  3.880578  0  0  -0.14975  -0.196594  0  3.861513  0
C  C41  1  0.83144121  0.56508089  0.06401900  1  0  -0.16262  0  3.609969  0  0  -0.197772  0  3.869703  0  0  -0.198968  0  3.880543  0  0  -0.149676  -0.196526  0  3.861482  0
C  C42  1  0.33144355  0.93490771  0.06400541  1  0  -0.162465  0  3.609761  0  0  -0.197697  0  3.869638  0  0  -0.198912  0  3.880498  0  0  -0.149666  -0.196452  0  3.861425  0
C  C43  1  0.16854103  0.43491160  0.93598554  1  0  -0.16276  0  3.609909  0  0  -0.197907  0  3.86981  0  0  -0.199108  0  3.880657  0  0  -0.149755  -0.196665  0  3.861598  0
S  S44  1  0.78091912  0.19366393  0.87260112  1  0  -0.03323  0  2.288288  0  0  -0.027827  0  2.620639  0  0  -0.031347  0  2.617076  0  0  0.025269  -0.025432  0  2.624869  0
S  S45  1  0.71908213  0.69367654  0.12739657  1  0  -0.033196  0  2.287822  0  0  -0.02781  0  2.620086  0  0  -0.031333  0  2.616519  0  0  0.025297  -0.025418  0  2.624307  0
S  S46  1  0.21906705  0.80634006  0.12738845  1  0  -0.033271  0  2.288204  0  0  -0.027872  0  2.620486  0  0  -0.031386  0  2.616923  0  0  0.025244  -0.025477  0  2.624711  0
S  S47  1  0.28092343  0.30632842  0.87261012  1  0  -0.033173  0  2.287917  0  0  -0.02776  0  2.620149  0  0  -0.03128  0  2.616584  0  0  0.025311  -0.025366  0  2.624375  0
N  N48  1  0.88244814  0.04321020  0.59229303  1  0  -0.475369  0  3.093318  0  0  -0.446569  0  3.338629  0  0  -0.459148  0  3.340318  0  0  -0.518911  -0.436901  0  3.337669  0
N  N49  1  0.61755779  0.54320016  0.40770376  1  0  -0.475371  0  3.093162  0  0  -0.446511  0  3.338457  0  0  -0.459086  0  3.340146  0  0  -0.518852  -0.436812  0  3.337514  0
N  N50  1  0.11755559  0.95678899  0.40770039  1  0  -0.475385  0  3.093239  0  0  -0.446612  0  3.338661  0  0  -0.459191  0  3.340348  0  0  -0.518954  -0.436911  0  3.337725  0
N  N51  1  0.38244909  0.45679424  0.59229821  1  0  -0.475393  0  3.093556  0  0  -0.446553  0  3.338893  0  0  -0.459131  0  3.340586  0  0  -0.518913  -0.436854  0  3.337954  0
N  N52  1  0.87740654  0.12855087  0.68077653  1  0  -0.264869  0  3.39512  0  0  -0.225739  0  3.662613  0  0  -0.240966  0  3.673281  0  0  -0.352524  -0.215588  0  3.655297  0
N  N53  1  0.62260666  0.62857017  0.31923424  1  0  -0.265102  0  3.394782  0  0  -0.226064  0  3.662342  0  0  -0.241301  0  3.673008  0  0  -0.352672  -0.215996  0  3.65509  0
N  N54  1  0.12259727  0.87143874  0.31922016  1  0  -0.26479  0  3.394624  0  0  -0.225779  0  3.662222  0  0  -0.241001  0  3.672881  0  0  -0.352539  -0.215727  0  3.654977  0
N  N55  1  0.37741039  0.37143574  0.68076739  1  0  -0.265005  0  3.394482  0  0  -0.225996  0  3.662104  0  0  -0.241224  0  3.672754  0  0  -0.35264  -0.215932  0  3.654842  0
N  N56  1  0.79104844  0.96322523  0.78906499  1  0  -0.46347  0  3.157876  0  0  -0.38915  0  3.436405  0  0  -0.414704  0  3.452662  0  0  -0.390864  -0.371242  0  3.42469  0
N  N57  1  0.70895482  0.46322192  0.21095272  1  0  -0.463231  0  3.157713  0  0  -0.389065  0  3.436413  0  0  -0.414604  0  3.452655  0  0  -0.390902  -0.371162  0  3.424704  0
N  N58  1  0.20895110  0.03677588  0.21093441  1  0  -0.46342  0  3.158193  0  0  -0.389096  0  3.436617  0  0  -0.414649  0  3.452881  0  0  -0.39096  -0.371187  0  3.424901  0
N  N59  1  0.29104358  0.53678304  0.78905794  1  0  -0.463313  0  3.158011  0  0  -0.389115  0  3.436671  0  0  -0.414647  0  3.452923  0  0  -0.390968  -0.371212  0  3.424957  0
Cl  Cl60  1  0.52099679  0.80890714  0.52077529  1  0  -0.58165  0  0.996905  0  0  -0.521428  0  1.273038  0  0  -0.53867  0  1.251421  0  0  -0.30272  -0.508724  0  1.289422  0
Cl  Cl61  1  0.97900208  0.30891068  0.47922649  1  0  -0.581633  0  0.996847  0  0  -0.521448  0  1.273055  0  0  -0.53869  0  1.251439  0  0  -0.302717  -0.50874  0  1.289441  0
Cl  Cl62  1  0.47900286  0.19109206  0.47922820  1  0  -0.581642  0  0.996849  0  0  -0.521441  0  1.273037  0  0  -0.538686  0  1.25142  0  0  -0.302713  -0.508734  0  1.289423  0
Cl  Cl63  1  0.02100334  0.69109332  0.52077529  1  0  -0.581602  0  0.996891  0  0  -0.521399  0  1.273077  0  0  -0.538641  0  1.25146  0  0  -0.302705  -0.508693  0  1.289461  0
Cl  Cl64  1  0.26072271  0.87392070  0.76161743  1  0  -0.549822  0  0.959695  0  0  -0.483994  0  1.227747  0  0  -0.502278  0  1.207581  0  0  -0.304538  -0.471088  0  1.243531  0
Cl  Cl65  1  0.23928089  0.37391747  0.23838266  1  0  -0.549847  0  0.959717  0  0  -0.483994  0  1.227745  0  0  -0.502278  0  1.207579  0  0  -0.304543  -0.471082  0  1.243531  0
Cl  Cl66  1  0.73927986  0.12608137  0.23838643  1  0  -0.549849  0  0.959694  0  0  -0.484006  0  1.227716  0  0  -0.50229  0  1.207548  0  0  -0.304542  -0.471095  0  1.243502  0
Cl  Cl67  1  0.76072159  0.62608365  0.76161794  1  0  -0.549826  0  0.959679  0  0  -0.484009  0  1.227731  0  0  -0.502292  0  1.207565  0  0  -0.304555  -0.471099  0  1.243517  0
