# generated using pymatgen
data_InH23C37(NO3)2
_symmetry_space_group_name_H-M   'P 1'
_cell_length_a   8.56113832
_cell_length_b   15.74451226
_cell_length_c   27.05940328
_cell_angle_alpha   90.01921625
_cell_angle_beta   89.98579039
_cell_angle_gamma   96.43064643
_symmetry_Int_Tables_number   1
_chemical_formula_structural   InH23C37(NO3)2
_chemical_formula_sum   'In4 H92 C148 N8 O24'
_cell_volume   3624.41367068
_cell_formula_units_Z   4
loop_
 _symmetry_equiv_pos_site_id
 _symmetry_equiv_pos_as_xyz
  1  'x, y, z'
loop_
 _atom_site_type_symbol
 _atom_site_label
 _atom_site_symmetry_multiplicity
 _atom_site_fract_x
 _atom_site_fract_y
 _atom_site_fract_z
 _atom_site_occupancy
 _atom_site_pbe_bader_charge
 _atom_site_pbe_bader_spin_density
 _atom_site_pbe_cm5_charge
 _atom_site_pbe_ddec_charge
 _atom_site_pbe_ddec_spin_density
 _atom_site_pbe_ddec_sum_bond_order
 _atom_site_pbe_magmom
In  In0  1  0.22216562  0.01258180  0.79960713  1  1.833035  0  0.750659  1.266192  0  2.693532  0
In  In1  1  0.27776110  0.48728929  0.29968623  1  1.832029  0  0.750628  1.265993  0  2.694051  0
In  In2  1  0.77785788  0.98738280  0.20037546  1  1.832646  0  0.750768  1.266214  0  2.693186  0
In  In3  1  0.72226604  0.51272709  0.70031077  1  1.832429  0  0.750731  1.266177  0  2.693815  0
H  H4  1  0.52239187  0.59768882  0.05380385  1  0.063739  0  0.099588  0.099685  0  1.023362  0
H  H5  1  0.97740458  0.90236382  0.55372474  1  0.061618  0  0.099543  0.099419  0  1.023459  0
H  H6  1  0.47766900  0.40231541  0.94618428  1  0.063105  0  0.099609  0.099639  0  1.023515  0
H  H7  1  0.02247917  0.09761421  0.44628149  1  0.062104  0  0.099465  0.09934  0  1.023516  0
H  H8  1  0.38083914  0.59094814  0.13366889  1  0.08547  0  0.103533  0.104315  0  1.02302  0
H  H9  1  0.11884580  0.90898485  0.63358313  1  0.08745  0  0.103691  0.104316  0  1.023619  0
H  H10  1  0.61918528  0.40906631  0.86631149  1  0.085303  0  0.103509  0.104099  0  1.023274  0
H  H11  1  0.88104543  0.09097848  0.36641905  1  0.087711  0  0.103716  0.104495  0  1.023271  0
H  H12  1  0.61043314  0.37305644  0.17619459  1  0.077378  0  0.10065  0.100068  0  1.018588  0
H  H13  1  0.88970747  0.12704872  0.67622302  1  0.076467  0  0.100901  0.100579  0  1.018653  0
H  H14  1  0.38959456  0.62697401  0.82381054  1  0.077056  0  0.100638  0.100103  0  1.018515  0
H  H15  1  0.11040415  0.87300345  0.32375772  1  0.075894  0  0.100809  0.100407  0  1.018742  0
H  H16  1  0.75107595  0.37812296  0.09598476  1  0.063734  0  0.100075  0.103378  0  1.020437  0
H  H17  1  0.74915447  0.12209125  0.59601762  1  0.064223  0  0.099741  0.10298  0  1.020869  0
H  H18  1  0.24900001  0.62190365  0.90402961  1  0.064565  0  0.100034  0.103454  0  1.020455  0
H  H19  1  0.25092927  0.87796731  0.40396792  1  0.063578  0  0.099753  0.102957  0  1.020796  0
H  H20  1  0.72705335  0.35310491  0.01614633  1  0.081133  0  0.10156  0.100826  0  1.025789  0
H  H21  1  0.77299974  0.14701294  0.51616220  1  0.080429  0  0.101476  0.100791  0  1.025825  0
H  H22  1  0.27301674  0.64690444  0.98385695  1  0.081259  0  0.101622  0.100946  0  1.025624  0
H  H23  1  0.22696967  0.85300663  0.48383554  1  0.08089  0  0.101516  0.100987  0  1.025716  0
H  H24  1  0.94469874  0.49554347  0.89425002  1  0.079987  0  0.102972  0.103094  0  1.020342  0
H  H25  1  0.55529474  0.00447496  0.39429328  1  0.080067  0  0.102976  0.103158  0  1.020121  0
H  H26  1  0.05537258  0.50444351  0.10574329  1  0.080315  0  0.102982  0.103141  0  1.019933  0
H  H27  1  0.44475461  0.99554141  0.60569670  1  0.080019  0  0.102866  0.102911  0  1.020419  0
H  H28  1  0.74320271  0.62755688  0.01311744  1  0.026908  0  0.101577  0.10238  0  1.022547  0
H  H29  1  0.75688036  0.87255705  0.51308490  1  0.027158  0  0.101632  0.102522  0  1.022373  0
H  H30  1  0.25687334  0.37244735  0.98687217  1  0.025737  0  0.101648  0.102571  0  1.022285  0
H  H31  1  0.24310954  0.12745997  0.48691617  1  0.026836  0  0.10163  0.102509  0  1.02238  0
H  H32  1  0.96150164  0.72226367  0.99330395  1  0.081834  0  0.099043  0.101003  0  1.038689  0
H  H33  1  0.53865686  0.77782243  0.49329917  1  0.082211  0  0.099033  0.100826  0  1.038936  0
H  H34  1  0.03856591  0.27772202  0.00669120  1  0.081561  0  0.098978  0.100938  0  1.03852  0
H  H35  1  0.46139572  0.22219267  0.50669599  1  0.081916  0  0.098953  0.100746  0  1.039006  0
H  H36  1  0.07568739  0.85423160  0.95003396  1  0.114172  0  0.112763  0.121238  0  0.980593  0
H  H37  1  0.42444631  0.64581969  0.45003915  1  0.115315  0  0.112733  0.12123  0  0.980672  0
H  H38  1  0.92434749  0.14576561  0.04996600  1  0.114289  0  0.11281  0.121249  0  0.980602  0
H  H39  1  0.57561002  0.35419094  0.54996191  1  0.115102  0  0.112702  0.121025  0  0.980706  0
H  H40  1  0.96473623  0.73460929  0.80978400  1  0.033719  0  0.095322  0.091682  0  1.049938  0
H  H41  1  0.53520746  0.76536211  0.30978106  1  0.033553  0  0.0953  0.091581  0  1.050173  0
H  H42  1  0.03520038  0.26542690  0.19021485  1  0.033626  0  0.095306  0.091715  0  1.049915  0
H  H43  1  0.46475494  0.23465746  0.69021631  1  0.033566  0  0.095414  0.091613  0  1.050048  0
H  H44  1  0.85468213  0.60126228  0.85228087  1  0.086665  0  0.098777  0.103441  0  1.029732  0
H  H45  1  0.64528422  0.89874568  0.35227498  1  0.048379  0  0.098854  0.103537  0  1.029572  0
H  H46  1  0.14529948  0.39875984  0.14771169  1  0.048704  0  0.098816  0.103458  0  1.029497  0
H  H47  1  0.35468558  0.10127581  0.64771722  1  0.086146  0  0.09884  0.103489  0  1.029673  0
H  H48  1  0.66526024  0.25807833  0.95047410  1  0.056836  0  0.102129  0.104429  0  0.996975  0
H  H49  1  0.83473806  0.24202841  0.45048854  1  0.056018  0  0.102273  0.10453  0  0.996797  0
H  H50  1  0.33465752  0.74199687  0.04955025  1  0.057275  0  0.102241  0.104636  0  0.996911  0
H  H51  1  0.16526886  0.75799179  0.54949405  1  0.056024  0  0.10233  0.10461  0  0.996746  0
H  H52  1  0.74249904  0.12487643  0.91184021  1  0.102802  0  0.10941  0.11625  0  0.986538  0
H  H53  1  0.75742114  0.37514099  0.41182471  1  0.103679  0  0.10947  0.116454  0  0.986705  0
H  H54  1  0.25715133  0.87510867  0.08823107  1  0.106851  0  0.10948  0.115961  0  0.987066  0
H  H55  1  0.24254669  0.62487091  0.58815308  1  0.103369  0  0.10944  0.116426  0  0.986686  0
H  H56  1  0.17996277  0.26071031  0.86553652  1  0.061362  0  0.099578  0.102263  0  1.022608  0
H  H57  1  0.32010732  0.23912780  0.36555502  1  0.063016  0  0.099687  0.102412  0  1.022427  0
H  H58  1  0.81980121  0.73904911  0.13444015  1  0.060455  0  0.099816  0.102598  0  1.022578  0
H  H59  1  0.67988106  0.76085342  0.63443126  1  0.063367  0  0.099657  0.102311  0  1.022618  0
H  H60  1  0.10326647  0.39452967  0.90184701  1  0.064269  0  0.096309  0.096463  0  1.042838  0
H  H61  1  0.39685308  0.10540551  0.40191170  1  0.064273  0  0.096454  0.096515  0  1.042721  0
H  H62  1  0.89676399  0.60532114  0.09810084  1  0.070702  0  0.096293  0.096095  0  1.043127  0
H  H63  1  0.60315868  0.89458722  0.59808382  1  0.064099  0  0.096464  0.096457  0  1.042838  0
H  H64  1  0.32676961  0.82207078  0.80075312  1  0.07386  0  0.121191  0.083296  0  1.020259  0
H  H65  1  0.17319293  0.67792490  0.30087621  1  0.077759  0  0.121159  0.083088  0  1.019811  0
H  H66  1  0.67327440  0.17793663  0.19921173  1  0.077717  0  0.121081  0.083229  0  1.020064  0
H  H67  1  0.82686472  0.32209788  0.69913816  1  0.078346  0  0.121081  0.083023  0  1.020263  0
H  H68  1  0.56317674  0.74515397  0.78306981  1  0.09645  0  0.110895  0.119135  0  1.00714  0
H  H69  1  0.93689905  0.75481888  0.28308904  1  0.095963  0  0.11099  0.119226  0  1.007189  0
H  H70  1  0.43690062  0.25485665  0.21691574  1  0.095916  0  0.110931  0.119035  0  1.007248  0
H  H71  1  0.06315938  0.24520197  0.71692533  1  0.096524  0  0.110976  0.119136  0  1.007334  0
H  H72  1  0.82157130  0.83505349  0.76617291  1  0.12237  0  0.108664  0.103778  0  1.032723  0
H  H73  1  0.67858836  0.66491976  0.26610715  1  0.12109  0  0.108648  0.103894  0  1.032782  0
H  H74  1  0.17849208  0.16496863  0.23380968  1  0.123081  0  0.108745  0.103972  0  1.032739  0
H  H75  1  0.32147436  0.33510493  0.73389799  1  0.120849  0  0.108544  0.103837  0  1.03268  0
H  H76  1  0.83061569  0.99206538  0.76517880  1  0.133931  0  0.113085  0.120416  0  1.047678  0
H  H77  1  0.66951270  0.50790171  0.26513706  1  0.135195  0  0.113246  0.12049  0  1.047508  0
H  H78  1  0.16944509  0.00795547  0.23480638  1  0.133428  0  0.113098  0.120271  0  1.047774  0
H  H79  1  0.33055510  0.49212489  0.73485292  1  0.135937  0  0.113241  0.120647  0  1.047392  0
H  H80  1  0.83095713  0.11966869  0.77844036  1  0.140141  0  0.114876  0.130293  0  1.033947  0
H  H81  1  0.66907534  0.38030941  0.27840084  1  0.139681  0  0.11494  0.130335  0  1.033785  0
H  H82  1  0.16906335  0.88037197  0.22154962  1  0.14109  0  0.114926  0.130297  0  1.034127  0
H  H83  1  0.33095912  0.61972550  0.72160244  1  0.139983  0  0.11497  0.130493  0  1.0336  0
H  H84  1  0.80764422  0.27539788  0.78838626  1  0.119784  0  0.113121  0.108831  0  0.993828  0
H  H85  1  0.69234824  0.22458639  0.28832530  1  0.114403  0  0.113214  0.108763  0  0.994201  0
H  H86  1  0.19234414  0.72462873  0.21163255  1  0.119794  0  0.112994  0.108648  0  0.994004  0
H  H87  1  0.30767739  0.77544533  0.71166837  1  0.113576  0  0.113231  0.108848  0  0.994306  0
H  H88  1  0.54161852  0.32519611  0.79384018  1  0.121975  0  0.112767  0.12186  0  1.016925  0
H  H89  1  0.95832445  0.17477678  0.29384242  1  0.121818  0  0.112675  0.121791  0  1.017102  0
H  H90  1  0.45835662  0.67480624  0.20623221  1  0.122283  0  0.112759  0.121572  0  1.01717  0
H  H91  1  0.04169376  0.82524151  0.70614275  1  0.12131  0  0.112576  0.121629  0  1.017113  0
H  H92  1  0.30429861  0.21308162  0.79484058  1  0.107057  0  0.124775  0.091839  0  1.016581  0
H  H93  1  0.19564781  0.28689431  0.29494296  1  0.107809  0  0.124704  0.091821  0  1.016667  0
H  H94  1  0.69569590  0.78689582  0.20526138  1  0.106852  0  0.124851  0.09228  0  1.016338  0
H  H95  1  0.80438114  0.71311375  0.70503851  1  0.107689  0  0.124674  0.091804  0  1.016683  0
C  C96  1  0.54369544  0.54883597  0.08068360  1  0.011534  0  -0.086951  -0.12491  0  3.969228  0
C  C97  1  0.95617708  0.95121799  0.58063591  1  0.014793  0  -0.086982  -0.124838  0  3.969116  0
C  C98  1  0.45635543  0.45117082  0.91930711  1  0.012524  0  -0.087109  -0.125106  0  3.969363  0
C  C99  1  0.04375278  0.04877410  0.41936627  1  0.014116  0  -0.086782  -0.124502  0  3.968658  0
C  C100  1  0.46333491  0.54507730  0.12532687  1  -0.032293  0  -0.083582  -0.087047  0  3.981416  0
C  C101  1  0.03648750  0.95492666  0.62527215  1  -0.031836  0  -0.083535  -0.086979  0  3.982095  0
C  C102  1  0.53669275  0.45493587  0.87465942  1  -0.032167  0  -0.083355  -0.086486  0  3.981348  0
C  C103  1  0.96344792  0.04505840  0.37472781  1  -0.033126  0  -0.083813  -0.087256  0  3.982035  0
C  C104  1  0.48511092  0.48102412  0.15984759  1  -0.014832  0  -0.023565  -0.046919  0  4.005  0
C  C105  1  0.01480544  0.01900277  0.65981726  1  -0.030429  0  -0.023276  -0.046005  0  4.004989  0
C  C106  1  0.51490170  0.51899545  0.84014535  1  -0.030305  0  -0.023705  -0.047058  0  4.005119  0
C  C107  1  0.98520014  0.98100529  0.34017456  1  -0.030631  0  -0.023427  -0.046619  0  4.005183  0
C  C108  1  0.59052981  0.42154346  0.14890352  1  -0.059825  0  -0.084855  -0.08555  0  3.982878  0
C  C109  1  0.90954423  0.07855801  0.64890313  1  -0.059977  0  -0.085476  -0.087072  0  3.984891  0
C  C110  1  0.40950385  0.57848186  0.85109792  1  -0.059049  0  -0.084713  -0.085492  0  3.982927  0
C  C111  1  0.09051711  0.92147689  0.35108316  1  -0.059314  0  -0.085158  -0.086475  0  3.984547  0
C  C112  1  0.66875759  0.42449015  0.10380533  1  -0.019182  0  -0.090187  -0.13231  0  3.960308  0
C  C113  1  0.83135062  0.07566083  0.60380900  1  -0.018091  0  -0.089516  -0.131537  0  3.961135  0
C  C114  1  0.33129578  0.57552879  0.89619980  1  -0.020614  0  -0.090241  -0.132492  0  3.960655  0
C  C115  1  0.16869022  0.92437663  0.39618024  1  -0.017683  0  -0.089522  -0.131546  0  3.960976  0
C  C116  1  0.64542215  0.48779195  0.06861349  1  -0.086011  0  -0.000986  0.077211  0  3.983409  0
C  C117  1  0.85459516  0.01233028  0.56859499  1  -0.088889  0  -0.000977  0.077716  0  3.983645  0
C  C118  1  0.35463846  0.51221675  0.93138425  1  -0.084469  0  -0.000982  0.077169  0  3.983685  0
C  C119  1  0.14539020  0.98768737  0.43140127  1  -0.088031  0  -0.001078  0.077503  0  3.983299  0
C  C120  1  0.72512867  0.49004528  0.02017783  1  -0.022637  0  -0.008306  0.070597  0  4.026258  0
C  C121  1  0.77491041  0.01006920  0.52017153  1  -0.022314  0  -0.008752  0.069841  0  4.026148  0
C  C122  1  0.27494400  0.50995959  0.97982139  1  -0.022416  0  -0.008166  0.070983  0  4.026199  0
C  C123  1  0.22508443  0.98994909  0.47982547  1  -0.021932  0  -0.008602  0.070148  0  4.026401  0
C  C124  1  0.76001889  0.41404993  0.99775194  1  -0.035801  0  -0.085586  -0.178625  0  3.936843  0
C  C125  1  0.74001834  0.08604991  0.49776822  1  -0.034595  0  -0.085412  -0.178356  0  3.936153  0
C  C126  1  0.24005001  0.58595366  0.00224654  1  -0.03481  0  -0.085719  -0.179048  0  3.936803  0
C  C127  1  0.25997170  0.91396775  0.50222841  1  -0.034497  0  -0.085545  -0.178822  0  3.936823  0
C  C128  1  0.83862363  0.41521318  0.95233371  1  -0.071571  0  -0.007512  0.075042  0  4.032057  0
C  C129  1  0.66142820  0.08484442  0.45236071  1  -0.073675  0  -0.007348  0.074973  0  4.032538  0
C  C130  1  0.16144328  0.58477507  0.04766181  1  -0.074264  0  -0.007523  0.075297  0  4.032385  0
C  C131  1  0.33857726  0.91516876  0.54763444  1  -0.073878  0  -0.007315  0.07508  0  4.032691  0
C  C132  1  0.88224031  0.49395031  0.92938975  1  0.040108  0  -0.081571  -0.164645  0  3.923297  0
C  C133  1  0.61779378  0.00609040  0.42941490  1  0.041268  0  -0.081743  -0.16469  0  3.923941  0
C  C134  1  0.11782750  0.50603666  0.07060393  1  0.040275  0  -0.08148  -0.164621  0  3.923309  0
C  C135  1  0.38222440  0.99392214  0.57057989  1  0.041426  0  -0.081627  -0.164529  0  3.924112  0
C  C136  1  0.84807034  0.57069970  0.95073242  1  0.005234  0  -0.00596  0.079219  0  4.019868  0
C  C137  1  0.65196672  0.92935744  0.45073503  1  0.00529  0  -0.005772  0.078979  0  4.020358  0
C  C138  1  0.15199840  0.42929175  0.04926088  1  0.005195  0  -0.005901  0.079217  0  4.020343  0
C  C139  1  0.34804211  0.07065510  0.54926160  1  0.005706  0  -0.005787  0.079326  0  4.020173  0
C  C140  1  0.76876656  0.56795703  0.99605826  1  -0.04037  0  -0.083594  -0.169704  0  3.92212  0
C  C141  1  0.73128950  0.93214033  0.49604239  1  -0.041734  0  -0.083679  -0.169669  0  3.922416  0
C  C142  1  0.23130505  0.43204273  0.00393652  1  -0.039202  0  -0.083717  -0.169941  0  3.921935  0
C  C143  1  0.26870584  0.06787477  0.50395572  1  -0.042291  0  -0.083657  -0.169782  0  3.92236  0
C  C144  1  0.90164473  0.65206593  0.92581835  1  -0.082012  0  -0.002462  0.076998  0  3.989693  0
C  C145  1  0.59838286  0.84798242  0.42581393  1  -0.081842  0  -0.002364  0.077417  0  3.989532  0
C  C146  1  0.09839625  0.34793255  0.07417644  1  -0.082304  0  -0.002771  0.076637  0  3.990064  0
C  C147  1  0.40162897  0.15203331  0.57418048  1  -0.081978  0  -0.002512  0.076888  0  3.989433  0
C  C148  1  0.96067758  0.72480133  0.95304253  1  -0.017867  0  -0.088999  -0.133411  0  3.966743  0
C  C149  1  0.53940181  0.77526340  0.45303811  1  0.004101  0  -0.089116  -0.133425  0  3.967697  0
C  C150  1  0.03936534  0.27519523  0.04695337  1  -0.017686  0  -0.088857  -0.133254  0  3.967101  0
C  C151  1  0.46062988  0.22475234  0.54695778  1  -0.017652  0  -0.088881  -0.133148  0  3.967393  0
C  C152  1  0.02525116  0.79868411  0.92909817  1  -0.066485  0  -0.076518  -0.07808  0  3.955107  0
C  C153  1  0.47482500  0.70135945  0.42909819  1  -0.088986  0  -0.076607  -0.07819  0  3.955493  0
C  C154  1  0.97477983  0.20131692  0.07090031  1  -0.066451  0  -0.076555  -0.07819  0  3.955231  0
C  C155  1  0.52521070  0.29865309  0.57090066  1  -0.067134  0  -0.076491  -0.077707  0  3.954958  0
C  C156  1  0.02772322  0.80206187  0.87734277  1  -0.021941  0  -0.018061  -0.031323  0  3.990938  0
C  C157  1  0.47230917  0.69794801  0.37734242  1  -0.022261  0  -0.017996  -0.031212  0  3.990488  0
C  C158  1  0.97228302  0.19794940  0.12265645  1  -0.022787  0  -0.018035  -0.030896  0  3.990161  0
C  C159  1  0.52770603  0.30206709  0.62265716  1  -0.021928  0  -0.018119  -0.031324  0  3.990594  0
C  C160  1  0.96340863  0.73100484  0.84997409  1  0.013589  0  -0.089057  -0.092345  0  3.995217  0
C  C161  1  0.53657444  0.76899299  0.34997153  1  0.013473  0  -0.089006  -0.092395  0  3.995562  0
C  C162  1  0.03656584  0.26901665  0.15002401  1  0.014248  0  -0.088921  -0.092324  0  3.995031  0
C  C163  1  0.46340742  0.23102467  0.65002547  1  0.013566  0  -0.089186  -0.092595  0  3.995762  0
C  C164  1  0.90248251  0.65659344  0.87388482  1  -0.036184  0  -0.093762  -0.138824  0  3.982562  0
C  C165  1  0.59750260  0.84342615  0.37387930  1  0.002253  0  -0.093863  -0.138902  0  3.982554  0
C  C166  1  0.09751037  0.34342101  0.12611107  1  0.002165  0  -0.093975  -0.139022  0  3.982373  0
C  C167  1  0.40248225  0.15659470  0.62611474  1  -0.035279  0  -0.093786  -0.138661  0  3.982509  0
C  C168  1  0.87904058  0.33584859  0.92907895  1  -0.071727  0  -0.007467  0.063895  0  4.010626  0
C  C169  1  0.62100479  0.16418220  0.42912036  1  -0.072671  0  -0.007091  0.064321  0  4.010742  0
C  C170  1  0.12095708  0.66411538  0.07091879  1  -0.071818  0  -0.007288  0.063606  0  4.011341  0
C  C171  1  0.37899949  0.83582522  0.57087073  1  -0.072374  0  -0.00722  0.064034  0  4.011126  0
C  C172  1  0.77864134  0.25891018  0.93194413  1  -0.096322  0  -0.091706  -0.13608  0  3.982262  0
C  C173  1  0.72136234  0.24113837  0.43196743  1  -0.095299  0  -0.091587  -0.13589  0  3.982599  0
C  C174  1  0.22125739  0.74108959  0.06807726  1  -0.095176  0  -0.091595  -0.136337  0  3.983078  0
C  C175  1  0.27863352  0.75887353  0.56801996  1  -0.095156  0  -0.091559  -0.135728  0  3.982684  0
C  C176  1  0.82099678  0.18433648  0.91055304  1  -0.021  0  -0.081869  -0.087856  0  3.983675  0
C  C177  1  0.67897827  0.31565976  0.41055861  1  -0.024238  0  -0.08215  -0.088593  0  3.98408  0
C  C178  1  0.17874241  0.81561472  0.08948498  1  -0.02387  0  -0.082156  -0.08796  0  3.984619  0
C  C179  1  0.32100693  0.68434574  0.58942214  1  -0.024303  0  -0.082179  -0.088631  0  3.984279  0
C  C180  1  0.96609141  0.18463937  0.88654881  1  -0.037341  0  -0.020603  -0.036712  0  3.975683  0
C  C181  1  0.53389883  0.31528195  0.38656029  1  -0.036663  0  -0.020332  -0.035858  0  3.975762  0
C  C182  1  0.03361095  0.81522937  0.11347590  1  -0.033788  0  -0.020286  -0.034435  0  3.975126  0
C  C183  1  0.46607402  0.68471461  0.61342673  1  -0.0367  0  -0.020376  -0.036038  0  3.975978  0
C  C184  1  0.06654272  0.26111118  0.88365888  1  -0.021976  0  -0.089546  -0.094462  0  4.002357  0
C  C185  1  0.43350075  0.23879235  0.38368292  1  -0.02049  0  -0.090042  -0.095312  0  4.002983  0
C  C186  1  0.93326469  0.73872304  0.11633480  1  -0.021453  0  -0.090305  -0.09638  0  4.00347  0
C  C187  1  0.56648636  0.76119973  0.61630595  1  -0.021189  0  -0.090129  -0.0953  0  4.003281  0
C  C188  1  0.02299237  0.33586267  0.90404588  1  -0.01607  0  -0.095646  -0.139896  0  3.997892  0
C  C189  1  0.47707939  0.16409530  0.40408877  1  -0.017049  0  -0.095946  -0.139891  0  3.997788  0
C  C190  1  0.97696873  0.66402011  0.09593560  1  -0.024326  0  -0.095447  -0.138625  0  3.9978  0
C  C191  1  0.52292071  0.83590318  0.59590417  1  -0.016846  0  -0.095799  -0.139571  0  3.997728  0
C  C192  1  0.39832464  0.47795603  0.20739262  1  1.497611  0  0.204933  0.544482  0  4.222302  0
C  C193  1  0.10149449  0.02200609  0.70736044  1  1.513592  0  0.204909  0.544287  0  4.222968  0
C  C194  1  0.60167582  0.52207824  0.79259884  1  1.511237  0  0.205244  0.544545  0  4.222872  0
C  C195  1  0.89850731  0.97799494  0.29262917  1  1.513141  0  0.205379  0.54496  0  4.222058  0
C  C196  1  0.10263545  0.87882303  0.85142682  1  1.493255  0  0.21075  0.551947  0  4.208179  0
C  C197  1  0.39741806  0.62114887  0.35143461  1  1.492665  0  0.210475  0.551514  0  4.207881  0
C  C198  1  0.89739594  0.12117993  0.14857313  1  1.493936  0  0.210495  0.551313  0  4.208443  0
C  C199  1  0.60261127  0.37886111  0.64856831  1  1.492918  0  0.210465  0.551299  0  4.208218  0
C  C200  1  0.01098596  0.10525051  0.86213179  1  1.574599  0  0.20861  0.571008  0  4.219239  0
C  C201  1  0.48897309  0.39463508  0.36215288  1  1.572675  0  0.208517  0.57075  0  4.220829  0
C  C202  1  0.98861252  0.89456200  0.13792397  1  1.573375  0  0.208568  0.568693  0  4.221653  0
C  C203  1  0.51099105  0.60535892  0.63783415  1  1.573606  0  0.20868  0.570778  0  4.220562  0
C  C204  1  0.44084927  0.85688725  0.79231687  1  0.549312  0  0.06174  0.106516  0  3.954291  0
C  C205  1  0.05915579  0.64309171  0.29240891  1  0.547921  0  0.061352  0.10602  0  3.953119  0
C  C206  1  0.55920459  0.14311697  0.20765537  1  0.545891  0  0.061676  0.106148  0  3.954088  0
C  C207  1  0.94090381  0.35692915  0.70759955  1  0.546801  0  0.061694  0.106416  0  3.953321  0
C  C208  1  0.57213771  0.81479948  0.78252286  1  -0.015301  0  -0.077004  -0.127559  0  3.949421  0
C  C209  1  0.92792687  0.68517151  0.28255503  1  -0.017964  0  -0.07674  -0.126971  0  3.949309  0
C  C210  1  0.42792642  0.18520921  0.21745751  1  -0.016829  0  -0.076861  -0.126888  0  3.949176  0
C  C211  1  0.07213026  0.31484870  0.71745416  1  -0.017126  0  -0.077007  -0.127174  0  3.949231  0
C  C212  1  0.71394518  0.86421865  0.77239329  1  -0.079355  0  -0.056584  -0.007459  0  3.925996  0
C  C213  1  0.78616412  0.63575042  0.27237632  1  -0.075716  0  -0.056732  -0.008102  0  3.92612  0
C  C214  1  0.28610988  0.13579707  0.22758671  1  -0.079058  0  -0.056969  -0.00845  0  3.92651  0
C  C215  1  0.21389691  0.36427171  0.72762697  1  -0.075619  0  -0.056495  -0.007787  0  3.926  0
C  C216  1  0.72007508  0.95290366  0.77202632  1  0.032284  0  -0.063268  -0.114583  0  3.876246  0
C  C217  1  0.78002341  0.54706694  0.27202117  1  0.031814  0  -0.063221  -0.114461  0  3.875703  0
C  C218  1  0.27998634  0.04711462  0.22795663  1  0.034071  0  -0.063042  -0.113827  0  3.875836  0
C  C219  1  0.22004256  0.45295647  0.72797398  1  0.030499  0  -0.063311  -0.114774  0  3.875987  0
C  C220  1  0.58312828  0.99064640  0.78182403  1  0.546808  0  0.13682  0.177532  0  3.95894  0
C  C221  1  0.91691063  0.50933089  0.28187320  1  0.545292  0  0.137124  0.177409  0  3.958261  0
C  C222  1  0.41692675  0.00936358  0.21816706  1  0.544178  0  0.136749  0.177154  0  3.95882  0
C  C223  1  0.08314637  0.49068868  0.71812306  1  0.545801  0  0.137015  0.177176  0  3.958863  0
C  C224  1  0.57975929  0.08453898  0.78319509  1  0.463722  0  0.13837  0.182897  0  3.962265  0
C  C225  1  0.92025347  0.41544234  0.28323576  1  0.464507  0  0.138233  0.183118  0  3.962011  0
C  C226  1  0.42027340  0.91547038  0.21682705  1  0.463829  0  0.138665  0.183293  0  3.962525  0
C  C227  1  0.07979069  0.58457723  0.71675644  1  0.465244  0  0.138183  0.18294  0  3.961747  0
C  C228  1  0.71627699  0.14255135  0.78196520  1  0.021374  0  -0.067876  -0.145251  0  3.902414  0
C  C229  1  0.78374267  0.35743118  0.28195192  1  0.020974  0  -0.067987  -0.145382  0  3.902208  0
C  C230  1  0.28373550  0.85747334  0.21805139  1  0.020411  0  -0.068186  -0.145517  0  3.902738  0
C  C231  1  0.21629062  0.64259798  0.71804324  1  0.019564  0  -0.067924  -0.145361  0  3.901979  0
C  C232  1  0.70284293  0.22939722  0.78706620  1  -0.056754  0  -0.055143  -0.00943  0  3.942409  0
C  C233  1  0.79715039  0.27058693  0.28704257  1  -0.050857  0  -0.055087  -0.009192  0  3.943085  0
C  C234  1  0.29715111  0.77062301  0.21297035  1  -0.056924  0  -0.054912  -0.009357  0  3.942677  0
C  C235  1  0.20287810  0.72944158  0.71294704  1  -0.051008  0  -0.055185  -0.009492  0  3.943215  0
C  C236  1  0.55448817  0.25741773  0.79105372  1  -0.041677  0  -0.072936  -0.117739  0  3.955058  0
C  C237  1  0.94547556  0.24255538  0.29106742  1  -0.041517  0  -0.072732  -0.11757  0  3.954883  0
C  C238  1  0.44550125  0.74258591  0.20902052  1  -0.04119  0  -0.07301  -0.117347  0  3.955101  0
C  C239  1  0.05454641  0.75746419  0.70891776  1  -0.041698  0  -0.072674  -0.11717  0  3.954323  0
C  C240  1  0.42383238  0.19647736  0.79112061  1  0.512058  0  0.060138  0.099107  0  3.946626  0
C  C241  1  0.07613231  0.30349073  0.29118235  1  0.511407  0  0.059799  0.098743  0  3.94654  0
C  C242  1  0.57616764  0.80351541  0.20896250  1  0.511666  0  0.059626  0.098114  0  3.947071  0
C  C243  1  0.92390003  0.69652245  0.70880098  1  0.512512  0  0.059744  0.098373  0  3.946464  0
N  N244  1  0.43703661  0.11245822  0.78785262  1  -1.290334  0  -0.298565  -0.280117  0  3.496954  0
N  N245  1  0.06293728  0.38750702  0.28793394  1  -1.291148  0  -0.29827  -0.27988  0  3.49835  0
N  N246  1  0.56298849  0.88753710  0.21220425  1  -1.290334  0  -0.298426  -0.279748  0  3.497463  0
N  N247  1  0.93710090  0.61250615  0.71205123  1  -1.290548  0  -0.298203  -0.279574  0  3.497977  0
N  N248  1  0.44649756  0.94224659  0.79176475  1  -1.290146  0  -0.293585  -0.273863  0  3.501368  0
N  N249  1  0.05349877  0.55773114  0.29186381  1  -1.29037  0  -0.293888  -0.273538  0  3.499457  0
N  N250  1  0.55355591  0.05775571  0.20821156  1  -1.288311  0  -0.293632  -0.273661  0  3.500988  0
N  N251  1  0.94655369  0.44228908  0.70814095  1  -1.290846  0  -0.293869  -0.273605  0  3.499747  0
O  O252  1  0.28923439  0.52566999  0.21413371  1  -1.15511  0  -0.3038  -0.55043  0  2.158437  0
O  O253  1  0.21036776  0.97415040  0.71409156  1  -1.155605  0  -0.303993  -0.550724  0  2.1594  0
O  O254  1  0.71074866  0.47435341  0.78584888  1  -1.154541  0  -0.303925  -0.550454  0  2.158916  0
O  O255  1  0.78952376  0.02578033  0.28591320  1  -1.155207  0  -0.304287  -0.55102  0  2.15912  0
O  O256  1  0.43653748  0.42858531  0.24235791  1  -1.17292  0  -0.304118  -0.565471  0  2.202919  0
O  O257  1  0.06345671  0.07144941  0.74233535  1  -1.173031  0  -0.304109  -0.565321  0  2.203211  0
O  O258  1  0.56348575  0.57146878  0.75764204  1  -1.173492  0  -0.304305  -0.565615  0  2.203241  0
O  O259  1  0.93665857  0.92860914  0.25763911  1  -1.172785  0  -0.304185  -0.565584  0  2.203182  0
O  O260  1  0.19914885  0.93290235  0.87355518  1  -1.141633  0  -0.29496  -0.531368  0  2.137012  0
O  O261  1  0.30092569  0.56709070  0.37358846  1  -1.140189  0  -0.294812  -0.531203  0  2.137185  0
O  O262  1  0.80097382  0.06706736  0.12643258  1  -1.141658  0  -0.294766  -0.531107  0  2.137169  0
O  O263  1  0.69912438  0.43291226  0.62641704  1  -1.140613  0  -0.2947  -0.531138  0  2.137592  0
O  O264  1  0.07235782  0.88797394  0.80488182  1  -1.147103  0  -0.300674  -0.563089  0  2.239233  0
O  O265  1  0.42767047  0.61192959  0.30488886  1  -1.147074  0  -0.3003  -0.562515  0  2.238629  0
O  O266  1  0.92761378  0.11204500  0.19512147  1  -1.147274  0  -0.300603  -0.56285  0  2.239081  0
O  O267  1  0.57235511  0.38808487  0.69511368  1  -1.147559  0  -0.30037  -0.562401  0  2.238326  0
O  O268  1  0.91418164  0.04082838  0.85697499  1  -1.170549  0  -0.312613  -0.541056  0  2.118863  0
O  O269  1  0.58574489  0.45906895  0.35700938  1  -1.169141  0  -0.312469  -0.541053  0  2.119076  0
O  O270  1  0.08541435  0.95895543  0.14319386  1  -1.168863  0  -0.312517  -0.540362  0  2.120195  0
O  O271  1  0.41421044  0.54092760  0.64297321  1  -1.16956  0  -0.312471  -0.540877  0  2.118847  0
O  O272  1  0.15590694  0.11293989  0.84586757  1  -1.157624  0  -0.315239  -0.586512  0  2.305777  0
O  O273  1  0.34407164  0.38691103  0.34588829  1  -1.157962  0  -0.315369  -0.586498  0  2.306826  0
O  O274  1  0.84359389  0.88688025  0.15409728  1  -1.161197  0  -0.315067  -0.585501  0  2.30624  0
O  O275  1  0.65588640  0.61308169  0.65410354  1  -1.157819  0  -0.315505  -0.586642  0  2.306588  0
