# generated using pymatgen
data_ZnH10C15NO4
_symmetry_space_group_name_H-M   'P 1'
_cell_length_a   9.23568519
_cell_length_b   10.66542121
_cell_length_c   15.10631595
_cell_angle_alpha   89.99981392
_cell_angle_beta   89.99955464
_cell_angle_gamma   106.26667584
_symmetry_Int_Tables_number   1
_chemical_formula_structural   ZnH10C15NO4
_chemical_formula_sum   'Zn4 H40 C60 N4 O16'
_cell_volume   1428.44202877
_cell_formula_units_Z   4
loop_
 _symmetry_equiv_pos_site_id
 _symmetry_equiv_pos_as_xyz
  1  'x, y, z'
loop_
 _atom_site_type_symbol
 _atom_site_label
 _atom_site_symmetry_multiplicity
 _atom_site_fract_x
 _atom_site_fract_y
 _atom_site_fract_z
 _atom_site_occupancy
 _atom_site_pbe_bader_spin_density
 _atom_site_pbe_cm5_charge
 _atom_site_pbe_ddec_charge
 _atom_site_pbe_ddec_spin_density
 _atom_site_pbe_ddec_sum_bond_order
 _atom_site_pbe_magmom
Zn  Zn0  1  0.63788671  0.61301986  0.00376834  1  0  0.674354  0.843617  0  2.373385  0
Zn  Zn1  1  0.86211244  0.88697897  0.50376958  1  0  0.67434  0.843582  0  2.37331  0
Zn  Zn2  1  0.36210781  0.38697608  0.99623494  1  0  0.67439  0.843699  0  2.373257  0
Zn  Zn3  1  0.13788969  0.11302383  0.49623303  1  0  0.674365  0.843618  0  2.373287  0
H  H4  1  0.92389989  0.64058292  0.91409017  1  0  0.117543  0.094214  0  1.022683  0
H  H5  1  0.57610412  0.85941366  0.41408728  1  0  0.117556  0.094245  0  1.022654  0
H  H6  1  0.07609540  0.35941206  0.08590185  1  0  0.11754  0.094306  0  1.022543  0
H  H7  1  0.42389569  0.14059206  0.58590541  1  0  0.117536  0.094248  0  1.02261  0
H  H8  1  0.18999410  0.77486203  0.92125563  1  0  0.10433  0.110219  0  1.043455  0
H  H9  1  0.31000907  0.72513505  0.42125329  1  0  0.104326  0.110273  0  1.043352  0
H  H10  1  0.81000305  0.22513197  0.07873639  1  0  0.104276  0.11014  0  1.043669  0
H  H11  1  0.68999012  0.27486872  0.57873807  1  0  0.104307  0.110174  0  1.043494  0
H  H12  1  0.06127502  0.98973279  0.13636742  1  0  0.113283  0.124931  0  0.977774  0
H  H13  1  0.43871640  0.51026358  0.63636725  1  0  0.113294  0.125073  0  0.977618  0
H  H14  1  0.93872673  0.01024853  0.86363321  1  0  0.11335  0.125112  0  0.977547  0
H  H15  1  0.56127754  0.48974408  0.36362808  1  0  0.113333  0.12506  0  0.977607  0
H  H16  1  0.79805932  0.84524845  0.11912869  1  0  0.124493  0.100393  0  0.97415  0
H  H17  1  0.70193310  0.65474750  0.61912928  1  0  0.124467  0.100312  0  0.974236  0
H  H18  1  0.20194134  0.15473287  0.88087260  1  0  0.124437  0.100298  0  0.974051  0
H  H19  1  0.29805870  0.34526698  0.38087134  1  0  0.124451  0.100323  0  0.974053  0
H  H20  1  0.32196349  0.06631387  0.07905814  1  0  0.105245  0.113081  0  1.015611  0
H  H21  1  0.17803265  0.43368543  0.57906081  1  0  0.105265  0.113072  0  1.015564  0
H  H22  1  0.67803084  0.93367134  0.92094249  1  0  0.105221  0.113003  0  1.015653  0
H  H23  1  0.82197367  0.56632031  0.42093784  1  0  0.105224  0.113047  0  1.01556  0
H  H24  1  0.41333527  0.86955465  0.95600866  1  0  0.103678  0.100188  0  1.023652  0
H  H25  1  0.08666070  0.63043824  0.45600695  1  0  0.103656  0.100156  0  1.023662  0
H  H26  1  0.58665985  0.13043642  0.04398799  1  0  0.103671  0.100169  0  1.023701  0
H  H27  1  0.91333382  0.36955771  0.54398904  1  0  0.103664  0.100114  0  1.023699  0
H  H28  1  0.53356016  0.85727187  0.78611720  1  0  0.103814  0.105122  0  1.024728  0
H  H29  1  0.96643551  0.64274424  0.28611763  1  0  0.103849  0.105168  0  1.024686  0
H  H30  1  0.46644541  0.14274167  0.21388144  1  0  0.103834  0.105209  0  1.024675  0
H  H31  1  0.03355720  0.35726634  0.71387969  1  0  0.103831  0.105142  0  1.024742  0
H  H32  1  0.40112439  0.96409008  0.67608659  1  0  0.10176  0.100787  0  1.035951  0
H  H33  1  0.09886676  0.53591379  0.17608902  1  0  0.101721  0.100803  0  1.035881  0
H  H34  1  0.59886770  0.03591855  0.32391669  1  0  0.101734  0.100819  0  1.035921  0
H  H35  1  0.90112901  0.46408607  0.82391491  1  0  0.101751  0.100825  0  1.035972  0
H  H36  1  0.00801344  0.63600790  0.69078112  1  0  0.103583  0.107131  0  1.012791  0
H  H37  1  0.49198812  0.86398515  0.19077359  1  0  0.103629  0.107205  0  1.012817  0
H  H38  1  0.99199206  0.36398515  0.30922348  1  0  0.103591  0.107156  0  1.01282  0
H  H39  1  0.50801398  0.13601082  0.80922836  1  0  0.103645  0.107182  0  1.012818  0
H  H40  1  0.14157037  0.52939736  0.80150813  1  0  0.102827  0.106198  0  1.037545  0
H  H41  1  0.35844007  0.97060751  0.30149899  1  0  0.102853  0.106273  0  1.037519  0
H  H42  1  0.85844832  0.47060645  0.19849581  1  0  0.102832  0.106232  0  1.037521  0
H  H43  1  0.64156175  0.02939431  0.69849833  1  0  0.102844  0.10627  0  1.037537  0
C  C44  1  0.96033669  0.71911480  0.96228572  1  0  0.045451  0.090948  0  3.93905  0
C  C45  1  0.53966334  0.78088139  0.46228452  1  0  0.045374  0.090799  0  3.939122  0
C  C46  1  0.03965983  0.28087725  0.03770763  1  0  0.045472  0.090966  0  3.938814  0
C  C47  1  0.46033354  0.21912530  0.53771147  1  0  0.045467  0.091002  0  3.93885  0
C  C48  1  0.10866564  0.79399543  0.96767149  1  0  -0.08125  -0.166696  0  3.921657  0
C  C49  1  0.39133340  0.70599737  0.46766748  1  0  -0.081161  -0.166656  0  3.92154  0
C  C50  1  0.89132994  0.20599369  0.03232318  1  0  -0.08119  -0.166645  0  3.921909  0
C  C51  1  0.60866223  0.29400541  0.53232454  1  0  -0.081246  -0.166712  0  3.921735  0
C  C52  1  0.15128123  0.89495000  0.03080022  1  0  0.010269  0.147783  0  4.033287  0
C  C53  1  0.34871505  0.60504722  0.53079892  1  0  0.010157  0.14765  0  4.033549  0
C  C54  1  0.84871575  0.10504010  0.96919776  1  0  0.010131  0.147595  0  4.033552  0
C  C55  1  0.65128337  0.39495752  0.46919641  1  0  0.01018  0.147654  0  4.033525  0
C  C56  1  0.03616420  0.91285733  0.08642157  1  0  -0.078189  -0.175244  0  3.935448  0
C  C57  1  0.46382983  0.58713847  0.58641977  1  0  -0.07821  -0.175484  0  3.935686  0
C  C58  1  0.96383415  0.08712692  0.91357839  1  0  -0.078281  -0.175555  0  3.93546  0
C  C59  1  0.53616830  0.41287212  0.41357622  1  0  -0.078233  -0.175394  0  3.935464  0
C  C60  1  0.88954696  0.83316850  0.07734265  1  0  0.051448  0.097456  0  3.937997  0
C  C61  1  0.61044764  0.66682583  0.57734233  1  0  0.05146  0.09754  0  3.938229  0
C  C62  1  0.11045355  0.16681575  0.92265732  1  0  0.051559  0.097749  0  3.937889  0
C  C63  1  0.38954833  0.33318476  0.42265499  1  0  0.051506  0.097604  0  3.938011  0
C  C64  1  0.30426081  0.97936268  0.03743406  1  0  -0.080488  -0.136928  0  3.930458  0
C  C65  1  0.19573754  0.52063449  0.53743436  1  0  -0.080429  -0.136742  0  3.93048  0
C  C66  1  0.69573554  0.02062546  0.96256458  1  0  -0.080386  -0.136654  0  3.930516  0
C  C67  1  0.80426320  0.47936733  0.46256163  1  0  -0.080424  -0.136819  0  3.930486  0
C  C68  1  0.42549364  0.95715548  0.99601298  1  0  -0.07467  -0.045794  0  3.979998  0
C  C69  1  0.07450342  0.54283904  0.49601353  1  0  -0.074658  -0.045888  0  3.980016  0
C  C70  1  0.57450333  0.04283461  0.00398433  1  0  -0.074655  -0.045868  0  3.980087  0
C  C71  1  0.92549173  0.45715886  0.50398378  1  0  -0.07466  -0.045736  0  3.979955  0
C  C72  1  0.34382826  0.68724579  0.80011929  1  0  -0.018511  -0.035382  0  3.978388  0
C  C73  1  0.15617944  0.81276397  0.30011547  1  0  -0.018577  -0.035237  0  3.978332  0
C  C74  1  0.65618550  0.31276289  0.19988332  1  0  -0.018541  -0.035127  0  3.978247  0
C  C75  1  0.84382192  0.18723981  0.69988383  1  0  -0.018545  -0.035253  0  3.978408  0
C  C76  1  0.41846646  0.80984112  0.76500650  1  0  -0.087179  -0.104739  0  3.986611  0
C  C77  1  0.08153496  0.69016792  0.26500665  1  0  -0.087102  -0.104699  0  3.986424  0
C  C78  1  0.58153909  0.19016559  0.23499546  1  0  -0.087114  -0.104834  0  3.986519  0
C  C79  1  0.91846455  0.30983682  0.73499530  1  0  -0.087103  -0.104658  0  3.986467  0
C  C80  1  0.34515501  0.86889785  0.70427637  1  0  -0.0855  -0.095047  0  3.966653  0
C  C81  1  0.15484036  0.63110678  0.20427698  1  0  -0.085529  -0.095197  0  3.966481  0
C  C82  1  0.65484558  0.13110689  0.29572691  1  0  -0.085521  -0.095244  0  3.966697  0
C  C83  1  0.84515387  0.36889503  0.79572629  1  0  -0.085508  -0.095232  0  3.966722  0
C  C84  1  0.19693696  0.80687327  0.67785474  1  0  -0.015293  -0.025514  0  3.953887  0
C  C85  1  0.30305986  0.69312475  0.17785449  1  0  -0.015211  -0.025342  0  3.953805  0
C  C86  1  0.80306377  0.19312855  0.32214788  1  0  -0.015207  -0.025168  0  3.953717  0
C  C87  1  0.69693683  0.30687121  0.82215011  1  0  -0.015215  -0.025164  0  3.953808  0
C  C88  1  0.12272690  0.68373538  0.71249157  1  0  -0.084184  -0.094941  0  3.98213  0
C  C89  1  0.37727869  0.81626433  0.21248736  1  0  -0.084277  -0.095125  0  3.982441  0
C  C90  1  0.87728218  0.31626548  0.28751170  1  0  -0.084205  -0.095088  0  3.982504  0
C  C91  1  0.62272436  0.18373456  0.78751525  1  0  -0.084299  -0.095148  0  3.982501  0
C  C92  1  0.19613480  0.62459105  0.77294632  1  0  -0.088492  -0.108709  0  3.982474  0
C  C93  1  0.30387035  0.87541306  0.27294098  1  0  -0.088533  -0.108911  0  3.982694  0
C  C94  1  0.80387677  0.37541079  0.22705564  1  0  -0.08856  -0.108871  0  3.982723  0
C  C95  1  0.69613070  0.12458973  0.72705898  1  0  -0.088562  -0.108906  0  3.982728  0
C  C96  1  0.41626536  0.62363315  0.86927041  1  0  0.209727  0.581479  0  4.193189  0
C  C97  1  0.08374857  0.87638193  0.36926876  1  0  0.209593  0.581181  0  4.193552  0
C  C98  1  0.58374857  0.37637943  0.13073552  1  0  0.209511  0.580925  0  4.193606  0
C  C99  1  0.91625977  0.12362674  0.63073385  1  0  0.209569  0.581095  0  4.193685  0
C  C100  1  0.11911169  0.87118425  0.61201616  1  0  0.21393  0.587038  0  4.177361  0
C  C101  1  0.38088053  0.62880354  0.11201901  1  0  0.214122  0.587291  0  4.17721  0
C  C102  1  0.88088345  0.12881366  0.38798712  1  0  0.214011  0.587119  0  4.17725  0
C  C103  1  0.61910946  0.37118166  0.88798625  1  0  0.213862  0.586923  0  4.177525  0
N  N104  1  0.85093901  0.73783735  0.01585666  1  0  -0.328663  -0.225193  0  3.525397  0
N  N105  1  0.64905838  0.76215650  0.51585525  1  0  -0.328583  -0.224999  0  3.525337  0
N  N106  1  0.14905842  0.26215079  0.98413934  1  0  -0.328659  -0.225313  0  3.525404  0
N  N107  1  0.35093758  0.23785409  0.48414273  1  0  -0.328636  -0.225218  0  3.525402  0
O  O108  1  0.54446252  0.68902091  0.89909794  1  0  -0.317707  -0.547788  0  2.316424  0
O  O109  1  0.95555417  0.81099437  0.39910198  1  0  -0.317597  -0.547557  0  2.316639  0
O  O110  1  0.45556068  0.31098682  0.10089673  1  0  -0.317622  -0.547532  0  2.316605  0
O  O111  1  0.04445371  0.18901625  0.60090196  1  0  -0.317633  -0.547554  0  2.316544  0
O  O112  1  0.34102209  0.51028541  0.89397364  1  0  -0.317899  -0.552714  0  2.353087  0
O  O113  1  0.15899038  0.98972948  0.39396540  1  0  -0.317844  -0.55263  0  2.353175  0
O  O114  1  0.65897888  0.48974081  0.10604354  1  0  -0.317734  -0.552439  0  2.353111  0
O  O115  1  0.84102196  0.01027139  0.60603986  1  0  -0.317758  -0.552515  0  2.353176  0
O  O116  1  0.19226994  0.98412094  0.58479875  1  0  -0.314484  -0.55596  0  2.360842  0
O  O117  1  0.30772735  0.51586805  0.08480687  1  0  -0.314583  -0.556139  0  2.361007  0
O  O118  1  0.80772460  0.01588184  0.41520850  1  0  -0.314551  -0.55611  0  2.360913  0
O  O119  1  0.69226961  0.48411521  0.91521097  1  0  -0.314472  -0.555971  0  2.360843  0
O  O120  1  0.98654906  0.80742292  0.58837440  1  0  -0.313267  -0.539983  0  2.331672  0
O  O121  1  0.51343887  0.69257131  0.08836560  1  0  -0.31336  -0.540042  0  2.33154  0
O  O122  1  0.01344794  0.19257401  0.41162888  1  0  -0.313307  -0.540018  0  2.331649  0
O  O123  1  0.48654419  0.30742265  0.91162378  1  0  -0.313234  -0.539957  0  2.331797  0
