# generated using pymatgen
data_CuH9C3N5O3
_symmetry_space_group_name_H-M   'P 1'
_cell_length_a   7.24303019
_cell_length_b   7.02626091
_cell_length_c   9.03862499
_cell_angle_alpha   62.42980980
_cell_angle_beta   66.69229400
_cell_angle_gamma   64.19135964
_symmetry_Int_Tables_number   1
_chemical_formula_structural   CuH9C3N5O3
_chemical_formula_sum   'Cu2 H18 C6 N10 O6'
_cell_volume   356.05084152
_cell_formula_units_Z   2
loop_
 _symmetry_equiv_pos_site_id
 _symmetry_equiv_pos_as_xyz
  1  'x, y, z'
loop_
 _atom_site_type_symbol
 _atom_site_label
 _atom_site_symmetry_multiplicity
 _atom_site_fract_x
 _atom_site_fract_y
 _atom_site_fract_z
 _atom_site_occupancy
 _atom_site_hle17_ddec_charge
 _atom_site_hle17_ddec_spin_density
 _atom_site_hle17_ddec_sum_bond_order
 _atom_site_hle17_magmom
 _atom_site_hse06_10hf_ddec_charge
 _atom_site_hse06_10hf_ddec_spin_density
 _atom_site_hse06_10hf_ddec_sum_bond_order
 _atom_site_hse06_10hf_magmom
 _atom_site_hse06_ddec_charge
 _atom_site_hse06_ddec_spin_density
 _atom_site_hse06_ddec_sum_bond_order
 _atom_site_hse06_magmom
 _atom_site_pbe_cm5_charge
 _atom_site_pbe_ddec_charge
 _atom_site_pbe_ddec_spin_density
 _atom_site_pbe_ddec_sum_bond_order
 _atom_site_pbe_magmom
Cu  Cu0  1  0.50000171  0.50000056  0.49999889  1  0.82752  -0.682643  1.811679  -0.483  0.792628  -0.769105  2.203772  -0.589  0.867692  -0.839406  2.146495  -0.661  0.751094  0.745674  -0.699967  2.242731  -0.529
Cu  Cu1  1  0.99999637  0.00000049  0.00000052  1  0.810069  0.697857  1.828195  0.501  0.777278  0.783167  2.215445  0.608  0.852662  0.854703  2.160476  0.683  0.747661  0.728839  0.712958  2.255444  0.546
H  H2  1  0.01595891  0.41520544  0.85424948  1  0.353416  -0.000127  0.895995  -0.001  0.342717  0.000701  0.952536  0.0  0.350199  0.000441  0.94743  0.0  0.290789  0.337437  0.000889  0.956208  0.0
H  H3  1  0.98404187  0.58479017  0.14575182  1  0.353372  -0.000128  0.896036  -0.001  0.342675  0.000701  0.952576  0.0  0.350158  0.000442  0.947468  0.0  0.290791  0.337397  0.00089  0.956247  0.0
H  H4  1  0.25903092  0.22837655  0.82961262  1  0.342355  -0.000356  0.908965  -0.002  0.325407  0.000638  0.97774  0.0  0.332569  0.000399  0.972442  -0.001  0.288636  0.320192  0.0008  0.981735  0.0
H  H5  1  0.74096987  0.77161921  0.17038753  1  0.34233  -0.000354  0.908995  -0.002  0.325379  0.000639  0.97778  0.0  0.332543  0.000399  0.972482  -0.001  0.288635  0.320164  0.0008  0.981776  0.0
H  H6  1  0.13583539  0.26894274  0.01624895  1  0.332331  -0.000792  0.904016  -0.002  0.316785  0.000351  0.973091  0.0  0.324429  0.000141  0.967655  -0.001  0.287022  0.311487  0.000576  0.976808  0.0
H  H7  1  0.86416480  0.73105455  0.98375203  1  0.332332  -0.000792  0.903971  -0.002  0.316783  0.000351  0.973063  0.0  0.324425  0.000141  0.96763  -0.001  0.287013  0.311485  0.000576  0.976771  0.0
H  H8  1  0.76918691  0.41914501  0.64956436  1  0.348173  0.000606  0.879556  0.001  0.33921  -0.00037  0.935297  0.0  0.345044  -0.000135  0.932438  0.0  0.293674  0.33503  -0.000519  0.937682  0.0
H  H9  1  0.23081828  0.58085107  0.35043440  1  0.34819  0.000604  0.879573  0.001  0.339246  -0.00037  0.935288  0.0  0.345081  -0.000135  0.932425  0.0  0.29367  0.335066  -0.000519  0.937675  0.0
H  H10  1  0.79550298  0.63485109  0.46756523  1  0.32042  0.00017  0.947199  0.001  0.303635  -0.000696  1.017434  0.0  0.311383  -0.000441  1.012667  0.0  0.2801  0.298227  -0.000834  1.020774  0.0
H  H11  1  0.20449955  0.36514810  0.53243450  1  0.320406  0.000162  0.94721  0.001  0.303636  -0.000696  1.017422  0.0  0.31138  -0.000441  1.012663  0.0  0.280106  0.298228  -0.000834  1.020762  0.0
H  H12  1  0.90241414  0.37288731  0.46593562  1  0.33156  0.000126  0.928467  0.001  0.313468  -0.000721  0.999408  0.0  0.321484  -0.00046  0.993744  0.0  0.280916  0.307818  -0.000864  1.003556  -0.001
H  H13  1  0.09758871  0.62711564  0.53406068  1  0.331587  0.000121  0.928424  0.001  0.313492  -0.000721  0.999375  0.0  0.321508  -0.000459  0.993712  0.0  0.280931  0.307843  -0.000864  1.003525  -0.001
H  H14  1  0.44868383  0.83077015  0.96129590  1  0.402177  -2.6e-05  0.899794  0.0  0.373364  -2.1e-05  0.969967  0.0  0.383581  -3.5e-05  0.95501  0.0  0.281882  0.365776  5e-06  0.981276  0.0
H  H15  1  0.55131522  0.16922232  0.03870351  1  0.402182  -2.9e-05  0.899747  0.0  0.37336  -2.1e-05  0.969957  0.0  0.383576  -3.5e-05  0.955002  0.0  0.281904  0.365772  5e-06  0.981266  0.0
H  H16  1  0.38349936  0.83897237  0.14230347  1  0.398833  6.4e-05  0.92068  0.0  0.370632  5.2e-05  0.983463  0.0  0.380598  5.3e-05  0.968827  0.0  0.277645  0.362817  5.2e-05  0.994962  0.0
H  H17  1  0.61649618  0.16102171  0.85769538  1  0.398705  6.1e-05  0.920852  0.0  0.370515  5.2e-05  0.983616  0.0  0.380481  5.4e-05  0.968982  0.0  0.277596  0.3627  5.2e-05  0.995116  0.0
H  H18  1  0.65578488  0.43064430  0.12723781  1  0.104633  0.00015  0.950716  0.0  0.113776  0.000162  1.01031  0.0  0.116144  0.000144  1.006712  0.0  0.133574  0.111651  0.000214  1.013906  0.0
H  H19  1  0.34421500  0.56934924  0.87276659  1  0.104687  0.00015  0.950533  0.0  0.113831  0.000162  1.010124  0.0  0.116202  0.000144  1.006526  0.0  0.133576  0.111701  0.000214  1.013724  0.0
C  C20  1  0.74413643  0.03300101  0.48035279  1  0.165868  0.004111  3.748927  0.005  0.145501  0.001675  4.026107  0.003  0.152063  0.001611  4.04107  0.002  0.193132  0.141218  0.001746  4.016012  0.003
C  C21  1  0.25586434  0.96700322  0.51964596  1  0.165906  0.004104  3.748648  0.005  0.145617  0.001674  4.025786  0.003  0.152187  0.001613  4.040737  0.002  0.193146  0.141313  0.001746  4.015724  0.003
C  C22  1  0.70865875  0.27568360  0.23048268  1  0.202899  0.000577  3.66128  0.002  0.157673  0.000927  3.931211  0.002  0.173203  0.000485  3.946122  0.001  0.138738  0.146969  0.001241  3.922626  0.002
C  C23  1  0.29133268  0.72433143  0.76950672  1  0.202864  0.000571  3.661471  0.002  0.15766  0.000926  3.931416  0.002  0.173186  0.000485  3.946334  0.001  0.138804  0.146967  0.001241  3.922815  0.002
C  C24  1  0.72206191  0.92381734  0.67038130  1  0.618056  0.000447  3.946143  0.0  0.565575  0.000274  4.251118  0.0  0.598228  0.000191  4.241876  0.0  0.20909  0.542606  0.00033  4.257673  0.0
C  C25  1  0.27793678  0.07618802  0.32962106  1  0.617813  0.000436  3.94616  0.0  0.565302  0.000273  4.251176  0.0  0.597952  0.000191  4.241941  0.0  0.208959  0.542329  0.000331  4.257743  0.0
N  N26  1  0.83212160  0.07573263  0.21269243  1  -0.243112  0.071156  3.276811  0.091  -0.205684  0.052802  3.591914  0.071  -0.234133  0.045181  3.614129  0.063  -0.271022  -0.186397  0.054899  3.577635  0.072
N  N27  1  0.16787917  0.92426284  0.78731003  1  -0.243212  0.071155  3.276952  0.091  -0.205748  0.052798  3.59201  0.071  -0.234196  0.045178  3.614227  0.063  -0.271074  -0.186462  0.054895  3.577724  0.072
N  N28  1  0.85487518  0.92100089  0.37090486  1  -0.262044  -0.005281  3.011741  -0.007  -0.227402  -0.002489  3.27943  -0.003  -0.233631  -0.002124  3.296394  -0.003  -0.223339  -0.222391  -0.002847  3.267285  -0.004
N  N29  1  0.14512615  0.07900107  0.62909885  1  -0.262047  -0.005268  3.011574  -0.007  -0.227442  -0.002489  3.279245  -0.003  -0.23367  -0.002126  3.296203  -0.003  -0.22335  -0.222425  -0.002847  3.267105  -0.004
N  N30  1  0.11415421  0.26150170  0.91360577  1  -0.848072  0.09133  2.924313  0.111  -0.843897  0.063652  3.171526  0.079  -0.875813  0.05289  3.157508  0.069  -0.787552  -0.822697  0.067416  3.181708  0.081
N  N31  1  0.88584657  0.73849377  0.08639669  1  -0.847981  0.091332  2.924298  0.111  -0.843793  0.063653  3.17146  0.079  -0.875711  0.052891  3.157446  0.069  -0.787533  -0.822592  0.067418  3.181635  0.081
N  N32  1  0.64976156  0.25557111  0.39703230  1  -0.397908  -0.074592  3.259399  -0.094  -0.35257  -0.057626  3.562809  -0.077  -0.383412  -0.049683  3.5803  -0.069  -0.368239  -0.332264  -0.059828  3.551268  -0.077
N  N33  1  0.35023830  0.74443075  0.60297187  1  -0.397818  -0.074588  3.259397  -0.094  -0.352578  -0.057618  3.562841  -0.077  -0.383419  -0.049677  3.580328  -0.069  -0.368264  -0.332271  -0.059822  3.551309  -0.077
N  N34  1  0.77202734  0.47882660  0.52176834  1  -0.853697  -0.096474  2.988412  -0.116  -0.851758  -0.066719  3.246467  -0.083  -0.884533  -0.056346  3.233078  -0.073  -0.803683  -0.830618  -0.070222  3.256518  -0.084
N  N35  1  0.22797726  0.52117117  0.47823010  1  -0.853747  -0.096442  2.988497  -0.116  -0.851848  -0.066718  3.246538  -0.083  -0.884619  -0.056347  3.233151  -0.073  -0.803707  -0.830711  -0.070221  3.256596  -0.084
O  O36  1  0.85022371  0.73202131  0.72761388  1  -0.615722  -2.9e-05  1.934742  0.0  -0.557678  -4.6e-05  2.14962  0.0  -0.580169  4e-06  2.141423  0.0  -0.319482  -0.542586  -0.000145  2.15535  0.0
O  O37  1  0.14976439  0.26799690  0.27238888  1  -0.615606  -2.4e-05  1.934551  0.0  -0.557537  -4.6e-05  2.149413  0.0  -0.580027  4e-06  2.141215  0.0  -0.319392  -0.542432  -0.000145  2.155141  0.0
O  O38  1  0.56928543  0.03663906  0.76124484  1  -0.679515  0.002326  2.04535  0.003  -0.615808  0.001438  2.275146  0.002  -0.641693  0.001106  2.262492  0.001  -0.325099  -0.596812  0.001481  2.284233  0.002
O  O39  1  0.43070506  0.96338177  0.23875089  1  -0.679428  0.002328  2.045413  0.003  -0.615705  0.001438  2.275207  0.002  -0.64159  0.001106  2.262561  0.001  -0.32507  -0.596721  0.00148  2.284333  0.002
O  O40  1  0.37367499  0.75959371  0.08013063  1  -0.839454  -0.001007  1.804672  0.0  -0.797915  -0.001017  1.980151  -0.001  -0.815738  -0.001073  1.948185  -0.001  -0.606144  -0.784732  -0.000888  2.004861  -0.001
O  O41  1  0.62633229  0.24039263  0.91986707  1  -0.839322  -0.000997  1.804674  0.0  -0.797782  -0.001017  1.980206  -0.001  -0.815607  -0.001074  1.948246  -0.001  -0.606134  -0.784595  -0.000888  2.004915  -0.001
