# generated using pymatgen
data_CdH10(C9N5)2
_symmetry_space_group_name_H-M   'P 1'
_cell_length_a   9.78613713
_cell_length_b   9.64424972
_cell_length_c   9.76164123
_cell_angle_alpha   89.98938514
_cell_angle_beta   107.51643816
_cell_angle_gamma   90.00900509
_symmetry_Int_Tables_number   1
_chemical_formula_structural   CdH10(C9N5)2
_chemical_formula_sum   'Cd2 H20 C36 N20'
_cell_volume   878.58295335
_cell_formula_units_Z   2
loop_
 _symmetry_equiv_pos_site_id
 _symmetry_equiv_pos_as_xyz
  1  'x, y, z'
loop_
 _atom_site_type_symbol
 _atom_site_label
 _atom_site_symmetry_multiplicity
 _atom_site_fract_x
 _atom_site_fract_y
 _atom_site_fract_z
 _atom_site_occupancy
 _atom_site_pbe_bader_spin_density
 _atom_site_pbe_cm5_charge
 _atom_site_pbe_ddec_charge
 _atom_site_pbe_ddec_spin_density
 _atom_site_pbe_ddec_sum_bond_order
 _atom_site_pbe_magmom
Cd  Cd0  1  0.50000621  0.50001310  0.50002034  1  0  0.827682  0.929651  0  2.414357  0
Cd  Cd1  1  0.00000197  0.99996865  0.99999730  1  0  0.827634  0.929529  0  2.414194  0
H  H2  1  0.35896877  0.37147677  0.75631876  1  0  0.127629  0.087795  0  1.000396  0
H  H3  1  0.14108828  0.87130300  0.74382741  1  0  0.127556  0.087712  0  1.00053  0
H  H4  1  0.64110749  0.62865623  0.24377707  1  0  0.127538  0.087602  0  1.000617  0
H  H5  1  0.85905449  0.12850339  0.25629364  1  0  0.127626  0.087882  0  1.00077  0
H  H6  1  0.20089253  0.72841521  0.36733223  1  0  0.112859  0.128895  0  1.011476  0
H  H7  1  0.29904012  0.22856245  0.13242063  1  0  0.112695  0.128487  0  1.011616  0
H  H8  1  0.79897844  0.27147725  0.63253885  1  0  0.112831  0.128493  0  1.011906  0
H  H9  1  0.70081079  0.77157057  0.86739755  1  0  0.112725  0.128542  0  1.011504  0
H  H10  1  0.96503547  0.83998980  0.32981082  1  0  0.107084  0.104671  0  1.018909  0
H  H11  1  0.53489272  0.34015038  0.16990351  1  0  0.107052  0.10473  0  1.018955  0
H  H12  1  0.03481114  0.15984562  0.67007071  1  0  0.107082  0.104468  0  1.018986  0
H  H13  1  0.46492546  0.66004277  0.82993398  1  0  0.107059  0.104605  0  1.019112  0
H  H14  1  0.81954575  0.80060915  0.49423021  1  0  0.102944  0.107734  0  1.0235  0
H  H15  1  0.68054440  0.30052747  0.00569136  1  0  0.102973  0.107632  0  1.023769  0
H  H16  1  0.18043451  0.19939528  0.50580022  1  0  0.102929  0.107701  0  1.023672  0
H  H17  1  0.31943680  0.69948837  0.99433115  1  0  0.102914  0.107589  0  1.02383  0
H  H18  1  0.90063984  0.63109016  0.69790029  1  0  0.111355  0.12397  0  1.017396  0
H  H19  1  0.59951980  0.13083574  0.80221996  1  0  0.111448  0.124108  0  1.017284  0
H  H20  1  0.09945433  0.36904802  0.30224574  1  0  0.111477  0.124083  0  1.017446  0
H  H21  1  0.40059244  0.86903182  0.19792411  1  0  0.11149  0.124262  0  1.017426  0
C  C22  1  0.28156243  0.44772799  0.69711032  1  0  0.166477  0.224406  0  3.912365  0
C  C23  1  0.21847713  0.94759139  0.80298421  1  0  0.166587  0.224727  0  3.912137  0
C  C24  1  0.71850184  0.55237598  0.30296978  1  0  0.166503  0.224483  0  3.912235  0
C  C25  1  0.78162248  0.05226788  0.19710604  1  0  0.166445  0.224305  0  3.912428  0
C  C26  1  0.09063465  0.57292404  0.63703119  1  0  0.113446  0.150767  0  4.036172  0
C  C27  1  0.40941966  0.07282537  0.86300961  1  0  0.113242  0.151269  0  4.03559  0
C  C28  1  0.90940082  0.42713845  0.36304887  1  0  0.11325  0.15111  0  4.035868  0
C  C29  1  0.59064007  0.92711063  0.13705487  1  0  0.113442  0.151044  0  4.035664  0
C  C30  1  0.17608370  0.60145191  0.54147213  1  0  0.104262  0.163509  0  3.980975  0
C  C31  1  0.32391794  0.10144554  0.95846950  1  0  0.104247  0.162904  0  3.980886  0
C  C32  1  0.82390987  0.39855874  0.45852524  1  0  0.104293  0.163212  0  3.981273  0
C  C33  1  0.67607430  0.89855785  0.04151212  1  0  0.104278  0.163262  0  3.981084  0
C  C34  1  0.13527356  0.70010609  0.43519692  1  0  -0.06866  -0.133593  0  3.887697  0
C  C35  1  0.36467184  0.20018389  0.06462519  1  0  -0.068591  -0.13264  0  3.88662  0
C  C36  1  0.86463894  0.29983198  0.56473420  1  0  -0.068787  -0.133204  0  3.887479  0
C  C37  1  0.63522084  0.79990454  0.93526848  1  0  -0.068572  -0.133041  0  3.887483  0
C  C38  1  0.00094171  0.76477953  0.41652501  1  0  -0.034778  0.036216  0  3.810763  0
C  C39  1  0.49902901  0.26487459  0.08327315  1  0  -0.034799  0.035665  0  3.810839  0
C  C40  1  0.99896328  0.23512744  0.58340397  1  0  -0.034617  0.036482  0  3.810038  0
C  C41  1  0.50086367  0.73525220  0.91662052  1  0  -0.034901  0.036042  0  3.811107  0
C  C42  1  0.91863573  0.74246344  0.51152308  1  0  -0.094467  -0.121362  0  4.002136  0
C  C43  1  0.58140789  0.24243161  0.98839924  1  0  -0.094587  -0.12135  0  4.002426  0
C  C44  1  0.08134544  0.25752751  0.48849737  1  0  -0.094543  -0.121348  0  4.002117  0
C  C45  1  0.41856567  0.75759874  0.01161289  1  0  -0.094429  -0.121089  0  4.001836  0
C  C46  1  0.96056667  0.64708034  0.62188319  1  0  -0.060754  -0.09418  0  3.880838  0
C  C47  1  0.53951443  0.14693826  0.87814608  1  0  -0.060661  -0.094249  0  3.880663  0
C  C48  1  0.03947005  0.35299045  0.37820747  1  0  -0.0608  -0.094491  0  3.880921  0
C  C49  1  0.46052838  0.85299566  0.12192686  1  0  -0.060848  -0.094713  0  3.881089  0
C  C50  1  0.24560297  0.52642168  0.18933839  1  0  0.309182  0.442342  0  4.283141  0
C  C51  1  0.25448550  0.02675990  0.31069556  1  0  0.309437  0.442199  0  4.285481  0
C  C52  1  0.75442444  0.47353714  0.81064204  1  0  0.30925  0.442343  0  4.283951  0
C  C53  1  0.74552391  0.97328498  0.68922848  1  0  0.309029  0.441507  0  4.285261  0
C  C54  1  0.06809439  0.66897726  0.04105539  1  0  0.31373  0.460649  0  4.268491  0
C  C55  1  0.43201801  0.16920315  0.45915317  1  0  0.313451  0.460198  0  4.267633  0
C  C56  1  0.93192642  0.33094319  0.95891290  1  0  0.313477  0.460484  0  4.269024  0
C  C57  1  0.56795974  0.83087698  0.54079048  1  0  0.313544  0.460325  0  4.267456  0
N  N58  1  0.29974417  0.51830290  0.58799191  1  0  -0.339452  -0.357739  0  3.389008  0
N  N59  1  0.20024188  0.01826746  0.91198495  1  0  -0.339267  -0.357574  0  3.389123  0
N  N60  1  0.70024870  0.48172849  0.41202677  1  0  -0.339403  -0.357715  0  3.388772  0
N  N61  1  0.79977294  0.98167683  0.08800827  1  0  -0.33945  -0.357637  0  3.389364  0
N  N62  1  0.15677681  0.47772858  0.73456692  1  0  -0.306326  -0.319244  0  3.05562  0
N  N63  1  0.34330725  0.97754673  0.76555437  1  0  -0.306362  -0.319631  0  3.055141  0
N  N64  1  0.84330720  0.52240442  0.26554547  1  0  -0.306173  -0.319159  0  3.055354  0
N  N65  1  0.65681638  0.02229906  0.23456939  1  0  -0.306302  -0.319304  0  3.05535  0
N  N66  1  0.11816315  0.56263796  0.11862048  1  0  -0.290145  -0.354889  0  3.652474  0
N  N67  1  0.38193446  0.06305108  0.38132241  1  0  -0.29021  -0.35456  0  3.65211  0
N  N68  1  0.88187042  0.43724206  0.88128180  1  0  -0.289986  -0.354765  0  3.652665  0
N  N69  1  0.61807412  0.93710476  0.61848765  1  0  -0.289987  -0.354214  0  3.651718  0
N  N70  1  0.35594809  0.47895280  0.26015403  1  0  -0.393891  -0.559623  0  3.057634  0
N  N71  1  0.14414307  0.97925408  0.23992044  1  0  -0.393777  -0.559144  0  3.059684  0
N  N72  1  0.64409421  0.52106615  0.73988803  1  0  -0.393884  -0.559426  0  3.058215  0
N  N73  1  0.85588359  0.02069748  0.76007924  1  0  -0.393601  -0.558782  0  3.05951  0
N  N74  1  0.00931205  0.76109132  0.96624217  1  0  -0.394264  -0.555169  0  3.043565  0
N  N75  1  0.49083048  0.26116739  0.53418006  1  0  -0.394262  -0.55519  0  3.042426  0
N  N76  1  0.99070519  0.23885505  0.03376813  1  0  -0.394237  -0.555237  0  3.04376  0
N  N77  1  0.50913081  0.73886192  0.46586339  1  0  -0.394387  -0.555329  0  3.042546  0
