# generated using pymatgen
data_HgH4C6Se(NCl)2
_symmetry_space_group_name_H-M   'P 1'
_cell_length_a   3.91255266
_cell_length_b   14.57508301
_cell_length_c   16.45136128
_cell_angle_alpha   90.00179434
_cell_angle_beta   89.99787300
_cell_angle_gamma   90.00166498
_symmetry_Int_Tables_number   1
_chemical_formula_structural   HgH4C6Se(NCl)2
_chemical_formula_sum   'Hg4 H16 C24 Se4 N8 Cl8'
_cell_volume   938.15170414
_cell_formula_units_Z   4
loop_
 _symmetry_equiv_pos_site_id
 _symmetry_equiv_pos_as_xyz
  1  'x, y, z'
loop_
 _atom_site_type_symbol
 _atom_site_label
 _atom_site_symmetry_multiplicity
 _atom_site_fract_x
 _atom_site_fract_y
 _atom_site_fract_z
 _atom_site_occupancy
 _atom_site_hle17_bader_spin_density
 _atom_site_hle17_ddec_charge
 _atom_site_hle17_ddec_spin_density
 _atom_site_hle17_ddec_sum_bond_order
 _atom_site_hle17_magmom
 _atom_site_hse06_10hf_bader_spin_density
 _atom_site_hse06_10hf_ddec_charge
 _atom_site_hse06_10hf_ddec_spin_density
 _atom_site_hse06_10hf_ddec_sum_bond_order
 _atom_site_hse06_10hf_magmom
 _atom_site_hse06_bader_spin_density
 _atom_site_hse06_ddec_charge
 _atom_site_hse06_ddec_spin_density
 _atom_site_hse06_ddec_sum_bond_order
 _atom_site_hse06_magmom
 _atom_site_pbe_bader_spin_density
 _atom_site_pbe_cm5_charge
 _atom_site_pbe_ddec_charge
 _atom_site_pbe_ddec_spin_density
 _atom_site_pbe_ddec_sum_bond_order
 _atom_site_pbe_magmom
Hg  Hg0  1  0.12305001  0.77311593  0.77886544  1  0  0.78697  0  2.100682  0  0  0.640793  0  2.598686  0  0  0.690518  0  2.561925  0  0  0.491807  0.606478  0  2.623574  0
Hg  Hg1  1  0.37692553  0.22687585  0.27886655  1  0  0.787014  0  2.100592  0  0  0.640843  0  2.598587  0  0  0.690566  0  2.561827  0  0  0.491821  0.606523  0  2.623486  0
Hg  Hg2  1  0.87691976  0.27311598  0.72112930  1  0  0.786953  0  2.100719  0  0  0.640762  0  2.598747  0  0  0.690487  0  2.561985  0  0  0.491784  0.606448  0  2.623647  0
Hg  Hg3  1  0.62304882  0.72687776  0.22112456  1  0  0.787066  0  2.100566  0  0  0.640879  0  2.59858  0  0  0.690602  0  2.56182  0  0  0.491868  0.606561  0  2.623485  0
H  H4  1  0.65314297  0.20623002  0.93222982  1  0  0.115364  0  0.955181  0  0  0.125823  0  1.014083  0  0  0.129276  0  1.012818  0  0  0.097652  0.123391  0  1.015065  0
H  H5  1  0.84684362  0.79377466  0.43223408  1  0  0.115344  0  0.955328  0  0  0.125793  0  1.01421  0  0  0.129246  0  1.012946  0  0  0.097663  0.123359  0  1.015189  0
H  H6  1  0.34695781  0.70623456  0.56776611  1  0  0.115394  0  0.954875  0  0  0.125875  0  1.013797  0  0  0.129327  0  1.012532  0  0  0.097675  0.12344  0  1.014774  0
H  H7  1  0.15313008  0.29377236  0.06775948  1  0  0.11537  0  0.955268  0  0  0.125844  0  1.014129  0  0  0.129297  0  1.012857  0  0  0.097646  0.12341  0  1.015106  0
H  H8  1  0.45625918  0.12487075  0.05719073  1  0  0.091422  0  0.970056  0  0  0.09918  0  1.036996  0  0  0.1023  0  1.035077  0  0  0.087133  0.096932  0  1.038478  0
H  H9  1  0.04367701  0.87513236  0.55719618  1  0  0.09151  0  0.970368  0  0  0.099295  0  1.037225  0  0  0.102415  0  1.035305  0  0  0.087223  0.097048  0  1.038703  0
H  H10  1  0.54378370  0.62486275  0.44280425  1  0  0.091505  0  0.970185  0  0  0.099239  0  1.037105  0  0  0.102354  0  1.035197  0  0  0.087168  0.096992  0  1.038587  0
H  H11  1  0.95626513  0.37512857  0.94280077  1  0  0.091375  0  0.970106  0  0  0.099126  0  1.037038  0  0  0.10224  0  1.035131  0  0  0.087137  0.096882  0  1.038517  0
H  H12  1  0.56776060  0.95910488  0.07688280  1  0  0.077006  0  0.992205  0  0  0.079237  0  1.071537  0  0  0.082607  0  1.069404  0  0  0.082047  0.076905  0  1.073  0
H  H13  1  0.93217949  0.04089541  0.57689827  1  0  0.077019  0  0.992197  0  0  0.079253  0  1.071531  0  0  0.082632  0  1.069367  0  0  0.082028  0.076887  0  1.073023  0
H  H14  1  0.43229179  0.45909412  0.42311471  1  0  0.077062  0  0.992122  0  0  0.079305  0  1.07144  0  0  0.082691  0  1.069252  0  0  0.082108  0.076968  0  1.07291  0
H  H15  1  0.06775314  0.54089798  0.92311619  1  0  0.07696  0  0.992205  0  0  0.079183  0  1.071558  0  0  0.082554  0  1.069412  0  0  0.082053  0.076853  0  1.073022  0
H  H16  1  0.87120858  0.86719594  0.97279877  1  0  0.115925  0  0.949712  0  0  0.123347  0  1.012906  0  0  0.126982  0  1.011251  0  0  0.095845  0.120759  0  1.014236  0
H  H17  1  0.62877931  0.13280674  0.47281466  1  0  0.115959  0  0.949507  0  0  0.123382  0  1.012685  0  0  0.127016  0  1.011031  0  0  0.095862  0.120787  0  1.014021  0
H  H18  1  0.12882985  0.36718035  0.52720161  1  0  0.115961  0  0.94951  0  0  0.1234  0  1.012675  0  0  0.127049  0  1.010989  0  0  0.095887  0.120804  0  1.014009  0
H  H19  1  0.37116472  0.63281964  0.02720121  1  0  0.115959  0  0.94953  0  0  0.123405  0  1.012686  0  0  0.127048  0  1.011011  0  0  0.095883  0.120813  0  1.014012  0
C  C20  1  0.70293454  0.13347265  0.94167706  1  0  -0.132584  0  3.675755  0  0  -0.147343  0  3.921792  0  0  -0.152851  0  3.941464  0  0  -0.092158  -0.143787  0  3.908532  0
C  C21  1  0.79703778  0.86652824  0.44168559  1  0  -0.132514  0  3.675878  0  0  -0.14731  0  3.921805  0  0  -0.152821  0  3.941476  0  0  -0.092266  -0.143754  0  3.908544  0
C  C22  1  0.29712793  0.63345999  0.55831929  1  0  -0.132598  0  3.675278  0  0  -0.147424  0  3.921344  0  0  -0.152931  0  3.941011  0  0  -0.092245  -0.143861  0  3.908079  0
C  C23  1  0.20293077  0.36653012  0.05831302  1  0  -0.132707  0  3.675674  0  0  -0.147507  0  3.921581  0  0  -0.153013  0  3.941243  0  0  -0.092227  -0.143945  0  3.908318  0
C  C24  1  0.59578110  0.08787514  0.01010901  1  0  -0.035782  0  3.729394  0  0  -0.053427  0  3.983442  0  0  -0.052987  0  4.002594  0  0  -0.087808  -0.053482  0  3.970227  0
C  C25  1  0.90420525  0.91211796  0.51012021  1  0  -0.035838  0  3.729524  0  0  -0.053496  0  3.98354  0  0  -0.053053  0  4.002684  0  0  -0.087788  -0.053547  0  3.970312  0
C  C26  1  0.40430902  0.58786770  0.48988556  1  0  -0.035776  0  3.729688  0  0  -0.053374  0  3.98373  0  0  -0.052932  0  4.002879  0  0  -0.087687  -0.053435  0  3.970518  0
C  C27  1  0.09577911  0.41212883  0.98988262  1  0  -0.035682  0  3.729536  0  0  -0.053316  0  3.983553  0  0  -0.052873  0  4.002703  0  0  -0.087722  -0.053372  0  3.970337  0
C  C28  1  0.65851561  0.99211813  0.02153182  1  0  -0.03894  0  3.734022  0  0  -0.058399  0  3.992715  0  0  -0.058181  0  4.01194  0  0  -0.088125  -0.058243  0  3.979267  0
C  C29  1  0.84141527  0.00788293  0.52154778  1  0  -0.039117  0  3.734085  0  0  -0.058592  0  3.992693  0  0  -0.058375  0  4.011934  0  0  -0.088172  -0.058399  0  3.979266  0
C  C30  1  0.34152746  0.49211410  0.47846296  1  0  -0.039184  0  3.73435  0  0  -0.058642  0  3.993015  0  0  -0.058417  0  4.012258  0  0  -0.088332  -0.058481  0  3.979563  0
C  C31  1  0.15851645  0.50788476  0.97846030  1  0  -0.038888  0  3.734117  0  0  -0.058332  0  3.992751  0  0  -0.058111  0  4.01198  0  0  -0.088174  -0.058172  0  3.979301  0
C  C32  1  0.82554213  0.94029434  0.96437636  1  0  -0.125785  0  3.682075  0  0  -0.141729  0  3.929875  0  0  -0.147323  0  3.950304  0  0  -0.09014  -0.13804  0  3.915958  0
C  C33  1  0.67443431  0.05970256  0.46439287  1  0  -0.125904  0  3.68207  0  0  -0.141779  0  3.92981  0  0  -0.147379  0  3.950245  0  0  -0.090209  -0.138082  0  3.915885  0
C  C34  1  0.17451676  0.44029656  0.53561752  1  0  -0.125962  0  3.681819  0  0  -0.141869  0  3.929528  0  0  -0.147474  0  3.949983  0  0  -0.090236  -0.138166  0  3.9156  0
C  C35  1  0.32550717  0.55970922  0.03561976  1  0  -0.126091  0  3.6818  0  0  -0.142036  0  3.929585  0  0  -0.147637  0  3.95003  0  0  -0.090281  -0.138329  0  3.915647  0
C  C36  1  0.87612287  0.08258198  0.88016701  1  0  0.19122  0  3.804124  0  0  0.185204  0  4.056491  0  0  0.192673  0  4.07527  0  0  0.100156  0.180288  0  4.043501  0
C  C37  1  0.62385144  0.91742016  0.38018090  1  0  0.191206  0  3.803763  0  0  0.185367  0  4.055849  0  0  0.192841  0  4.074622  0  0  0.100231  0.180449  0  4.042869  0
C  C38  1  0.12392660  0.58257560  0.61983341  1  0  0.191316  0  3.804451  0  0  0.185331  0  4.0568  0  0  0.192805  0  4.075565  0  0  0.100229  0.180409  0  4.043818  0
C  C39  1  0.37611478  0.41742288  0.11982641  1  0  0.191422  0  3.803825  0  0  0.185562  0  4.055954  0  0  0.193036  0  4.074722  0  0  0.10032  0.180641  0  4.042974  0
C  C40  1  0.93603300  0.98430422  0.89164755  1  0  0.193587  0  3.795849  0  0  0.189623  0  4.043707  0  0  0.197056  0  4.063002  0  0  0.102177  0.184775  0  4.030324  0
C  C41  1  0.56394462  0.01569833  0.39165955  1  0  0.193775  0  3.795517  0  0  0.189718  0  4.043365  0  0  0.197149  0  4.062662  0  0  0.102266  0.18487  0  4.029992  0
C  C42  1  0.06402283  0.48431156  0.60835485  1  0  0.193871  0  3.795639  0  0  0.189863  0  4.043532  0  0  0.197291  0  4.062832  0  0  0.102295  0.185018  0  4.030161  0
C  C43  1  0.43601013  0.51569748  0.10835065  1  0  0.19392  0  3.795623  0  0  0.189854  0  4.043508  0  0  0.197283  0  4.062806  0  0  0.102347  0.185007  0  4.030137  0
Se  Se44  1  0.17987611  0.02578888  0.75131247  1  0  0.534219  0  2.616543  0  0  0.512668  0  3.023018  0  0  0.515938  0  3.029536  0  0  0.447271  0.509099  0  3.019246  0
Se  Se45  1  0.32013954  0.97420123  0.25132620  1  0  0.534063  0  2.616544  0  0  0.512474  0  3.023053  0  0  0.515744  0  3.029574  0  0  0.447206  0.508922  0  3.019281  0
Se  Se46  1  0.82016485  0.52579748  0.74868517  1  0  0.534313  0  2.616357  0  0  0.512753  0  3.022834  0  0  0.516022  0  3.02935  0  0  0.447306  0.509199  0  3.019066  0
Se  Se47  1  0.67981986  0.47421508  0.24868085  1  0  0.534218  0  2.616485  0  0  0.512642  0  3.022969  0  0  0.515908  0  3.029486  0  0  0.447283  0.509088  0  3.019196  0
N  N48  1  0.09530825  0.94200839  0.83028856  1  0  -0.45047  0  2.882265  0  0  -0.400183  0  3.174629  0  0  -0.415291  0  3.188764  0  0  -0.344418  -0.389467  0  3.164735  0
N  N49  1  0.40467968  0.05798795  0.33030300  1  0  -0.450411  0  2.881967  0  0  -0.400111  0  3.17437  0  0  -0.415218  0  3.188502  0  0  -0.344381  -0.3894  0  3.164491  0
N  N50  1  0.90472525  0.44201096  0.66970841  1  0  -0.450553  0  2.8818  0  0  -0.400223  0  3.174167  0  0  -0.415329  0  3.188299  0  0  -0.344417  -0.389523  0  3.164299  0
N  N51  1  0.59526673  0.55799743  0.16970715  1  0  -0.450534  0  2.882204  0  0  -0.400191  0  3.174556  0  0  -0.415299  0  3.188693  0  0  -0.344441  -0.389484  0  3.16468  0
N  N52  1  0.98777089  0.11749144  0.80974061  1  0  -0.464316  0  2.873127  0  0  -0.421554  0  3.173488  0  0  -0.435526  0  3.187009  0  0  -0.346873  -0.411533  0  3.163927  0
N  N53  1  0.51221702  0.88250133  0.30974904  1  0  -0.4643  0  2.872888  0  0  -0.421591  0  3.173141  0  0  -0.435561  0  3.186662  0  0  -0.346902  -0.411566  0  3.163576  0
N  N54  1  0.01231291  0.61749421  0.69025287  1  0  -0.464506  0  2.873274  0  0  -0.421798  0  3.173687  0  0  -0.435769  0  3.187206  0  0  -0.346983  -0.411766  0  3.164114  0
N  N55  1  0.48774043  0.38251088  0.19024879  1  0  -0.464475  0  2.872925  0  0  -0.421782  0  3.173264  0  0  -0.435751  0  3.186778  0  0  -0.347041  -0.411755  0  3.163695  0
Cl  Cl56  1  0.50949691  0.83810952  0.67950021  1  0  -0.43556  0  1.133674  0  0  -0.377871  0  1.442309  0  0  -0.398893  0  1.425325  0  0  -0.227606  -0.363261  0  1.453952  0
Cl  Cl57  1  0.99050377  0.16189098  0.17949975  1  0  -0.435573  0  1.133641  0  0  -0.377889  0  1.442297  0  0  -0.398911  0  1.425312  0  0  -0.227618  -0.363273  0  1.453939  0
Cl  Cl58  1  0.49048991  0.33810518  0.82049571  1  0  -0.435585  0  1.133731  0  0  -0.377886  0  1.442374  0  0  -0.398906  0  1.425386  0  0  -0.227612  -0.36328  0  1.454048  0
Cl  Cl59  1  0.00948166  0.66189561  0.32049321  1  0  -0.4356  0  1.133579  0  0  -0.377923  0  1.442222  0  0  -0.398949  0  1.42525  0  0  -0.227612  -0.3633  0  1.453861  0
Cl  Cl60  1  0.72292359  0.70289192  0.87210518  1  0  -0.422274  0  1.081977  0  0  -0.355376  0  1.372396  0  0  -0.376309  0  1.353624  0  0  -0.22701  -0.340856  0  1.38548  0
Cl  Cl61  1  0.77703409  0.29710924  0.37210181  1  0  -0.42225  0  1.082015  0  0  -0.35535  0  1.372436  0  0  -0.376293  0  1.353663  0  0  -0.226969  -0.34082  0  1.385507  0
Cl  Cl62  1  0.27703115  0.20289070  0.62788883  1  0  -0.42222  0  1.082053  0  0  -0.355331  0  1.372517  0  0  -0.376269  0  1.353744  0  0  -0.226931  -0.340769  0  1.385522  0
Cl  Cl63  1  0.22293741  0.79711218  0.12789367  1  0  -0.422288  0  1.081964  0  0  -0.355386  0  1.372402  0  0  -0.37632  0  1.353628  0  0  -0.226992  -0.340856  0  1.385489  0
