# generated using pymatgen
data_Zn4H12C40I8O13
_symmetry_space_group_name_H-M   'P 1'
_cell_length_a   15.03019388
_cell_length_b   15.12962780
_cell_length_c   15.68274111
_cell_angle_alpha   98.49474548
_cell_angle_beta   96.79787177
_cell_angle_gamma   89.90349213
_symmetry_Int_Tables_number   1
_chemical_formula_structural   Zn4H12C40I8O13
_chemical_formula_sum   'Zn4 H12 C40 I8 O13'
_cell_volume   3501.90110503
_cell_formula_units_Z   1
loop_
 _symmetry_equiv_pos_site_id
 _symmetry_equiv_pos_as_xyz
  1  'x, y, z'
loop_
 _atom_site_type_symbol
 _atom_site_label
 _atom_site_symmetry_multiplicity
 _atom_site_fract_x
 _atom_site_fract_y
 _atom_site_fract_z
 _atom_site_occupancy
 _atom_site_pbe_bader_charge
 _atom_site_pbe_bader_spin_density
 _atom_site_pbe_cm5_charge
 _atom_site_pbe_ddec_charge
 _atom_site_pbe_ddec_spin_density
 _atom_site_pbe_ddec_sum_bond_order
 _atom_site_pbe_magmom
Zn  Zn0  1  0.43643359  0.44602422  0.58042041  1  1.309848  0  0.673802  0.960182  0  2.385893  0
Zn  Zn1  1  0.42513343  0.55838478  0.41939038  1  1.318121  0  0.675392  0.987348  0  2.327313  0
Zn  Zn2  1  0.57036517  0.40518664  0.43632488  1  1.317523  0  0.675609  0.983191  0  2.34419  0
Zn  Zn3  1  0.58396374  0.58873246  0.57639401  1  1.31808  0  0.671192  0.974627  0  2.356278  0
H  H4  1  0.46839774  0.12730331  0.40907223  1  0.094882  0  0.109318  0.114758  0  0.998837  0
H  H5  1  0.52301843  0.64494074  0.07944400  1  0.078666  0  0.087002  0.093466  0  1.062319  0
H  H6  1  0.56550706  0.75386023  0.99017194  1  0.09226  0  0.106628  0.10631  0  0.981082  0
H  H7  1  0.49105257  0.39461608  0.77962820  1  0.117749  0  0.104205  0.117011  0  1.015872  0
H  H8  1  0.41920910  0.81300214  0.36701551  1  0.105571  0  0.112493  0.124724  0  0.991249  0
H  H9  1  0.42543272  0.97475017  0.35021203  1  0.062907  0  0.109686  0.113914  0  0.98503  0
H  H10  1  0.53189311  0.19879070  0.68431027  1  0.093201  0  0.106454  0.126413  0  0.993106  0
H  H11  1  0.17317278  0.35481849  0.50462236  1  0.103873  0  0.112088  0.119412  0  0.9852  0
H  H12  1  0.00775572  0.33778493  0.50501352  1  0.064963  0  0.111736  0.113694  0  0.982527  0
H  H13  1  0.43430787  0.29200640  0.86661491  1  0.091744  0  0.08597  0.094729  0  1.063876  0
H  H14  1  0.86095721  0.39928531  0.49505606  1  0.107967  0  0.115093  0.124051  0  0.980845  0
H  H15  1  0.57954217  0.70589439  0.83236154  1  0.09348  0  0.105697  0.107243  0  0.999696  0
C  C16  1  0.49326466  0.73329294  0.49396355  1  1.549198  0  0.220975  0.606083  0  4.157953  0
C  C17  1  0.51259804  0.47565451  0.12398512  1  -0.17653  0  -0.040261  -0.002757  0  3.801437  0
C  C18  1  0.42170624  0.34328220  0.12783031  1  -0.246998  0  -0.053168  0.010433  0  3.895068  0
C  C19  1  0.51034127  0.26871466  0.53340561  1  1.57624  0  0.232255  0.615596  0  4.157689  0
C  C20  1  0.53867694  0.57064015  0.83491317  1  -0.047677  0  -0.012544  -0.078519  0  3.931087  0
C  C21  1  0.49390466  0.83239938  0.49453672  1  0.030341  0  -0.025034  -0.075423  0  3.950601  0
C  C22  1  0.50974087  0.17239261  0.54413983  1  -0.04542  0  -0.013422  -0.009656  0  3.993996  0
C  C23  1  0.52970347  0.05786588  0.63792378  1  -0.256559  0  -0.046399  0.025758  0  3.86776  0
C  C24  1  0.52528789  0.14699755  0.62774895  1  0.04597  0  -0.092276  -0.133223  0  3.965442  0
C  C25  1  0.48714402  0.10793021  0.47297522  1  0.049908  0  -0.076653  -0.141357  0  3.93003  0
C  C26  1  0.48568388  0.01648945  0.48224448  1  -0.061287  0  0.001824  0.102296  0  3.992209  0
C  C27  1  0.55474217  0.68397640  0.96143507  1  -0.059547  0  -0.092245  -0.082713  0  4.033856  0
C  C28  1  0.51816633  0.98841599  0.56441580  1  0.056539  0  -0.010099  0.012133  0  3.929369  0
C  C29  1  0.53417903  0.89464221  0.56319593  1  -0.240701  0  -0.0343  0.016923  0  3.783315  0
C  C30  1  0.44988918  0.86307263  0.41917045  1  -0.055652  0  -0.084496  -0.084464  0  3.994677  0
C  C31  1  0.26600257  0.49687260  0.49166571  1  1.608415  0  0.225132  0.612333  0  4.162592  0
C  C32  1  0.45186463  0.95181470  0.41084870  1  0.060709  0  -0.087633  -0.134741  0  4.00295  0
C  C33  1  0.16560672  0.49292656  0.48501901  1  -0.013409  0  -0.01763  -0.053842  0  3.946523  0
C  C34  1  0.82828333  0.52971405  0.46617640  1  -0.004607  0  -0.017772  -0.041788  0  3.971979  0
C  C35  1  0.95027114  0.61525453  0.42545037  1  -0.206086  0  -0.055537  -0.020748  0  3.849667  0
C  C36  1  0.85977774  0.60614483  0.43457314  1  -0.187868  0  -0.050183  0.006883  0  3.855945  0
C  C37  1  0.88668823  0.46131414  0.47892322  1  0.023402  0  -0.073573  -0.128418  0  3.930226  0
C  C38  1  0.53207395  0.62187868  0.01215994  1  -0.075306  0  -0.091487  -0.117202  0  3.996624  0
C  C39  1  0.97949762  0.47082229  0.47555091  1  -0.023469  0  0.000382  0.097058  0  4.00633  0
C  C40  1  0.01493178  0.55376580  0.45754757  1  0.073661  0  -0.009803  0.024037  0  3.926651  0
C  C41  1  0.11044553  0.56541407  0.47265565  1  -0.217158  0  -0.036735  0.009464  0  3.791682  0
C  C42  1  0.12788483  0.40920218  0.49316735  1  -0.001625  0  -0.081872  -0.085643  0  3.998132  0
C  C43  1  0.73445284  0.51696925  0.48630908  1  1.613437  0  0.226289  0.616596  0  4.16513  0
C  C44  1  0.03714330  0.39972479  0.49235540  1  -0.037471  0  -0.083253  -0.126526  0  3.99818  0
C  C45  1  0.48151956  0.43900032  0.26879148  1  1.584169  0  0.208583  0.604153  0  4.234672  0
C  C46  1  0.53098081  0.55148175  0.73821375  1  1.519825  0  0.231921  0.61785  0  4.146956  0
C  C47  1  0.41903541  0.32107677  0.03827222  1  -0.167479  0  -0.053254  -0.021228  0  3.867287  0
C  C48  1  0.47210033  0.41901982  0.17089932  1  0.088661  0  -0.026549  -0.071826  0  3.967454  0
C  C49  1  0.51770823  0.53049178  0.97793146  1  0.04501  0  -0.002726  0.037685  0  3.9279  0
C  C50  1  0.56153033  0.65773597  0.87301533  1  0.007071  0  -0.077333  -0.08121  0  3.978977  0
C  C51  1  0.51588902  0.50536251  0.88607182  1  -0.022962  0  0.003354  0.067337  0  3.953711  0
C  C52  1  0.49692855  0.46424071  0.03172973  1  0.016075  0  -0.000728  0.017903  0  3.906582  0
C  C53  1  0.45682549  0.38050870  0.98917643  1  0.001085  0  -0.007994  0.063189  0  3.975452  0
C  C54  1  0.45835121  0.35824472  0.89750906  1  -0.071749  0  -0.098505  -0.122963  0  4.012079  0
C  C55  1  0.48976085  0.41589789  0.84874646  1  0.03946  0  -0.088008  -0.112197  0  3.989699  0
I  I56  1  0.35450831  0.26758998  0.20380144  1  0.130073  0  0.067447  -0.00894  0  1.462597  0
I  I57  1  0.52849671  0.03627163  0.76814691  1  0.106929  0  0.046345  -0.057236  0  1.484165  0
I  I58  1  0.16902611  0.69476847  0.50892835  1  0.141242  0  0.065671  -0.014379  0  1.532263  0
I  I59  1  0.98825838  0.70205407  0.34214233  1  0.149095  0  0.063015  -0.022556  0  1.612717  0
I  I60  1  0.76336217  0.69623947  0.39092675  1  0.153293  0  0.088134  0.018444  0  1.654288  0
I  I61  1  0.35804550  0.20005448  0.97404559  1  0.122943  0  0.06992  -0.027288  0  1.506502  0
I  I62  1  0.61246092  0.56383842  0.20041015  1  0.128687  0  0.07905  -0.032163  0  1.617501  0
I  I63  1  0.64176509  0.85809322  0.65002409  1  0.17038  0  0.086097  0.006856  0  1.608038  0
O  O64  1  0.50449165  0.49859146  0.50110411  1  -1.23252  0  -0.574635  -1.032599  0  2.529603  0
O  O65  1  0.43006297  0.49901367  0.29962743  1  -1.160586  0  -0.311921  -0.538686  0  2.347348  0
O  O66  1  0.59270700  0.58288482  0.70107402  1  -1.162367  0  -0.316884  -0.546803  0  2.304433  0
O  O67  1  0.53893252  0.39426488  0.30987439  1  -1.153083  0  -0.311444  -0.539268  0  2.360465  0
O  O68  1  0.46141070  0.50782866  0.69968888  1  -1.170116  0  -0.312695  -0.54625  0  2.356495  0
O  O69  1  0.30751324  0.45000558  0.54474326  1  -1.163001  0  -0.312899  -0.538901  0  2.322365  0
O  O70  1  0.70183596  0.58168440  0.53369156  1  -1.17182  0  -0.31155  -0.543138  0  2.374776  0
O  O71  1  0.45670256  0.68526345  0.42447288  1  -1.160518  0  -0.312175  -0.542565  0  2.320956  0
O  O72  1  0.54292549  0.28755032  0.46665548  1  -1.165316  0  -0.311888  -0.544413  0  2.319844  0
O  O73  1  0.52541843  0.70324792  0.56253843  1  -1.189135  0  -0.321208  -0.555239  0  2.447287  0
O  O74  1  0.47784925  0.32348670  0.59127061  1  -1.179576  0  -0.314708  -0.547474  0  2.309258  0
O  O75  1  0.30057350  0.54221061  0.44164989  1  -1.165963  0  -0.311568  -0.54194  0  2.394907  0
O  O76  1  0.69818569  0.44064457  0.45753056  1  -1.169095  0  -0.313711  -0.543797  0  2.315443  0
