# generated using pymatgen
data_CuH7C2N11
_symmetry_space_group_name_H-M   'P 1'
_cell_length_a   5.87648708
_cell_length_b   10.02354415
_cell_length_c   13.92336744
_cell_angle_alpha   90.00069287
_cell_angle_beta   89.49632046
_cell_angle_gamma   89.99999925
_symmetry_Int_Tables_number   1
_chemical_formula_structural   CuH7C2N11
_chemical_formula_sum   'Cu4 H28 C8 N44'
_cell_volume   820.09959404
_cell_formula_units_Z   4
loop_
 _symmetry_equiv_pos_site_id
 _symmetry_equiv_pos_as_xyz
  1  'x, y, z'
loop_
 _atom_site_type_symbol
 _atom_site_label
 _atom_site_symmetry_multiplicity
 _atom_site_fract_x
 _atom_site_fract_y
 _atom_site_fract_z
 _atom_site_occupancy
 _atom_site_hle17_ddec_charge
 _atom_site_hle17_ddec_spin_density
 _atom_site_hle17_ddec_sum_bond_order
 _atom_site_hle17_magmom
 _atom_site_hse06_10hf_bader_charge
 _atom_site_hse06_10hf_bader_spin_density
 _atom_site_hse06_10hf_ddec_charge
 _atom_site_hse06_10hf_ddec_spin_density
 _atom_site_hse06_10hf_ddec_sum_bond_order
 _atom_site_hse06_10hf_magmom
 _atom_site_hse06_ddec_charge
 _atom_site_hse06_ddec_spin_density
 _atom_site_hse06_ddec_sum_bond_order
 _atom_site_hse06_magmom
 _atom_site_pbe_cm5_charge
 _atom_site_pbe_ddec_charge
 _atom_site_pbe_ddec_spin_density
 _atom_site_pbe_ddec_sum_bond_order
 _atom_site_pbe_magmom
Cu  Cu0  1  0.08281526  0.12562189  0.24157811  1  0.787047  0.671837  1.919158  0.508  1.036885  0.612238  0.737604  0.757274  2.34257  0.61  0.815691  0.812623  2.279636  0.681  0.752074  0.689916  0.720662  2.386751  0.565
Cu  Cu1  1  0.41717246  0.62562787  0.25842638  1  0.786929  0.67185  1.919226  0.508  1.036848  0.612253  0.737617  0.757298  2.342579  0.61  0.815679  0.812637  2.279612  0.682  0.752074  0.689906  0.720675  2.386727  0.565
Cu  Cu2  1  0.91717456  0.87437572  0.75842484  1  0.786953  0.671845  1.919215  0.508  1.03687  0.612236  0.737632  0.757275  2.342434  0.61  0.815752  0.81263  2.279484  0.681  0.752096  0.689925  0.720669  2.386654  0.565
Cu  Cu3  1  0.58281507  0.37438571  0.74158300  1  0.787072  0.671811  1.919088  0.508  1.036948  0.612241  0.737719  0.757269  2.342355  0.61  0.815776  0.812605  2.279399  0.681  0.752062  0.689938  0.720649  2.386617  0.565
H  H4  1  0.64182226  0.09765589  0.98222272  1  0.305329  -4.1e-05  0.941765  0.0  0.570021  1.2e-05  0.270518  -2.1e-05  1.029565  0.0  0.280682  -4.1e-05  1.020883  0.0  0.301755  0.263442  1e-06  1.03549  0.0
H  H5  1  0.85819768  0.59764961  0.51777254  1  0.305438  -3.8e-05  0.941644  0.0  0.569954  1.1e-05  0.270644  -2.2e-05  1.029402  0.0  0.280795  -4.1e-05  1.020734  0.0  0.301848  0.263575  0.0  1.035321  0.0
H  H6  1  0.35816959  0.90234971  0.01777665  1  0.305376  -4e-05  0.941732  0.0  0.569612  1.1e-05  0.270593  -2.2e-05  1.029489  0.0  0.280746  -4e-05  1.020818  0.0  0.301802  0.263518  1e-06  1.035414  0.0
H  H7  1  0.14184420  0.40233005  0.48221955  1  0.30542  -4.3e-05  0.941616  0.0  0.569379  1.1e-05  0.270579  -2.2e-05  1.02946  0.0  0.280749  -4e-05  1.020768  0.0  0.301745  0.263503  1e-06  1.035389  0.0
H  H8  1  0.90075711  0.08227728  0.40810806  1  0.322442  -0.000442  0.936339  0.0  0.481626  0.000973  0.297639  0.001134  1.021651  0.001  0.305824  0.00068  1.016001  0.0  0.27794  0.291862  0.001493  1.025781  0.001
H  H9  1  0.59924098  0.58228184  0.09188944  1  0.322435  -0.000449  0.936298  0.0  0.481624  0.000973  0.297624  0.001134  1.021639  0.001  0.30581  0.000682  1.015983  0.0  0.277925  0.291847  0.001494  1.025768  0.001
H  H10  1  0.09924475  0.91771734  0.59189360  1  0.322437  -0.000446  0.936282  0.0  0.481624  0.000973  0.297631  0.001134  1.021607  0.001  0.305819  0.000681  1.015964  0.0  0.277915  0.291855  0.001493  1.025734  0.001
H  H11  1  0.40075617  0.41772176  0.90810784  1  0.322369  -0.000441  0.93641  0.0  0.481629  0.000972  0.29757  0.001134  1.021723  0.001  0.305757  0.000681  1.016068  0.0  0.277923  0.291791  0.001493  1.025852  0.001
H  H12  1  0.08956103  0.96096910  0.38323208  1  0.318655  -0.001905  0.942286  -0.002  0.476598  -0.000231  0.297579  -0.000231  1.022224  0.0  0.305559  -0.000546  1.016522  -0.001  0.281641  0.291956  5.2e-05  1.026482  0.0
H  H13  1  0.41044422  0.46096858  0.11676391  1  0.318605  -0.001912  0.942234  -0.002  0.476652  -0.000232  0.297521  -0.000231  1.022218  0.0  0.305501  -0.000545  1.016517  -0.001  0.281603  0.291898  5.2e-05  1.026476  0.0
H  H14  1  0.91044089  0.03902752  0.61676886  1  0.318467  -0.001908  0.942446  -0.002  0.476725  -0.000231  0.297441  -0.00023  1.022361  0.0  0.30541  -0.000546  1.01667  -0.001  0.281577  0.291822  5.2e-05  1.026615  0.0
H  H15  1  0.58955280  0.53902903  0.88323481  1  0.318596  -0.001907  0.942259  -0.002  0.476671  -0.000232  0.29751  -0.000231  1.022239  0.0  0.305491  -0.000546  1.016536  -0.001  0.281624  0.291889  5.2e-05  1.026493  0.0
H  H16  1  0.17899400  0.10901322  0.41876002  1  0.325697  -0.001717  0.910272  -0.002  0.458117  0.00016  0.31331  0.000154  0.970439  0.0  0.32056  -0.000163  0.966829  -0.001  0.285371  0.308192  0.000438  0.973236  0.0
H  H17  1  0.32099932  0.60901376  0.08123933  1  0.325679  -0.001728  0.910317  -0.002  0.458061  0.000159  0.313331  0.000154  0.970406  0.0  0.320577  -0.000163  0.966804  -0.001  0.28541  0.308232  0.000437  0.973189  0.0
H  H18  1  0.82100289  0.89098240  0.58124013  1  0.325594  -0.001725  0.910409  -0.002  0.45771  0.000161  0.31322  0.000155  0.970519  0.0  0.320474  -0.000163  0.966917  -0.001  0.28539  0.308104  0.000437  0.973318  0.0
H  H19  1  0.67898730  0.39098685  0.91876142  1  0.325715  -0.001717  0.910273  -0.002  0.457609  0.000161  0.313318  0.000155  0.970459  0.0  0.320571  -0.000164  0.966843  -0.001  0.285399  0.308202  0.000438  0.973256  0.0
H  H20  1  0.44827004  0.26341839  0.21709489  1  0.329533  -0.001727  0.907811  -0.001  0.442625  -0.000135  0.310558  -0.000265  0.983808  0.0  0.317474  -0.000538  0.978769  0.0  0.289455  0.305591  -3.9e-05  0.987725  0.0
H  H21  1  0.05172484  0.76341653  0.28290467  1  0.329493  -0.00173  0.907764  -0.001  0.44269  -0.000136  0.310515  -0.000267  0.983778  0.0  0.317429  -0.000538  0.978737  0.0  0.289448  0.305548  -4e-05  0.987693  0.0
H  H22  1  0.55171998  0.73658820  0.78290590  1  0.329478  -0.001738  0.907746  -0.001  0.442693  -0.000136  0.310513  -0.000265  0.983729  0.0  0.31743  -0.000537  0.978687  0.0  0.289461  0.30555  -3.9e-05  0.987633  0.0
H  H23  1  0.94827375  0.23658208  0.71709551  1  0.329527  -0.001734  0.907768  -0.001  0.442679  -0.000135  0.310555  -0.000265  0.983772  0.0  0.317467  -0.000537  0.978738  0.0  0.289449  0.305588  -3.9e-05  0.987683  0.0
H  H24  1  0.41874225  0.22446887  0.33397022  1  0.325761  -0.001772  0.942975  -0.002  0.493285  -0.000369  0.306959  -0.000249  1.013484  -0.001  0.314924  -0.000493  1.008761  -0.001  0.281141  0.301433  -3.2e-05  1.016839  0.0
H  H25  1  0.08125413  0.72446545  0.16603182  1  0.325846  -0.00177  0.943079  -0.002  0.493307  -0.000369  0.307042  -0.000248  1.01355  -0.001  0.315003  -0.000493  1.008835  -0.001  0.281179  0.301516  -3.2e-05  1.016903  0.0
H  H26  1  0.58126131  0.77553173  0.66603146  1  0.325794  -0.001775  0.942978  -0.002  0.493278  -0.000369  0.306991  -0.000248  1.013476  -0.001  0.314954  -0.000493  1.008758  -0.001  0.281164  0.30147  -3.3e-05  1.016823  0.0
H  H27  1  0.91874930  0.27553516  0.83397129  1  0.32579  -0.001772  0.943022  -0.002  0.493269  -0.000369  0.306978  -0.000249  1.013538  -0.001  0.314944  -0.000493  1.008814  -0.001  0.281111  0.301453  -3.3e-05  1.016885  0.0
H  H28  1  0.51830618  0.11499712  0.25693854  1  0.323134  -0.000762  0.918108  0.0  0.428495  0.001113  0.311296  0.000688  0.9794  0.001  0.316496  0.000354  0.978397  0.0  0.289834  0.307546  0.000927  0.98053  0.001
H  H29  1  0.98169852  0.61499594  0.24306083  1  0.323146  -0.000762  0.918133  0.0  0.428524  0.001112  0.311297  0.000687  0.979443  0.001  0.316498  0.000354  0.978436  0.0  0.289824  0.307536  0.000927  0.980588  0.001
H  H30  1  0.48169783  0.88500648  0.74305811  1  0.323206  -0.00077  0.918028  0.0  0.428466  0.001113  0.311303  0.000687  0.979424  0.001  0.316505  0.000354  0.978425  0.0  0.289847  0.307546  0.000927  0.980565  0.001
H  H31  1  0.01831047  0.38500566  0.75693732  1  0.323182  -0.000764  0.918113  0.0  0.42845  0.001113  0.311318  0.000687  0.979445  0.001  0.316518  0.000354  0.978441  0.0  0.289861  0.307568  0.000927  0.980564  0.001
C  C32  1  0.71464149  0.00978492  0.11470945  1  0.488489  -0.001691  3.843003  0.001  1.498507  0.000956  0.442957  0.000282  4.123738  0.002  0.46494  -0.000753  4.134756  0.001  0.323073  0.428461  0.001026  4.115762  0.003
C  C33  1  0.78534822  0.50981150  0.38530588  1  0.487988  -0.001698  3.843472  0.001  1.498402  0.00095  0.442887  0.00028  4.123595  0.002  0.464857  -0.000761  4.134627  0.001  0.323027  0.42839  0.001021  4.115622  0.003
C  C34  1  0.28534644  0.99020670  0.88529562  1  0.488342  -0.001699  3.843076  0.001  1.499148  0.000951  0.442996  0.000279  4.123518  0.002  0.464971  -0.000756  4.134543  0.001  0.322997  0.428497  0.001023  4.115535  0.003
C  C35  1  0.21464094  0.49023001  0.61472293  1  0.488303  -0.00167  3.842993  0.001  1.498453  0.000958  0.442637  0.000285  4.123916  0.002  0.464621  -0.000749  4.134909  0.001  0.322943  0.428139  0.001028  4.115943  0.003
C  C36  1  0.92756923  0.18662911  0.04083544  1  0.49332  -0.002303  3.84565  0.001  1.519692  0.000838  0.443567  0.000207  4.135967  0.002  0.465214  -0.001003  4.147679  0.001  0.325349  0.429219  0.001102  4.127774  0.003
C  C37  1  0.57238093  0.68665259  0.45916399  1  0.493238  -0.002318  3.84641  0.001  1.52132  0.00084  0.443536  0.000211  4.136624  0.002  0.46517  -0.001  4.148328  0.001  0.325477  0.429188  0.001106  4.128433  0.003
C  C38  1  0.07239522  0.81336750  0.95916575  1  0.493291  -0.002364  3.846046  0.0  1.520214  0.000839  0.443598  0.000209  4.136284  0.002  0.465241  -0.001001  4.147988  0.001  0.325457  0.429255  0.001104  4.128087  0.003
C  C39  1  0.42755775  0.31338393  0.54083975  1  0.493291  -0.002342  3.845477  0.001  1.518741  0.000833  0.44363  0.000202  4.135605  0.002  0.465281  -0.001005  4.147305  0.001  0.325197  0.429283  0.001098  4.127415  0.003
N  N40  1  0.82716223  0.00854943  0.19916217  1  -0.412689  0.058737  3.227967  0.078  -0.780658  0.069381  -0.368543  0.045777  3.548484  0.064  -0.396062  0.037996  3.55745  0.057  -0.286187  -0.35151  0.050884  3.543595  0.068
N  N41  1  0.67287104  0.50853092  0.30084220  1  -0.412598  0.058782  3.228057  0.078  -0.781901  0.069438  -0.368639  0.045813  3.548425  0.064  -0.396154  0.038012  3.557385  0.057  -0.286156  -0.351586  0.050926  3.543501  0.068
N  N42  1  0.17285447  0.99146514  0.80084471  1  -0.412791  0.058783  3.22832  0.078  -0.781756  0.069412  -0.368706  0.045797  3.548702  0.064  -0.396233  0.038011  3.557672  0.057  -0.286242  -0.351665  0.050908  3.543802  0.068
N  N43  1  0.32718654  0.49144375  0.69916447  1  -0.412498  0.058676  3.227882  0.078  -0.781355  0.069353  -0.368417  0.045758  3.548545  0.064  -0.395911  0.037974  3.557474  0.057  -0.286204  -0.351367  0.050856  3.543646  0.068
N  N44  1  0.73295276  0.90672408  0.25126129  1  -0.093137  3.5e-05  2.973467  0.001  -0.131369  0.002016  -0.077843  0.000855  3.268012  0.001  -0.073958  2.3e-05  3.279581  0.0  -0.111013  -0.079669  0.001562  3.260127  0.002
N  N45  1  0.76705614  0.40670832  0.24872681  1  -0.093049  0.000111  2.973367  0.001  -0.132343  0.002013  -0.077762  0.000851  3.267924  0.001  -0.073877  4e-05  3.279497  0.0  -0.110984  -0.079586  0.001564  3.260039  0.002
N  N46  1  0.26704806  0.09328450  0.74873317  1  -0.092956  6.9e-05  2.973509  0.001  -0.131662  0.002018  -0.077674  0.000857  3.268047  0.001  -0.073793  2.1e-05  3.279631  0.0  -0.110959  -0.0795  0.001563  3.260152  0.002
N  N47  1  0.23295788  0.59326934  0.75125344  1  -0.093226  5.2e-05  2.973625  0.001  -0.130963  0.002011  -0.077915  0.000851  3.268212  0.001  -0.074032  2.3e-05  3.279788  0.0  -0.110996  -0.07974  0.001561  3.260314  0.002
N  N48  1  0.57340961  0.85160347  0.19999012  1  -0.092316  0.003383  3.061547  0.006  -0.15274  0.004708  -0.08275  0.00263  3.381448  0.005  -0.086164  0.000671  3.390981  0.003  -0.100352  -0.080431  0.00459  3.375457  0.007
N  N49  1  0.92659782  0.35159048  0.29999595  1  -0.092165  0.003332  3.061426  0.006  -0.152052  0.00471  -0.082586  0.002631  3.381315  0.005  -0.086004  0.000675  3.39086  0.003  -0.100295  -0.080269  0.004592  3.375335  0.007
N  N50  1  0.42659500  0.14840212  0.80000008  1  -0.092257  0.003319  3.061304  0.006  -0.152482  0.004713  -0.082718  0.002634  3.381197  0.005  -0.086135  0.000664  3.39074  0.003  -0.100291  -0.080393  0.004591  3.375208  0.007
N  N51  1  0.07341483  0.64838718  0.69998069  1  -0.092293  0.003377  3.061656  0.006  -0.152529  0.004706  -0.082707  0.002628  3.381509  0.005  -0.086137  0.000677  3.39106  0.003  -0.100329  -0.080391  0.004591  3.375525  0.007
N  N52  1  0.55550302  0.91348419  0.11351576  1  -0.363146  0.004411  2.947692  0.006  -0.720181  0.00364  -0.324614  0.002124  3.226961  0.003  -0.338906  0.001541  3.237768  0.002  -0.229735  -0.314979  0.002702  3.219731  0.003
N  N53  1  0.94448357  0.41348235  0.38647428  1  -0.363255  0.004429  2.947459  0.006  -0.719283  0.003648  -0.324871  0.00213  3.22664  0.003  -0.339169  0.001543  3.237445  0.002  -0.229817  -0.315227  0.00271  3.219405  0.003
N  N54  1  0.44449243  0.08651642  0.88648150  1  -0.363215  0.004432  2.947331  0.006  -0.719779  0.003642  -0.324706  0.002125  3.226526  0.003  -0.339008  0.00155  3.237335  0.002  -0.229714  -0.315071  0.002706  3.219294  0.003
N  N55  1  0.05549808  0.58651427  0.61350628  1  -0.363104  0.004404  2.947826  0.006  -0.720628  0.003634  -0.324541  0.00212  3.227137  0.003  -0.338826  0.00154  3.23795  0.002  -0.22976  -0.314912  0.002696  3.219912  0.003
N  N56  1  0.75239138  0.09728642  0.04129470  1  -0.476865  -0.001708  3.347502  -0.001  -1.384363  -0.001429  -0.418228  -0.001746  3.599844  -0.001  -0.439945  -0.001995  3.603436  -0.001  -0.3891  -0.403052  -0.001558  3.596558  -0.001
N  N57  1  0.74755566  0.59732395  0.45872101  1  -0.476805  -0.001715  3.347541  -0.001  -1.38456  -0.001429  -0.418326  -0.001746  3.599751  -0.001  -0.440068  -0.001995  3.603432  -0.001  -0.389241  -0.403146  -0.001559  3.59645  -0.001
N  N58  1  0.24756181  0.90270221  0.95871785  1  -0.476792  -0.001712  3.347331  -0.001  -1.384142  -0.001429  -0.418236  -0.001745  3.599549  -0.001  -0.439991  -0.001998  3.603256  -0.001  -0.389088  -0.403054  -0.001559  3.596244  -0.001
N  N59  1  0.25237948  0.40274051  0.54130281  1  -0.476908  -0.001699  3.346976  -0.001  -1.382756  -0.001429  -0.418113  -0.001745  3.59911  -0.001  -0.439866  -0.001996  3.60277  -0.001  -0.388925  -0.402934  -0.001557  3.59582  -0.001
N  N60  1  0.96695004  0.27258403  0.96859134  1  -0.379252  0.004881  2.970538  0.006  -0.722357  0.004419  -0.336301  0.002524  3.237744  0.003  -0.351242  0.00185  3.247806  0.003  -0.228567  -0.325988  0.003228  3.230525  0.004
N  N61  1  0.53306476  0.77257976  0.53142150  1  -0.37918  0.004876  2.97094  0.006  -0.722985  0.00441  -0.336179  0.002518  3.23801  0.003  -0.351116  0.001847  3.248084  0.003  -0.228539  -0.325873  0.003219  3.230792  0.004
N  N62  1  0.03304482  0.72742556  0.03141239  1  -0.379376  0.004907  2.971045  0.006  -0.722524  0.004413  -0.336457  0.00252  3.238221  0.003  -0.351388  0.001849  3.248277  0.003  -0.228704  -0.326152  0.003224  3.231016  0.004
N  N63  1  0.46698510  0.22740888  0.46859513  1  -0.379398  0.004915  2.969927  0.006  -0.721046  0.004427  -0.336562  0.00253  3.237162  0.003  -0.351506  0.001856  3.247228  0.003  -0.22861  -0.326248  0.003236  3.229948  0.004
N  N64  1  0.15605037  0.34018583  0.99480070  1  -0.076905  0.003644  3.033913  0.006  -0.159945  0.005545  -0.061668  0.003037  3.322374  0.004  -0.059561  0.001197  3.331076  0.002  -0.09298  -0.06232  0.004739  3.315767  0.006
N  N65  1  0.34397449  0.84017538  0.50520023  1  -0.076982  0.003633  3.034197  0.006  -0.16022  0.005542  -0.061766  0.003036  3.322661  0.004  -0.059661  0.001195  3.331367  0.002  -0.092994  -0.062423  0.004737  3.316058  0.006
N  N66  1  0.84396169  0.65982276  0.00520109  1  -0.076688  0.003606  3.034053  0.006  -0.15981  0.005546  -0.061429  0.003038  3.322497  0.004  -0.059319  0.001189  3.331191  0.002  -0.092845  -0.062087  0.004736  3.315898  0.006
N  N67  1  0.65608518  0.15979529  0.49480216  1  -0.076625  0.003622  3.033665  0.006  -0.161128  0.00555  -0.061352  0.003041  3.322108  0.004  -0.05925  0.001191  3.330823  0.002  -0.092897  -0.062008  0.004739  3.315503  0.006
N  N68  1  0.22718173  0.29830924  0.07804004  1  -0.100531  -0.000717  3.02568  0.001  -0.149315  0.001532  -0.077474  0.000287  3.314002  0.001  -0.076645  -0.000376  3.327297  0.0  -0.101091  -0.0775  0.000775  3.304891  0.002
N  N69  1  0.27284193  0.79830439  0.42196096  1  -0.100643  -0.000726  3.025678  0.001  -0.148459  0.001532  -0.07755  0.00029  3.314052  0.001  -0.076724  -0.000385  3.327339  0.0  -0.101127  -0.07758  0.000773  3.304945  0.002
N  N70  1  0.77282360  0.70169136  0.92196095  1  -0.100823  -0.000717  3.025625  0.001  -0.149234  0.00153  -0.077781  0.000287  3.314  0.001  -0.076952  -0.000374  3.327292  0.0  -0.101216  -0.077805  0.000775  3.304887  0.002
N  N71  1  0.72719721  0.20167028  0.57804260  1  -0.100454  -0.000713  3.025703  0.001  -0.149147  0.001534  -0.077474  0.00029  3.314034  0.001  -0.076655  -0.000377  3.327334  0.0  -0.100944  -0.077495  0.000776  3.304912  0.002
N  N72  1  0.08505806  0.20050170  0.10984974  1  -0.382031  0.066583  3.235851  0.088  -0.76763  0.077095  -0.352077  0.050837  3.572724  0.07  -0.382988  0.04233  3.588806  0.062  -0.281579  -0.333171  0.056197  3.563298  0.074
N  N73  1  0.41494340  0.70049349  0.39013414  1  -0.381699  0.066539  3.23589  0.088  -0.768252  0.077035  -0.351883  0.050798  3.572847  0.07  -0.382777  0.042312  3.588923  0.062  -0.281632  -0.332977  0.056154  3.563412  0.074
N  N74  1  0.91493137  0.79950888  0.89013882  1  -0.381857  0.066594  3.235625  0.088  -0.767918  0.07707  -0.351965  0.05082  3.572506  0.07  -0.382878  0.042323  3.588587  0.062  -0.281649  -0.33306  0.056175  3.563084  0.074
N  N75  1  0.58505912  0.29948317  0.60984165  1  -0.382244  0.06664  3.236063  0.088  -0.767397  0.07713  -0.352213  0.050856  3.572758  0.07  -0.383119  0.042346  3.58883  0.062  -0.281607  -0.333279  0.056223  3.563312  0.074
N  N76  1  0.05835343  0.06172924  0.37799356  1  -0.817099  0.10442  2.987512  0.133  -1.238685  0.113989  -0.810118  0.070573  3.247757  0.091  -0.845767  0.05595  3.235001  0.078  -0.790757  -0.787778  0.079195  3.257642  0.097
N  N77  1  0.44164520  0.56173039  0.12200393  1  -0.816989  0.104448  2.987408  0.133  -1.238727  0.113978  -0.810073  0.070567  3.24768  0.091  -0.845712  0.055939  3.234917  0.078  -0.790704  -0.787743  0.079192  3.257512  0.097
N  N78  1  0.94164672  0.93826638  0.62200808  1  -0.816751  0.104422  2.987537  0.133  -1.238422  0.113966  -0.809932  0.070559  3.247842  0.091  -0.84551  0.055936  3.235006  0.078  -0.790716  -0.787606  0.079181  3.257722  0.097
N  N79  1  0.55834822  0.43827021  0.87799690  1  -0.816932  0.104419  2.987598  0.133  -1.238228  0.113986  -0.809968  0.070572  3.24784  0.091  -0.845609  0.055954  3.235081  0.078  -0.790747  -0.787612  0.079194  3.257719  0.097
N  N80  1  0.40155128  0.18993870  0.26428140  1  -0.825468  0.09687  2.98357  0.125  -1.198623  0.103553  -0.822421  0.064127  3.242675  0.085  -0.856153  0.050694  3.231517  0.073  -0.796307  -0.80126  0.07206  3.251437  0.091
N  N81  1  0.09844712  0.68993822  0.23571743  1  -0.825442  0.096862  2.98364  0.125  -1.198608  0.103557  -0.822389  0.064129  3.242747  0.085  -0.856101  0.050698  3.231574  0.073  -0.796288  -0.801225  0.07206  3.251495  0.091
N  N82  1  0.59844391  0.81006291  0.73571874  1  -0.825439  0.096891  2.98344  0.125  -1.198603  0.103566  -0.82235  0.064134  3.242557  0.085  -0.8561  0.050701  3.231412  0.073  -0.796324  -0.801202  0.072067  3.251312  0.091
N  N83  1  0.90155663  0.31006339  0.76428209  1  -0.825537  0.096884  2.983564  0.125  -1.198637  0.103549  -0.822458  0.064126  3.242643  0.085  -0.856186  0.050693  3.231478  0.073  -0.796255  -0.801277  0.072062  3.251399  0.091
