# generated using pymatgen
data_TbH24C35N6O7
_symmetry_space_group_name_H-M   'P 1'
_cell_length_a   7.60356917
_cell_length_b   12.93211187
_cell_length_c   16.10300000
_cell_angle_alpha   100.11605673
_cell_angle_beta   99.71886260
_cell_angle_gamma   98.75390547
_symmetry_Int_Tables_number   1
_chemical_formula_structural   TbH24C35N6O7
_chemical_formula_sum   'Tb2 H48 C70 N12 O14'
_cell_volume   1509.20309360
_cell_formula_units_Z   2
loop_
 _symmetry_equiv_pos_site_id
 _symmetry_equiv_pos_as_xyz
  1  'x, y, z'
loop_
 _atom_site_type_symbol
 _atom_site_label
 _atom_site_symmetry_multiplicity
 _atom_site_fract_x
 _atom_site_fract_y
 _atom_site_fract_z
 _atom_site_occupancy
 _atom_site_hle17_bader_spin_density
 _atom_site_hle17_ddec_charge
 _atom_site_hle17_ddec_spin_density
 _atom_site_hle17_ddec_sum_bond_order
 _atom_site_hle17_magmom
 _atom_site_hse06_10hf_bader_spin_density
 _atom_site_hse06_10hf_ddec_charge
 _atom_site_hse06_10hf_ddec_spin_density
 _atom_site_hse06_10hf_ddec_sum_bond_order
 _atom_site_hse06_10hf_magmom
 _atom_site_hse06_bader_spin_density
 _atom_site_hse06_ddec_charge
 _atom_site_hse06_ddec_spin_density
 _atom_site_hse06_ddec_sum_bond_order
 _atom_site_hse06_magmom
 _atom_site_pbe_bader_charge
 _atom_site_pbe_bader_spin_density
 _atom_site_pbe_cm5_charge
 _atom_site_pbe_ddec_charge
 _atom_site_pbe_ddec_spin_density
 _atom_site_pbe_ddec_sum_bond_order
 _atom_site_pbe_magmom
Tb  Tb0  1  0.23551597  0.15403844  0.03909973  1  0  2.192804  0  1.717638  0  0  2.019778  0  2.219293  0  0  2.070025  0  2.175393  0  2.165525  0  1.527935  1.981177  0  2.254242  0
Tb  Tb1  1  0.76448981  0.84596038  0.96090106  1  0  2.192773  0  1.717651  0  0  2.0198  0  2.21925  0  0  2.070112  0  2.17525  0  2.165519  0  1.5279  1.981185  0  2.254224  0
H  H2  1  0.30789359  0.19163945  0.84703745  1  0  0.085871  0  0.983117  0  0  0.086113  0  1.060218  0  0  0.089458  0  1.056457  0  0.143117  0  0.120895  0.0837  0  1.062761  0
H  H3  1  0.69208792  0.80835857  0.15296440  1  0  0.085857  0  0.983109  0  0  0.086117  0  1.060193  0  0  0.089449  0  1.05646  0  0.143075  0  0.120909  0.083704  0  1.062737  0
H  H4  1  0.34555144  0.33051498  0.75713764  1  0  0.104734  0  0.945475  0  0  0.116307  0  1.000853  0  0  0.118937  0  1.001308  0  0.108071  0  0.108443  0.114406  0  1.000684  0
H  H5  1  0.65443648  0.66948224  0.24286275  1  0  0.104822  0  0.945421  0  0  0.116386  0  1.000803  0  0  0.119012  0  1.001259  0  0.108003  0  0.10846  0.114485  0  1.000633  0
H  H6  1  0.32841180  0.52054795  0.82084914  1  0  0.10403  0  0.926634  0  0  0.119559  0  0.978585  0  0  0.121968  0  0.977222  0  0.078399  0  0.113717  0.117719  0  0.979681  0
H  H7  1  0.67157453  0.47944848  0.17914914  1  0  0.103996  0  0.926616  0  0  0.119512  0  0.97859  0  0  0.121929  0  0.977219  0  0.078364  0  0.113681  0.117673  0  0.979686  0
H  H8  1  0.27906945  0.65149418  0.94440810  1  0  0.115395  0  0.961389  0  0  0.123253  0  1.025337  0  0  0.127083  0  1.022923  0  0.136288  0  0.110606  0.120382  0  1.027263  0
H  H9  1  0.72091899  0.34850465  0.05558945  1  0  0.1153  0  0.961347  0  0  0.123207  0  1.025248  0  0  0.127039  0  1.022832  0  0.13642  0  0.110613  0.120333  0  1.027175  0
H  H10  1  0.22131695  0.69014193  0.09139718  1  0  0.10714  0  0.958307  0  0  0.11761  0  1.020148  0  0  0.120337  0  1.019069  0  0.091061  0  0.106818  0.115567  0  1.021107  0
H  H11  1  0.77868553  0.30986330  0.90860114  1  0  0.107001  0  0.958391  0  0  0.117505  0  1.020185  0  0  0.120232  0  1.019107  0  0.09112  0  0.106745  0.115462  0  1.021143  0
H  H12  1  0.17575985  0.62711373  0.22723022  1  0  0.097144  0  0.959438  0  0  0.108389  0  1.019857  0  0  0.110452  0  1.019704  0  0.083045  0  0.105159  0.106874  0  1.019998  0
H  H13  1  0.82424104  0.37289069  0.77277035  1  0  0.097204  0  0.95943  0  0  0.108442  0  1.019849  0  0  0.110505  0  1.019695  0  0.083121  0  0.105185  0.106926  0  1.019991  0
H  H14  1  0.14314029  0.47349670  0.30450896  1  0  0.103781  0  0.962199  0  0  0.113532  0  1.024404  0  0  0.116123  0  1.024199  0  0.086256  0  0.107438  0.111653  0  1.024707  0
H  H15  1  0.85687286  0.52650852  0.69549332  1  0  0.10379  0  0.962224  0  0  0.113484  0  1.024481  0  0  0.116075  0  1.024278  0  0.086371  0  0.107399  0.111603  0  1.024786  0
H  H16  1  0.16400412  0.29197679  0.22774629  1  0  0.086793  0  0.946073  0  0  0.090083  0  1.020001  0  0  0.093379  0  1.015492  0  0.127776  0  0.122045  0.08759  0  1.02339  0
H  H17  1  0.83601780  0.70803083  0.77225578  1  0  0.086764  0  0.945968  0  0  0.09013  0  1.019824  0  0  0.093428  0  1.015314  0  0.127537  0  0.122083  0.087639  0  1.023207  0
H  H18  1  0.39226676  0.16391329  0.25986068  1  0  0.130318  0  0.97837  0  0  0.134212  0  1.04724  0  0  0.13929  0  1.044102  0  0.126812  0  0.114195  0.130591  0  1.049614  0
H  H19  1  0.60773368  0.83608554  0.74013907  1  0  0.130322  0  0.978368  0  0  0.134227  0  1.047217  0  0  0.139304  0  1.044081  0  0.126811  0  0.114215  0.130607  0  1.049589  0
H  H20  1  0.42152513  0.18512393  0.42324850  1  0  0.068247  0  0.931364  0  0  0.081513  0  0.989033  0  0  0.083558  0  0.987434  0  0.069571  0  0.115434  0.080033  0  0.990157  0
H  H21  1  0.57847023  0.81487570  0.57675033  1  0  0.068266  0  0.931343  0  0  0.081537  0  0.988997  0  0  0.083579  0  0.987407  0  0.069602  0  0.115444  0.080059  0  0.99012  0
H  H22  1  0.17465101  0.31695857  0.38530020  1  0  0.090408  0  0.969376  0  0  0.098382  0  1.03917  0  0  0.101264  0  1.037633  0  0.05978  0  0.099528  0.096344  0  1.040271  0
H  H23  1  0.82535045  0.68304346  0.61470380  1  0  0.090465  0  0.969382  0  0  0.098421  0  1.039182  0  0  0.101302  0  1.037648  0  0.059678  0  0.099531  0.096382  0  1.040284  0
H  H24  1  0.46244202  0.40020104  0.49179244  1  0  0.08659  0  0.977742  0  0  0.095289  0  1.041745  0  0  0.097752  0  1.041486  0  0.091565  0  0.095938  0.09353  0  1.042011  0
H  H25  1  0.53755766  0.59979538  0.50821436  1  0  0.086594  0  0.977844  0  0  0.095296  0  1.041828  0  0  0.097753  0  1.041582  0  0.09139  0  0.09597  0.093538  0  1.042093  0
H  H26  1  0.45043670  0.48256071  0.64180575  1  0  0.082377  0  0.953106  0  0  0.094161  0  1.011607  0  0  0.096736  0  1.011292  0  0.09147  0  0.095822  0.092345  0  1.011839  0
H  H27  1  0.54955739  0.51743492  0.35820173  1  0  0.082397  0  0.953066  0  0  0.094139  0  1.011617  0  0  0.096714  0  1.011299  0  0.091532  0  0.095818  0.092324  0  1.011848  0
H  H28  1  0.15072113  0.47594203  0.68664366  1  0  0.079366  0  0.97414  0  0  0.088453  0  1.040842  0  0  0.091017  0  1.040064  0  0.036396  0  0.094973  0.086609  0  1.041489  0
H  H29  1  0.84926909  0.52406240  0.31335855  1  0  0.079293  0  0.974205  0  0  0.088445  0  1.040834  0  0  0.091009  0  1.040059  0  0.036564  0  0.09498  0.086602  0  1.04148  0
H  H30  1  0.86651673  0.38426727  0.58155603  1  0  0.09403  0  0.959247  0  0  0.101627  0  1.0256  0  0  0.105352  0  1.022989  0  0.085903  0  0.101595  0.098979  0  1.02747  0
H  H31  1  0.13347616  0.61573715  0.41844453  1  0  0.094069  0  0.959274  0  0  0.101637  0  1.025646  0  0  0.105362  0  1.023037  0  0.08599  0  0.101613  0.098987  0  1.027525  0
H  H32  1  0.19121047  0.10978357  0.32031119  1  0  0.10911  0  0.98389  0  0  0.119365  0  1.046927  0  0  0.122515  0  1.046399  0  0.102239  0  0.109115  0.117046  0  1.047596  0
H  H33  1  0.80878838  0.89021446  0.67968272  1  0  0.109228  0  0.983804  0  0  0.119448  0  1.046861  0  0  0.122629  0  1.046292  0  0.102286  0  0.109105  0.117125  0  1.047539  0
H  H34  1  0.08839871  0.07895717  0.45770063  1  0  0.075699  0  0.925527  0  0  0.08324  0  0.98988  0  0  0.086678  0  0.986202  0  0.099657  0  0.114248  0.080683  0  0.992594  0
H  H35  1  0.91160275  0.92104486  0.54229468  1  0  0.075655  0  0.925525  0  0  0.08323  0  0.989855  0  0  0.086687  0  0.986161  0  0.099585  0  0.114244  0.080677  0  0.992562  0
H  H36  1  0.56533768  0.93474921  0.45144185  1  0  0.089546  0  0.97264  0  0  0.094873  0  1.044952  0  0  0.098203  0  1.042647  0  0.070869  0  0.097621  0.092481  0  1.046626  0
H  H37  1  0.43467262  0.06525121  0.54855767  1  0  0.089545  0  0.972663  0  0  0.094922  0  1.044915  0  0  0.098242  0  1.042621  0  0.070866  0  0.09765  0.092531  0  1.046589  0
H  H38  1  0.24522963  0.85322598  0.44852865  1  0  0.095684  0  0.975608  0  0  0.09932  0  1.045797  0  0  0.10273  0  1.044047  0  0.096273  0  0.096345  0.096866  0  1.047174  0
H  H39  1  0.75477615  0.14677285  0.55147152  1  0  0.095691  0  0.975692  0  0  0.099318  0  1.045872  0  0  0.102729  0  1.044123  0  0.096245  0  0.096333  0.096864  0  1.047249  0
H  H40  1  0.02298394  0.79589287  0.30889069  1  0  0.082248  0  0.95069  0  0  0.094358  0  1.00854  0  0  0.096756  0  1.008557  0  0.023367  0  0.095911  0.092629  0  1.008605  0
H  H41  1  0.97702266  0.20410435  0.69110870  1  0  0.082198  0  0.950727  0  0  0.094315  0  1.008566  0  0  0.096713  0  1.008583  0  0.023339  0  0.095909  0.092587  0  1.008631  0
H  H42  1  0.12291307  0.82041805  0.17259405  1  0  0.094486  0  0.953375  0  0  0.105188  0  1.013224  0  0  0.108125  0  1.012287  0  0.078293  0  0.102267  0.103093  0  1.013988  0
H  H43  1  0.87709004  0.17958077  0.82740591  1  0  0.094522  0  0.953354  0  0  0.105222  0  1.013205  0  0  0.108159  0  1.012267  0  0.078382  0  0.102272  0.103128  0  1.013964  0
H  H44  1  0.44382304  0.89883545  0.17612791  1  0  0.113872  0  0.981228  0  0  0.116851  0  1.054088  0  0  0.121347  0  1.050119  0  0.126648  0  0.105207  0.113597  0  1.056972  0
H  H45  1  0.55617791  0.10116497  0.82387024  1  0  0.113818  0  0.981283  0  0  0.11682  0  1.054123  0  0  0.121315  0  1.050154  0  0.126679  0  0.105179  0.113564  0  1.057012  0
H  H46  1  0.87558125  0.20827611  0.05780912  1  0  0.439704  0  0.860114  0  0  0.40918  0  0.923299  0  0  0.42035  0  0.907118  0  0.652613  0  0.298701  0.401277  0  0.934717  0
H  H47  1  0.12442771  0.79172431  0.94219215  1  0  0.439825  0  0.859958  0  0  0.409245  0  0.923217  0  0  0.420415  0  0.907038  0  0.652515  0  0.298755  0.401341  0  0.934636  0
H  H48  1  0.84281492  0.12097543  0.97201728  1  0  0.432914  0  0.870302  0  0  0.404426  0  0.930637  0  0  0.414965  0  0.915099  0  0.639426  0  0.302249  0.396959  0  0.941643  0
H  H49  1  0.15719054  0.87902659  0.02798269  1  0  0.432882  0  0.870333  0  0  0.404398  0  0.930639  0  0  0.41493  0  0.915116  0  0.639403  0  0.302254  0.396934  0  0.94164  0
C  C50  1  0.29903522  0.27456687  0.87188458  1  0  0.155446  0  3.683436  0  0  0.125941  0  3.940555  0  0  0.134286  0  3.955751  0  0.488717  0  0.060479  0.120664  0  3.929929  0
C  C51  1  0.70094839  0.72543356  0.12811653  1  0  0.155491  0  3.683267  0  0  0.125969  0  3.940394  0  0  0.134314  0  3.955582  0  0.488335  0  0.060395  0.120691  0  3.929769  0
C  C52  1  0.31969124  0.35280995  0.82183475  1  0  -0.125488  0  3.739066  0  0  -0.137687  0  3.993496  0  0  -0.14506  0  4.015177  0  -0.029469  0  -0.083477  -0.132965  0  3.978823  0
C  C53  1  0.68029421  0.64719207  0.17816425  1  0  -0.125769  0  3.739113  0  0  -0.137965  0  3.993586  0  0  -0.145334  0  4.015262  0  -0.02918  0  -0.083565  -0.133242  0  3.978914  0
C  C54  1  0.30970382  0.45681526  0.85666497  1  0  -0.04013  0  3.688071  0  0  -0.067752  0  3.939973  0  0  -0.064727  0  3.957827  0  -0.043938  0  -0.060799  -0.069417  0  3.927745  0
C  C55  1  0.69027769  0.54318276  0.14333315  1  0  -0.03993  0  3.687923  0  0  -0.067553  0  3.939796  0  0  -0.064531  0  3.957646  0  -0.043827  0  -0.060686  -0.06922  0  3.927568  0
C  C56  1  0.27700653  0.48230402  0.94094343  1  0  0.020171  0  3.79045  0  0  0.037623  0  4.022667  0  0  0.034968  0  4.047014  0  0.00388  0  -0.002454  0.039198  0  4.006247  0
C  C57  1  0.72297707  0.51769640  0.05905147  1  0  0.019938  0  3.790717  0  0  0.037431  0  4.022916  0  0  0.034772  0  4.047267  0  0.004283  0  -0.002497  0.039007  0  4.006492  0
C  C58  1  0.26388626  0.58805336  0.98066840  1  0  -0.080525  0  3.688502  0  0  -0.106906  0  3.947002  0  0  -0.10955  0  3.968336  0  -0.096971  0  -0.079915  -0.105037  0  3.93267  0
C  C59  1  0.73610212  0.41194946  0.01932846  1  0  -0.080332  0  3.688526  0  0  -0.106775  0  3.94705  0  0  -0.109418  0  3.968383  0  -0.096994  0  -0.079953  -0.1049  0  3.932712  0
C  C60  1  0.23223451  0.60932798  0.06235355  1  0  -0.088911  0  3.712269  0  0  -0.111669  0  3.967896  0  0  -0.114809  0  3.990494  0  -0.003948  0  -0.080235  -0.109505  0  3.952685  0
C  C61  1  0.76775946  0.39067564  0.93764325  1  0  -0.088792  0  3.712281  0  0  -0.111619  0  3.96788  0  0  -0.114759  0  3.99048  0  -0.004011  0  -0.080097  -0.109455  0  3.952668  0
C  C62  1  0.21371145  0.52713464  0.11101701  1  0  0.022422  0  3.798727  0  0  0.038784  0  4.028702  0  0  0.036092  0  4.05384  0  -0.031028  0  -0.002201  0.040407  0  4.011738  0
C  C63  1  0.78628411  0.47286978  0.88898189  1  0  0.022293  0  3.798889  0  0  0.03882  0  4.028653  0  0  0.036129  0  4.053789  0  -0.031041  0  -0.002256  0.040441  0  4.011692  0
C  C64  1  0.18461624  0.54638055  0.19641100  1  0  -0.054414  0  3.694609  0  0  -0.076325  0  3.936173  0  0  -0.074221  0  3.955284  0  -0.014514  0  -0.065993  -0.077432  0  3.923073  0
C  C65  1  0.81539158  0.45362467  0.80359210  1  0  -0.054507  0  3.694852  0  0  -0.076446  0  3.936328  0  0  -0.074343  0  3.955441  0  -0.01441  0  -0.06607  -0.077551  0  3.923228  0
C  C66  1  0.16830534  0.46279103  0.23920152  1  0  -0.1235  0  3.735018  0  0  -0.135874  0  3.98871  0  0  -0.142866  0  4.009152  0  -0.014272  0  -0.083555  -0.131391  0  3.974954  0
C  C67  1  0.83170731  0.53721259  0.76079925  1  0  -0.123479  0  3.734912  0  0  -0.13579  0  3.988625  0  0  -0.142783  0  4.009071  0  -0.014582  0  -0.083488  -0.131308  0  3.974871  0
C  C68  1  0.18156464  0.36028665  0.19680371  1  0  0.173157  0  3.684944  0  0  0.138322  0  3.949354  0  0  0.147791  0  3.96267  0  0.51722  0  0.064987  0.132108  0  3.940172  0
C  C69  1  0.81845010  0.63971937  0.80320192  1  0  0.173181  0  3.684721  0  0  0.138257  0  3.949191  0  0  0.147726  0  3.962509  0  0.517592  0  0.064952  0.132043  0  3.94001  0
C  C70  1  0.22654576  0.42118698  0.07358680  1  0  0.136171  0  3.752153  0  0  0.131131  0  3.990072  0  0  0.135285  0  4.010923  0  0.481023  0  0.121115  0.128378  0  3.975838  0
C  C71  1  0.77345113  0.57881744  0.92641346  1  0  0.136165  0  3.752118  0  0  0.131046  0  3.990054  0  0  0.135202  0  4.010907  0  0.480996  0  0.121133  0.128295  0  3.975819  0
C  C72  1  0.25756868  0.39821792  0.98685625  1  0  0.145232  0  3.755553  0  0  0.13993  0  3.993533  0  0  0.144741  0  4.013931  0  0.487024  0  0.125471  0.136749  0  3.979598  0
C  C73  1  0.74241785  0.60178331  0.01314210  1  0  0.145349  0  3.755476  0  0  0.140019  0  3.993512  0  0  0.144831  0  4.013913  0  0.486627  0  0.125484  0.136837  0  3.979577  0
C  C74  1  0.66065327  0.23344741  0.17995939  1  0  0.657782  0  3.884996  0  0  0.610673  0  4.178814  0  0  0.644054  0  4.168143  0  1.629176  0  0.224712  0.588  0  4.185091  0
C  C75  1  0.33936700  0.76654662  0.82004188  1  0  0.657656  0  3.8852  0  0  0.610628  0  4.178885  0  0  0.644008  0  4.168222  0  1.629118  0  0.224743  0.587954  0  4.185163  0
C  C76  1  0.67285693  0.24044272  0.27629385  1  0  0.153509  0  3.712148  0  0  0.155579  0  3.958137  0  0  0.160725  0  3.973553  0  0.523306  0  0.126674  0.152165  0  3.947798  0
C  C77  1  0.32715107  0.75955050  0.72370633  1  0  0.153523  0  3.712043  0  0  0.155576  0  3.95803  0  0  0.16072  0  3.973449  0  0.523229  0  0.126626  0.152163  0  3.947692  0
C  C78  1  0.51782071  0.20145432  0.30562677  1  0  -0.189284  0  3.690534  0  0  -0.209438  0  3.939142  0  0  -0.21876  0  3.959284  0  -0.030185  0  -0.083575  -0.203509  0  3.925808  0
C  C79  1  0.48218214  0.79854370  0.69437306  1  0  -0.189242  0  3.690463  0  0  -0.209399  0  3.93907  0  0  -0.218721  0  3.959215  0  -0.030136  0  -0.083566  -0.203469  0  3.925735  0
C  C80  1  0.53475985  0.21395281  0.39432032  1  0  0.164152  0  3.742427  0  0  0.135627  0  4.004024  0  0  0.144082  0  4.019596  0  0.490934  0  0.056864  0.130274  0  3.993277  0
C  C81  1  0.46523659  0.78604601  0.60567848  1  0  0.164078  0  3.742482  0  0  0.135558  0  4.004074  0  0  0.144013  0  4.019644  0  0.490863  0  0.056821  0.130202  0  3.993333  0
C  C82  1  0.83200880  0.29549443  0.41511653  1  0  0.355057  0  3.772249  0  0  0.339383  0  4.032302  0  0  0.352253  0  4.047441  0  1.083885  0  0.243289  0.330803  0  4.021989  0
C  C83  1  0.16799514  0.70450279  0.58488451  1  0  0.355087  0  3.772192  0  0  0.339374  0  4.032298  0  0  0.352244  0  4.047436  0  1.084075  0  0.243252  0.330805  0  4.021966  0
C  C84  1  0.00319254  0.34640078  0.47696038  1  0  -0.011049  0  3.769462  0  0  0.007864  0  3.995447  0  0  0.00446  0  4.020322  0  0.022308  0  -0.006764  0.010103  0  3.978527  0
C  C85  1  0.99680333  0.65360045  0.52304306  1  0  -0.011046  0  3.769378  0  0  0.007924  0  3.995317  0  0  0.004523  0  4.020187  0  0.021811  0  -0.006662  0.010159  0  3.978396  0
C  C86  1  0.17167471  0.35158969  0.45173452  1  0  -0.102364  0  3.748231  0  0  -0.124652  0  3.994844  0  0  -0.127021  0  4.017154  0  -0.081414  0  -0.090014  -0.122837  0  3.97953  0
C  C87  1  0.82832358  0.64841074  0.54827025  1  0  -0.102491  0  3.748328  0  0  -0.124788  0  3.99495  0  0  -0.127158  0  4.017253  0  -0.081092  0  -0.090076  -0.122973  0  3.979638  0
C  C88  1  0.33172924  0.39875528  0.51115931  1  0  -0.07825  0  3.78853  0  0  -0.087536  0  4.032012  0  0  -0.090448  0  4.054687  0  -0.024984  0  -0.094951  -0.085537  0  4.016494  0
C  C89  1  0.66826720  0.60124355  0.48884446  1  0  -0.078283  0  3.788672  0  0  -0.087561  0  4.03215  0  0  -0.09047  0  4.054822  0  -0.024955  0  -0.094998  -0.085562  0  4.016631  0
C  C90  1  0.32512347  0.44396093  0.59584803  1  0  -0.065872  0  3.761899  0  0  -0.078545  0  4.004962  0  0  -0.079993  0  4.02611  0  -0.139629  0  -0.092044  -0.077362  0  3.990361  0
C  C91  1  0.67487138  0.55603709  0.40415613  1  0  -0.065749  0  3.761802  0  0  -0.078384  0  4.004853  0  0  -0.079832  0  4.025999  0  -0.139549  0  -0.091941  -0.077202  0  3.990252  0
C  C92  1  0.15762603  0.43951809  0.62120297  1  0  -0.077939  0  3.792677  0  0  -0.091379  0  4.045054  0  0  -0.093891  0  4.067309  0  0.003342  0  -0.096557  -0.089626  0  4.029769  0
C  C93  1  0.84236501  0.56048473  0.37879907  1  0  -0.077895  0  3.792523  0  0  -0.091373  0  4.044918  0  0  -0.093886  0  4.067177  0  0.003174  0  -0.096589  -0.08962  0  4.029634  0
C  C94  1  0.99804359  0.38972886  0.56260564  1  0  -0.083128  0  3.727591  0  0  -0.104793  0  3.972535  0  0  -0.106767  0  3.993797  0  -0.062556  0  -0.083633  -0.103259  0  3.957975  0
C  C95  1  0.00195279  0.61027396  0.43739497  1  0  -0.083203  0  3.727437  0  0  -0.104874  0  3.972435  0  0  -0.10685  0  3.993694  0  -0.062558  0  -0.083718  -0.103342  0  3.957878  0
C  C96  1  0.99036926  0.03205386  0.15655742  1  0  0.692991  0  3.839247  0  0  0.645234  0  4.128817  0  0  0.680407  0  4.116185  0  1.62626  0  0.243354  0.621218  0  4.136696  0
C  C97  1  0.00964338  0.96794976  0.84344459  1  0  0.693027  0  3.839423  0  0  0.645468  0  4.128675  0  0  0.680631  0  4.116051  0  1.626716  0  0.243409  0.621431  0  4.136595  0
C  C98  1  0.93272717  0.02607889  0.24186014  1  0  0.151845  0  3.713587  0  0  0.150988  0  3.963384  0  0  0.155723  0  3.978936  0  0.525153  0  0.134213  0.147856  0  3.953107  0
C  C99  1  0.06727435  0.97391913  0.75813710  1  0  0.151785  0  3.713536  0  0  0.150858  0  3.963319  0  0  0.155594  0  3.978879  0  0.524787  0  0.13409  0.147732  0  3.953046  0
C  C100  1  0.05493390  0.06950134  0.31957275  1  0  -0.173878  0  3.703379  0  0  -0.196748  0  3.954134  0  0  -0.205474  0  3.975645  0  0.002151  0  -0.081013  -0.191282  0  3.940006  0
C  C101  1  0.94506629  0.93049669  0.68042438  1  0  -0.173953  0  3.703178  0  0  -0.196782  0  3.953952  0  0  -0.205527  0  3.975448  0  0.001523  0  -0.080915  -0.191314  0  3.939825  0
C  C102  1  0.99694407  0.05333967  0.39466576  1  0  0.172209  0  3.720233  0  0  0.142862  0  3.985182  0  0  0.151777  0  3.999598  0  0.508828  0  0.061235  0.137254  0  3.975243  0
C  C103  1  0.00305873  0.94666235  0.60532965  1  0  0.172203  0  3.720129  0  0  0.142824  0  3.985064  0  0  0.15172  0  3.999488  0  0.509301  0  0.061164  0.137216  0  3.975126  0
C  C104  1  0.71597422  0.96968740  0.31602950  1  0  0.353045  0  3.766278  0  0  0.338434  0  4.023981  0  0  0.352197  0  4.038403  0  1.078862  0  0.242443  0.329298  0  4.014125  0
C  C105  1  0.28403156  0.03031143  0.68396819  1  0  0.352991  0  3.766173  0  0  0.338235  0  4.024096  0  0  0.352001  0  4.038515  0  1.079152  0  0.242385  0.329097  0  4.014243  0
C  C106  1  0.52575627  0.92069941  0.31403395  1  0  -0.031101  0  3.785058  0  0  -0.011173  0  4.00978  0  0  -0.016067  0  4.036036  0  -0.077512  0  -0.015299  -0.007984  0  3.991955  0
C  C107  1  0.47424601  0.07930101  0.68596430  1  0  -0.0311  0  3.784983  0  0  -0.011135  0  4.009768  0  0  -0.01603  0  4.036016  0  -0.077875  0  -0.015319  -0.007944  0  3.991939  0
C  C108  1  0.46758518  0.90818813  0.39067518  1  0  -0.091186  0  3.735111  0  0  -0.110804  0  3.976172  0  0  -0.112484  0  3.998041  0  -0.01978  0  -0.088581  -0.109352  0  3.961092  0
C  C109  1  0.53241768  0.09180990  0.60932216  1  0  -0.091232  0  3.734959  0  0  -0.11088  0  3.975999  0  0  -0.112554  0  3.997875  0  -0.019382  0  -0.088607  -0.109424  0  3.960911  0
C  C110  1  0.28791275  0.86314960  0.38873162  1  0  -0.078222  0  3.779463  0  0  -0.088456  0  4.027929  0  0  -0.092046  0  4.050528  0  -0.082542  0  -0.095476  -0.085985  0  4.012406  0
C  C111  1  0.71209462  0.13685002  0.61126755  1  0  -0.078193  0  3.779558  0  0  -0.088427  0  4.028037  0  0  -0.092019  0  4.050634  0  -0.082613  0  -0.095465  -0.085956  0  4.012518  0
C  C112  1  0.16397636  0.83028730  0.31020105  1  0  -0.072702  0  3.785467  0  0  -0.086627  0  4.032112  0  0  -0.088144  0  4.054752  0  -0.00099  0  -0.094834  -0.085287  0  4.016435  0
C  C113  1  0.83602783  0.16971073  0.68979826  1  0  -0.072612  0  3.785631  0  0  -0.086535  0  4.03226  0  0  -0.088053  0  4.054904  0  -0.001039  0  -0.094842  -0.085198  0  4.016586  0
C  C114  1  0.22022686  0.84342150  0.23381068  1  0  -0.085155  0  3.776785  0  0  -0.094922  0  4.027833  0  0  -0.098126  0  4.049219  0  -0.111  0  -0.096274  -0.092744  0  4.013194  0
C  C115  1  0.77977810  0.15657892  0.76618840  1  0  -0.085249  0  3.776804  0  0  -0.095019  0  4.027854  0  0  -0.098224  0  4.04924  0  -0.11106  0  -0.09625  -0.092839  0  4.013217  0
C  C116  1  0.39998208  0.88796985  0.23542840  1  0  -0.080523  0  3.694606  0  0  -0.103564  0  3.943186  0  0  -0.104298  0  3.962324  0  -0.005507  0  -0.086702  -0.102789  0  3.930111  0
C  C117  1  0.60001944  0.11202818  0.76457132  1  0  -0.080437  0  3.694482  0  0  -0.10349  0  3.943043  0  0  -0.104229  0  3.962194  0  -0.005468  0  -0.086666  -0.102715  0  3.929964  0
C  C118  1  0.54169558  0.03726836  0.97296072  1  0  0.567219  0  3.892596  0  0  0.522834  0  4.182304  0  0  0.553253  0  4.171908  0  1.604312  0  0.222116  0.502195  0  4.188583  0
C  C119  1  0.45830004  0.96273207  0.02703887  1  0  0.567019  0  3.892699  0  0  0.522724  0  4.182299  0  0  0.553144  0  4.171903  0  1.580009  0  0.221998  0.502084  0  4.188581  0
N  N120  1  0.26944976  0.29646841  0.95191081  1  0  -0.435846  0  3.240207  0  0  -0.382702  0  3.508651  0  0  -0.398182  0  3.525629  0  -1.247874  0  -0.387087  -0.37198  0  3.496811  0
N  N121  1  0.73053651  0.70353202  0.04808928  1  0  -0.435787  0  3.239839  0  0  -0.382615  0  3.508272  0  0  -0.398106  0  3.525261  0  -1.247827  0  -0.386983  -0.371892  0  3.496433  0
N  N122  1  0.21120717  0.34003558  0.11689623  1  0  -0.409523  0  3.227536  0  0  -0.353985  0  3.488844  0  0  -0.368991  0  3.506089  0  -1.225442  0  -0.374608  -0.343592  0  3.476853  0
N  N123  1  0.78880198  0.65996964  0.88310511  1  0  -0.409391  0  3.227541  0  0  -0.353828  0  3.488869  0  0  -0.368841  0  3.506119  0  -1.225567  0  -0.374587  -0.343437  0  3.47688  0
N  N124  1  0.68876813  0.26274328  0.44944280  1  0  -0.377711  0  3.043203  0  0  -0.340109  0  3.306386  0  0  -0.353341  0  3.318913  0  -1.205106  0  -0.309796  -0.331276  0  3.297852  0
N  N125  1  0.31123149  0.73725714  0.55055710  1  0  -0.377716  0  3.043321  0  0  -0.340111  0  3.306512  0  0  -0.353341  0  3.319036  0  -1.205155  0  -0.309796  -0.33128  0  3.297976  0
N  N126  1  0.83125734  0.28522057  0.33025775  1  0  -0.380247  0  3.009738  0  0  -0.353661  0  3.273952  0  0  -0.366438  0  3.288329  0  -1.186196  0  -0.301098  -0.345125  0  3.264266  0
N  N127  1  0.16874882  0.71477106  0.66974392  1  0  -0.38025  0  3.00956  0  0  -0.353662  0  3.273808  0  0  -0.366441  0  3.288186  0  -1.186348  0  -0.301065  -0.345126  0  3.26411  0
N  N128  1  0.82838556  0.00427012  0.39391697  1  0  -0.377865  0  3.005708  0  0  -0.342351  0  3.269244  0  0  -0.355678  0  3.281332  0  -1.227074  0  -0.311158  -0.333488  0  3.260947  0
N  N129  1  0.17161883  0.99573271  0.60608054  1  0  -0.377849  0  3.005565  0  0  -0.342298  0  3.269179  0  0  -0.355624  0  3.28127  0  -1.226988  0  -0.311152  -0.333436  0  3.260884  0
N  N130  1  0.76413444  0.97581269  0.23985494  1  0  -0.36528  0  3.024042  0  0  -0.332709  0  3.280774  0  0  -0.345799  0  3.294297  0  -1.188596  0  -0.29395  -0.324074  0  3.271769  0
N  N131  1  0.23586766  0.02418293  0.76014201  1  0  -0.365182  0  3.023992  0  0  -0.332561  0  3.280773  0  0  -0.345655  0  3.294296  0  -1.188467  0  -0.293864  -0.323927  0  3.271766  0
O  O132  1  0.49917969  0.22409873  0.13717168  1  0  -0.763683  0  2.108914  0  0  -0.709865  0  2.376762  0  0  -0.737079  0  2.367792  0  -1.201965  0  -0.42506  -0.690011  0  2.381923  0
O  O133  1  0.50083391  0.77589529  0.86282533  1  0  -0.763545  0  2.109204  0  0  -0.709789  0  2.377073  0  0  -0.737015  0  2.368107  0  -1.201807  0  -0.424977  -0.689932  0  2.382229  0
O  O134  1  0.80420516  0.23926564  0.15124593  1  0  -0.587247  0  1.986046  0  0  -0.538061  0  2.210984  0  0  -0.562038  0  2.202983  0  -1.17241  0  -0.290807  -0.521175  0  2.215932  0
O  O135  1  0.19580685  0.76072758  0.84875767  1  0  -0.58729  0  1.985886  0  0  -0.538138  0  2.210844  0  0  -0.562094  0  2.202807  0  -1.172214  0  -0.290888  -0.521253  0  2.215794  0
O  O136  1  0.11965514  0.10774766  0.15816302  1  0  -0.695156  0  2.044621  0  0  -0.641846  0  2.300819  0  0  -0.666319  0  2.288721  0  -1.178791  0  -0.375379  -0.62431  0  2.308493  0
O  O137  1  0.88034848  0.89225276  0.84183844  1  0  -0.695208  0  2.044435  0  0  -0.641988  0  2.300532  0  0  -0.666495  0  2.288487  0  -1.17885  0  -0.375439  -0.624443  0  2.30822  0
O  O138  1  0.91000830  0.96188604  0.09048206  1  0  -0.730721  0  2.084135  0  0  -0.678886  0  2.353569  0  0  -0.703844  0  2.341395  0  -1.205854  0  -0.386858  -0.660916  0  2.361334  0
O  O139  1  0.08999240  0.03811359  0.90951161  1  0  -0.730691  0  2.084581  0  0  -0.678867  0  2.353823  0  0  -0.703807  0  2.341653  0  -1.206155  0  -0.38677  -0.660894  0  2.361602  0
O  O140  1  0.67368506  0.00931909  0.94055280  1  0  -0.680294  0  2.125796  0  0  -0.620129  0  2.363664  0  0  -0.645313  0  2.355388  0  -1.183172  0  -0.369508  -0.602273  0  2.368753  0
O  O141  1  0.32631538  0.99067974  0.05944819  1  0  -0.680116  0  2.12584  0  0  -0.619934  0  2.363627  0  0  -0.64511  0  2.355358  0  -1.18323  0  -0.36941  -0.602081  0  2.368716  0
O  O142  1  0.47728641  0.11960803  0.96528475  1  0  -0.623794  0  2.093441  0  0  -0.581031  0  2.348613  0  0  -0.60298  0  2.339492  0  -1.162814  0  -0.351086  -0.565543  0  2.354478  0
O  O143  1  0.52270825  0.88038519  0.03471064  1  0  -0.623826  0  2.093494  0  0  -0.581085  0  2.348633  0  0  -0.603042  0  2.33951  0  -1.16244  0  -0.351024  -0.565593  0  2.354498  0
O  O144  1  0.93105864  0.18438186  0.00729778  1  0  -0.921661  0  1.897819  0  0  -0.876146  0  2.101467  0  0  -0.895795  0  2.071183  0  -1.279247  0  -0.648432  -0.861797  0  2.122539  0
O  O145  1  0.06894873  0.81561777  0.99270201  1  0  -0.921767  0  1.897693  0  0  -0.876183  0  2.101476  0  0  -0.895842  0  2.071191  0  -1.27919  0  -0.648501  -0.86183  0  2.122541  0
