# generated using pymatgen
data_ZnH22C18N11O4
_symmetry_space_group_name_H-M   'P 1'
_cell_length_a   11.10842087
_cell_length_b   16.53922153
_cell_length_c   17.79678151
_cell_angle_alpha   94.98373134
_cell_angle_beta   90.84233145
_cell_angle_gamma   92.00089934
_symmetry_Int_Tables_number   1
_chemical_formula_structural   ZnH22C18N11O4
_chemical_formula_sum   'Zn2 H44 C36 N22 O8'
_cell_volume   3254.84318663
_cell_formula_units_Z   2
loop_
 _symmetry_equiv_pos_site_id
 _symmetry_equiv_pos_as_xyz
  1  'x, y, z'
loop_
 _atom_site_type_symbol
 _atom_site_label
 _atom_site_symmetry_multiplicity
 _atom_site_fract_x
 _atom_site_fract_y
 _atom_site_fract_z
 _atom_site_occupancy
 _atom_site_pbe_bader_charge
 _atom_site_pbe_bader_spin_density
 _atom_site_pbe_cm5_charge
 _atom_site_pbe_ddec_charge
 _atom_site_pbe_ddec_spin_density
 _atom_site_pbe_ddec_sum_bond_order
 _atom_site_pbe_magmom
Zn  Zn0  1  0.49956777  0.41127321  0.49424851  1  1.29124  0  0.677158  0.83563  0  2.363842  0
Zn  Zn1  1  0.50938646  0.58840558  0.50339761  1  1.286514  0  0.674751  0.833785  0  2.349762  0
H  H2  1  0.62348362  0.99686591  0.52219609  1  0.087008  0  0.099328  0.090589  0  1.038473  0
H  H3  1  0.35434180  0.00905663  0.48858826  1  0.030358  0  0.100263  0.091799  0  1.021388  0
H  H4  1  0.40587516  0.42489240  0.00703867  1  0.04365  0  0.095364  0.085486  0  1.03291  0
H  H5  1  0.58377440  0.56941166  0.99550082  1  0.07412  0  0.101933  0.103734  0  1.009826  0
H  H6  1  0.68596801  0.66339514  0.58453986  1  0.521629  0  0.305364  0.321018  0  0.987234  0
H  H7  1  0.71749250  0.75685735  0.63399829  1  0.459831  0  0.309824  0.303856  0  0.954363  0
H  H8  1  0.66444160  0.94874105  0.61487829  1  0.439129  0  0.290911  0.283541  0  0.984729  0
H  H9  1  0.76286410  0.87565367  0.59903167  1  0.415728  0  0.295079  0.277454  0  0.95848  0
H  H10  1  0.35128042  0.64664179  0.41895428  1  0.489087  0  0.299655  0.308615  0  0.984905  0
H  H11  1  0.26848788  0.72675930  0.41293116  1  0.439351  0  0.293901  0.276399  0  0.981879  0
H  H12  1  0.32134565  0.83417598  0.37073029  1  0.42468  0  0.292334  0.278657  0  0.975218  0
H  H13  1  0.27741303  0.90098349  0.43878698  1  0.411732  0  0.291098  0.273423  0  0.969017  0
H  H14  1  0.69570616  0.15693133  0.61857387  1  0.410446  0  0.293577  0.277404  0  0.969864  0
H  H15  1  0.57069567  0.11764458  0.65254824  1  0.414147  0  0.291386  0.275855  0  0.959333  0
H  H16  1  0.61707771  0.35406027  0.60197194  1  0.486803  0  0.298672  0.311096  0  0.986263  0
H  H17  1  0.64436960  0.27119217  0.64510412  1  0.437813  0  0.295997  0.276134  0  0.979579  0
H  H18  1  0.35902751  0.05035571  0.37865037  1  0.42702  0  0.286887  0.276345  0  0.990944  0
H  H19  1  0.34890835  0.13280692  0.33299797  1  0.425134  0  0.293751  0.274161  0  0.969818  0
H  H20  1  0.38685839  0.33540273  0.37626390  1  0.510904  0  0.304918  0.323595  0  0.986354  0
H  H21  1  0.30073828  0.24666806  0.35515417  1  0.421875  0  0.314156  0.306796  0  0.946467  0
H  H22  1  0.55553289  0.34587258  0.30793423  1  0.461816  0  0.288252  0.291798  0  0.997113  0
H  H23  1  0.61023348  0.30887022  0.22490389  1  0.421783  0  0.287582  0.270109  0  0.970134  0
H  H24  1  0.54731292  0.33337181  0.05087748  1  0.434504  0  0.291893  0.283782  0  0.975095  0
H  H25  1  0.50353538  0.28717857  0.12804919  1  0.432496  0  0.290066  0.279056  0  0.991134  0
H  H26  1  0.52461126  0.63609144  0.32486225  1  0.499307  0  0.282034  0.292621  0  1.022322  0
H  H27  1  0.44085001  0.67333476  0.25799731  1  0.395461  0  0.28028  0.258903  0  0.989819  0
H  H28  1  0.43762106  0.63027974  0.07064754  1  0.427007  0  0.286384  0.267797  0  0.99531  0
H  H29  1  0.49217241  0.68223329  0.15131114  1  0.415915  0  0.290522  0.278146  0  0.992252  0
H  H30  1  0.42373118  0.35598363  0.92110786  1  0.419715  0  0.284167  0.269239  0  1.007338  0
H  H31  1  0.48043661  0.31666491  0.83923183  1  0.423346  0  0.284145  0.271317  0  1.004741  0
H  H32  1  0.44022293  0.36586074  0.67172160  1  0.434932  0  0.287551  0.292401  0  1.002335  0
H  H33  1  0.36985672  0.33391749  0.74729862  1  0.393639  0  0.288575  0.271401  0  0.966955  0
H  H34  1  0.50900388  0.66368627  0.95157782  1  0.41262  0  0.285865  0.272691  0  0.996522  0
H  H35  1  0.48519568  0.70726688  0.87120026  1  0.422884  0  0.288683  0.274594  0  0.981786  0
H  H36  1  0.51814462  0.65737991  0.68928347  1  0.49923  0  0.281409  0.288987  0  1.033262  0
H  H37  1  0.58376768  0.69837154  0.77187551  1  0.415344  0  0.29012  0.277311  0  0.969562  0
H  H38  1  0.22384207  0.64563601  0.52111328  1  0.492002  0  0.289192  0.290423  0  1.002132  0
H  H39  1  0.09417299  0.68939549  0.54968780  1  0.421446  0  0.286516  0.271711  0  0.976104  0
H  H40  1  0.78607068  0.35301740  0.50012079  1  0.493412  0  0.282709  0.291938  0  1.026085  0
H  H41  1  0.91783848  0.31100189  0.52507789  1  0.415697  0  0.288111  0.274248  0  0.978437  0
H  H42  1  0.80873142  0.64959925  0.49203104  1  0.457294  0  0.287665  0.288298  0  1.006747  0
H  H43  1  0.94639575  0.68947966  0.47121696  1  0.411472  0  0.285145  0.270366  0  0.982155  0
H  H44  1  0.20238038  0.34874956  0.48370958  1  0.489219  0  0.282098  0.289754  0  1.032044  0
H  H45  1  0.06373662  0.30655161  0.45483932  1  0.417979  0  0.288059  0.273857  0  0.98002  0
C  C46  1  0.51598160  0.49215676  0.34922557  1  1.472113  0  0.214147  0.616138  0  4.110254  0
C  C47  1  0.26686573  0.49681549  0.49618425  1  1.51883  0  0.216145  0.61914  0  4.109937  0
C  C48  1  0.49283995  0.50864405  0.64796310  1  1.496866  0  0.21488  0.618218  0  4.116044  0
C  C49  1  0.74291269  0.50205568  0.50184607  1  1.491109  0  0.217422  0.621424  0  4.104473  0
C  C50  1  0.43168733  0.75373967  0.46179252  1  0.879198  0  0.1999  0.327963  0  4.085342  0
C  C51  1  0.42842804  0.83897470  0.46434402  1  0.411546  0  0.055846  0.064172  0  4.044414  0
C  C52  1  0.51389286  0.88600812  0.51090821  1  0.02964  0  -0.016219  -0.025458  0  4.058277  0
C  C53  1  0.59323289  0.84579949  0.55621713  1  0.340422  0  0.06136  0.064111  0  4.063664  0
C  C54  1  0.58864479  0.76012364  0.55216455  1  1.000632  0  0.212648  0.354722  0  4.097592  0
C  C55  1  0.53137922  0.97340981  0.51076703  1  -0.019964  0  -0.091355  -0.099792  0  4.01501  0
C  C56  1  0.44849142  0.02856206  0.49853475  1  -0.077646  0  -0.0935  -0.106397  0  3.991084  0
C  C57  1  0.41290555  0.15465037  0.44057991  1  0.342322  0  0.060651  0.063192  0  4.079533  0
C  C58  1  0.47270364  0.11598465  0.49672371  1  -0.004836  0  -0.015706  -0.020887  0  4.048342  0
C  C59  1  0.54942237  0.16266424  0.54900296  1  0.41253  0  0.050968  0.051825  0  4.048266  0
C  C60  1  0.55921627  0.24713479  0.54480127  1  0.945966  0  0.197575  0.324406  0  4.113064  0
C  C61  1  0.42431724  0.24007524  0.44111685  1  1.008565  0  0.21236  0.353639  0  4.103185  0
C  C62  1  0.51850095  0.48947400  0.26592885  1  0.032246  0  -0.046146  -0.256774  0  3.964355  0
C  C63  1  0.51070408  0.56254538  0.22908434  1  0.438889  0  0.074482  0.174352  0  4.053444  0
C  C64  1  0.50062351  0.55905359  0.14971897  1  0.360095  0  0.070321  0.137153  0  4.070664  0
C  C65  1  0.49294751  0.48346374  0.10642375  1  0.045548  0  -0.02975  -0.069996  0  4.033766  0
C  C66  1  0.50432551  0.41134626  0.14266462  1  0.324976  0  0.065787  0.13053  0  4.081678  0
C  C67  1  0.52176274  0.41362312  0.22120257  1  0.385779  0  0.066067  0.161657  0  4.064806  0
C  C68  1  0.46985901  0.47485947  0.02492755  1  -0.117756  0  -0.097284  -0.106381  0  3.997638  0
C  C69  1  0.51962644  0.52107201  0.97344173  1  -0.015141  0  -0.10026  -0.120109  0  4.008337  0
C  C70  1  0.51104578  0.58662248  0.85536027  1  0.40349  0  0.065387  0.121861  0  4.0743  0
C  C71  1  0.50204158  0.51419504  0.89179563  1  -0.029088  0  -0.032777  -0.070059  0  4.043907  0
C  C72  1  0.48166010  0.43942763  0.84713838  1  0.429949  0  0.063964  0.130615  0  4.05604  0
C  C73  1  0.47130386  0.43799595  0.76801618  1  0.329604  0  0.066664  0.159256  0  4.050741  0
C  C74  1  0.48865506  0.51070224  0.73112593  1  0.022276  0  -0.04632  -0.253933  0  3.962895  0
C  C75  1  0.50674880  0.58579045  0.77610015  1  0.390585  0  0.078143  0.184113  0  4.070699  0
C  C76  1  0.13379856  0.49861388  0.49880675  1  -0.040519  0  -0.041774  -0.242057  0  3.953706  0
C  C77  1  0.87600517  0.50115258  0.49923942  1  0.098243  0  -0.041686  -0.244237  0  3.945615  0
C  C78  1  0.07380026  0.57363039  0.50420686  1  0.352575  0  0.066241  0.157591  0  4.049686  0
C  C79  1  0.93559421  0.42620697  0.49614902  1  0.429604  0  0.079933  0.180184  0  4.044683  0
C  C80  1  0.94726242  0.57479152  0.50149124  1  0.358572  0  0.06935  0.164772  0  4.058558  0
C  C81  1  0.06322695  0.42494512  0.49429278  1  0.407408  0  0.078553  0.176961  0  4.051821  0
N  N82  1  0.51075634  0.71515642  0.50434370  1  -1.25159  0  -0.345963  -0.410344  0  3.425455  0
N  N83  1  0.49678994  0.28494314  0.49226240  1  -1.263663  0  -0.347002  -0.409042  0  3.428774  0
N  N84  1  0.66092780  0.72142483  0.59922805  1  -1.288728  0  -0.589329  -0.624825  0  3.35525  0
N  N85  1  0.67473119  0.88759523  0.60908701  1  -1.189624  0  -0.611716  -0.612868  0  3.307475  0
N  N86  1  0.35465857  0.70731536  0.41155772  1  -1.240803  0  -0.604859  -0.637517  0  3.306209  0
N  N87  1  0.35027014  0.87495168  0.41398533  1  -1.174526  0  -0.612103  -0.611669  0  3.322237  0
N  N88  1  0.61737809  0.12501033  0.60446116  1  -1.180834  0  -0.612163  -0.617597  0  3.313157  0
N  N89  1  0.63678729  0.29390356  0.59398674  1  -1.243708  0  -0.603171  -0.632086  0  3.306251  0
N  N90  1  0.34014915  0.11050925  0.38438369  1  -1.180785  0  -0.6146  -0.610351  0  3.298631  0
N  N91  1  0.35899568  0.27933833  0.39081505  1  -1.24661  0  -0.588462  -0.627169  0  3.355002  0
N  N92  1  0.54139764  0.33872162  0.25105536  1  -1.210577  0  -0.62417  -0.63663  0  3.321631  0
N  N93  1  0.49762916  0.33662099  0.09845902  1  -1.229878  0  -0.61548  -0.625974  0  3.350919  0
N  N94  1  0.51387539  0.63993799  0.26820105  1  -1.216705  0  -0.626045  -0.627654  0  3.321707  0
N  N95  1  0.49676702  0.63181864  0.11493711  1  -1.216428  0  -0.613408  -0.613287  0  3.359442  0
N  N96  1  0.48235293  0.36451131  0.87920007  1  -1.207794  0  -0.620738  -0.623325  0  3.354229  0
N  N97  1  0.44617870  0.36108729  0.72839278  1  -1.154313  0  -0.62446  -0.638799  0  3.318309  0
N  N98  1  0.52874715  0.66298672  0.89603753  1  -1.211313  0  -0.617574  -0.615099  0  3.329726  0
N  N99  1  0.51738896  0.66103831  0.74677028  1  -1.243996  0  -0.6185  -0.623857  0  3.349183  0
N  N100  1  0.13404484  0.65043326  0.51073245  1  -1.228731  0  -0.619307  -0.627643  0  3.334026  0
N  N101  1  0.87663706  0.35040492  0.49300541  1  -1.236263  0  -0.617685  -0.622225  0  3.356481  0
N  N102  1  0.89875932  0.65218679  0.50363100  1  -1.190926  0  -0.622699  -0.63063  0  3.344818  0
N  N103  1  0.11135841  0.34819392  0.49007321  1  -1.249152  0  -0.617721  -0.621831  0  3.358452  0
O  O104  1  0.48775367  0.42618575  0.37979746  1  -1.189476  0  -0.317799  -0.564047  0  2.383745  0
O  O105  1  0.53896051  0.55925299  0.38941816  1  -1.177723  0  -0.313059  -0.542099  0  2.357553  0
O  O106  1  0.32715585  0.56251591  0.48473834  1  -1.189905  0  -0.319923  -0.568907  0  2.399415  0
O  O107  1  0.31868542  0.43028629  0.50474234  1  -1.166424  0  -0.309419  -0.533369  0  2.372488  0
O  O108  1  0.47913631  0.57404816  0.61560089  1  -1.169765  0  -0.312555  -0.536191  0  2.352234  0
O  O109  1  0.51276649  0.44050394  0.61000397  1  -1.192974  0  -0.320209  -0.570167  0  2.401061  0
O  O110  1  0.68173250  0.43548371  0.48679340  1  -1.181319  0  -0.310892  -0.538086  0  2.373603  0
O  O111  1  0.69150107  0.56977593  0.51954275  1  -1.186818  0  -0.318333  -0.564748  0  2.382728  0
