# generated using pymatgen
data_NaErH16(C3O2)6
_symmetry_space_group_name_H-M   'P 1'
_cell_length_a   6.78696868
_cell_length_b   7.44200330
_cell_length_c   19.82566532
_cell_angle_alpha   89.99953875
_cell_angle_beta   99.86724228
_cell_angle_gamma   90.00011820
_symmetry_Int_Tables_number   1
_chemical_formula_structural   NaErH16(C3O2)6
_chemical_formula_sum   'Na2 Er2 H32 C36 O24'
_cell_volume   986.55469136
_cell_formula_units_Z   2
loop_
 _symmetry_equiv_pos_site_id
 _symmetry_equiv_pos_as_xyz
  1  'x, y, z'
loop_
 _atom_site_type_symbol
 _atom_site_label
 _atom_site_symmetry_multiplicity
 _atom_site_fract_x
 _atom_site_fract_y
 _atom_site_fract_z
 _atom_site_occupancy
 _atom_site_hle17_bader_spin_density
 _atom_site_hle17_ddec_charge
 _atom_site_hle17_ddec_spin_density
 _atom_site_hle17_ddec_sum_bond_order
 _atom_site_hle17_magmom
 _atom_site_hse06_10hf_bader_spin_density
 _atom_site_hse06_10hf_ddec_charge
 _atom_site_hse06_10hf_ddec_spin_density
 _atom_site_hse06_10hf_ddec_sum_bond_order
 _atom_site_hse06_10hf_magmom
 _atom_site_hse06_bader_spin_density
 _atom_site_hse06_ddec_charge
 _atom_site_hse06_ddec_spin_density
 _atom_site_hse06_ddec_sum_bond_order
 _atom_site_hse06_magmom
 _atom_site_pbe_bader_spin_density
 _atom_site_pbe_cm5_charge
 _atom_site_pbe_ddec_charge
 _atom_site_pbe_ddec_spin_density
 _atom_site_pbe_ddec_sum_bond_order
 _atom_site_pbe_magmom
Na  Na0  1  0.16412759  0.25005034  0.32839018  1  0  0.926895  0  0.358041  0  0  0.898396  0  0.490508  0  0  0.906943  0  0.469943  0  0  0.698903  0.891802  0  0.505629  0
Na  Na1  1  0.83586751  0.75003644  0.67161361  1  0  0.926865  0  0.358047  0  0  0.89833  0  0.490566  0  0  0.90689  0  0.469986  0  0  0.698845  0.891766  0  0.505597  0
Er  Er2  1  0.29248180  0.74986211  0.58489552  1  0  2.204535  0  1.713391  0  0  2.055821  0  2.206749  0  0  2.10333  0  2.1673  0  0  1.528779  2.019141  0  2.238283  0
Er  Er3  1  0.70749690  0.24985650  0.41509821  1  0  2.204614  0  1.713199  0  0  2.055868  0  2.20657  0  0  2.103226  0  2.167341  0  0  1.528879  2.019206  0  2.238102  0
H  H4  1  0.23558671  0.14476033  0.06331527  1  0  0.085241  0  0.950232  0  0  0.097563  0  1.00859  0  0  0.100508  0  1.007693  0  0  0.097483  0.095438  0  1.009327  0
H  H5  1  0.76441735  0.64476890  0.93668332  1  0  0.085231  0  0.950308  0  0  0.097562  0  1.008648  0  0  0.100495  0  1.007766  0  0  0.097506  0.095439  0  1.009391  0
H  H6  1  0.82725794  0.35550124  0.06336311  1  0  0.085778  0  0.949981  0  0  0.098401  0  1.008027  0  0  0.101395  0  1.007094  0  0  0.098024  0.09628  0  1.008768  0
H  H7  1  0.17274771  0.85551262  0.93663593  1  0  0.085799  0  0.949963  0  0  0.09842  0  1.008  0  0  0.101415  0  1.007068  0  0  0.09803  0.096297  0  1.008746  0
H  H8  1  0.29773395  0.14806461  0.19043832  1  0  0.108209  0  0.966488  0  0  0.118712  0  1.027189  0  0  0.122235  0  1.024418  0  0  0.109085  0.116145  0  1.029227  0
H  H9  1  0.70227010  0.64807440  0.80956177  1  0  0.108308  0  0.966457  0  0  0.118752  0  1.027219  0  0  0.122275  0  1.024447  0  0  0.109107  0.116185  0  1.029258  0
H  H10  1  0.89224597  0.35212588  0.19049297  1  0  0.10989  0  0.965227  0  0  0.119873  0  1.026365  0  0  0.123393  0  1.0236  0  0  0.109393  0.117296  0  1.028437  0
H  H11  1  0.10775070  0.85212502  0.80950605  1  0  0.109913  0  0.965242  0  0  0.119885  0  1.026395  0  0  0.123411  0  1.023616  0  0  0.109409  0.117302  0  1.028481  0
H  H12  1  0.78072089  0.14599964  0.96974627  1  0  0.083959  0  0.956661  0  0  0.095753  0  1.017293  0  0  0.098818  0  1.015822  0  0  0.097819  0.093583  0  1.018403  0
H  H13  1  0.21930112  0.64599935  0.03025236  1  0  0.08405  0  0.95668  0  0  0.095726  0  1.017423  0  0  0.098791  0  1.015956  0  0  0.097757  0.093558  0  1.018533  0
H  H14  1  0.18864471  0.35419566  0.96962438  1  0  0.083668  0  0.957877  0  0  0.095842  0  1.018072  0  0  0.098845  0  1.01668  0  0  0.097791  0.093693  0  1.019167  0
H  H15  1  0.81138488  0.85418182  0.03037356  1  0  0.083587  0  0.95787  0  0  0.095781  0  1.01804  0  0  0.098787  0  1.016645  0  0  0.097727  0.09364  0  1.019117  0
H  H16  1  0.71648167  0.14312803  0.84306478  1  0  0.09589  0  0.958283  0  0  0.106206  0  1.019682  0  0  0.1094  0  1.017349  0  0  0.105986  0.10386  0  1.021421  0
H  H17  1  0.28354034  0.64312117  0.15693336  1  0  0.095888  0  0.958268  0  0  0.106196  0  1.019676  0  0  0.109388  0  1.017345  0  0  0.105958  0.103848  0  1.021415  0
H  H18  1  0.12639209  0.35684675  0.84295055  1  0  0.094792  0  0.958618  0  0  0.104875  0  1.020496  0  0  0.1081  0  1.018151  0  0  0.105476  0.102494  0  1.022236  0
H  H19  1  0.87363301  0.85684381  0.15704813  1  0  0.094882  0  0.958566  0  0  0.104967  0  1.020453  0  0  0.108189  0  1.018116  0  0  0.105543  0.102609  0  1.022169  0
H  H20  1  0.50651668  0.26728952  0.56522022  1  0  0.10479  0  0.921189  0  0  0.111222  0  0.980441  0  0  0.114596  0  0.977577  0  0  0.130841  0.108737  0  0.982705  0
H  H21  1  0.49346650  0.76728932  0.43477726  1  0  0.104868  0  0.921161  0  0  0.111261  0  0.980401  0  0  0.114631  0  0.977545  0  0  0.130866  0.108812  0  0.98261  0
H  H22  1  0.05874034  0.23243822  0.56517065  1  0  0.104035  0  0.924266  0  0  0.110924  0  0.981966  0  0  0.114346  0  0.978981  0  0  0.130778  0.108394  0  0.984318  0
H  H23  1  0.94123535  0.73243761  0.43482497  1  0  0.104046  0  0.924302  0  0  0.11086  0  0.982038  0  0  0.114305  0  0.979026  0  0  0.130807  0.10832  0  0.984408  0
H  H24  1  0.43434344  0.11299670  0.65597588  1  0  0.401644  0  0.8943  0  0  0.371219  0  0.970266  0  0  0.383333  0  0.956676  0  0  0.306116  0.362679  0  0.979537  0
H  H25  1  0.56563968  0.61301200  0.34401752  1  0  0.401573  0  0.894409  0  0  0.371165  0  0.97037  0  0  0.383278  0  0.95678  0  0  0.306081  0.362622  0  0.979651  0
H  H26  1  0.22155835  0.38680044  0.65595162  1  0  0.40105  0  0.895137  0  0  0.370893  0  0.970703  0  0  0.383025  0  0.957092  0  0  0.306003  0.362339  0  0.979983  0
H  H27  1  0.77842937  0.88679738  0.34404576  1  0  0.40105  0  0.895126  0  0  0.370963  0  0.970601  0  0  0.383046  0  0.957086  0  0  0.306012  0.362445  0  0.979837  0
H  H28  1  0.24570589  0.59059247  0.26434261  1  0  0.415906  0  0.891368  0  0  0.385023  0  0.956029  0  0  0.395221  0  0.940775  0  0  0.288087  0.377762  0  0.966888  0
H  H29  1  0.75427120  0.09057615  0.73565908  1  0  0.41593  0  0.891307  0  0  0.38499  0  0.956062  0  0  0.395204  0  0.940781  0  0  0.288009  0.377731  0  0.966914  0
H  H30  1  0.01845195  0.90957086  0.26430590  1  0  0.41485  0  0.892601  0  0  0.384201  0  0.95677  0  0  0.394399  0  0.941523  0  0  0.287858  0.376981  0  0.967559  0
H  H31  1  0.98156863  0.40956442  0.73570445  1  0  0.414808  0  0.892667  0  0  0.384092  0  0.956963  0  0  0.394295  0  0.941708  0  0  0.28776  0.376871  0  0.96775  0
H  H32  1  0.01978306  0.60399310  0.27366156  1  0  0.416197  0  0.872785  0  0  0.38922  0  0.932658  0  0  0.398054  0  0.919507  0  0  0.297136  0.382933  0  0.942029  0
H  H33  1  0.98019701  0.10396670  0.72634329  1  0  0.416299  0  0.872753  0  0  0.389256  0  0.932644  0  0  0.398099  0  0.919483  0  0  0.297153  0.38296  0  0.942024  0
H  H34  1  0.25370834  0.89635817  0.27355215  1  0  0.415856  0  0.874969  0  0  0.38885  0  0.933276  0  0  0.397688  0  0.920145  0  0  0.29698  0.382582  0  0.942591  0
H  H35  1  0.74631371  0.39635547  0.72646388  1  0  0.416004  0  0.874851  0  0  0.38887  0  0.93326  0  0  0.397709  0  0.920125  0  0  0.29698  0.382602  0  0.942577  0
C  C36  1  0.52694706  0.25013424  0.05436124  1  0  0.057471  0  3.78519  0  0  0.071845  0  4.018119  0  0  0.073599  0  4.042294  0  0  -0.00143  0.070849  0  4.001567  0
C  C37  1  0.47306753  0.75013664  0.94563563  1  0  0.057476  0  3.785203  0  0  0.071684  0  4.018257  0  0  0.073436  0  4.042427  0  0  -0.001492  0.070685  0  4.001711  0
C  C38  1  0.48928799  0.25011100  0.97886617  1  0  0.069482  0  3.769287  0  0  0.080534  0  4.004068  0  0  0.082427  0  4.027308  0  0  0.001769  0.079416  0  3.988169  0
C  C39  1  0.51072659  0.75010747  0.02113120  1  0  0.06944  0  3.769397  0  0  0.080648  0  4.003989  0  0  0.082541  0  4.02723  0  0  0.00189  0.079526  0  3.988099  0
C  C40  1  0.37806556  0.19413533  0.09110894  1  0  -0.115339  0  3.741193  0  0  -0.133586  0  3.990581  0  0  -0.139018  0  4.013106  0  0  -0.088635  -0.129921  0  3.975209  0
C  C41  1  0.62194152  0.69413748  0.90888715  1  0  -0.115202  0  3.741413  0  0  -0.133417  0  3.990788  0  0  -0.138837  0  4.013315  0  0  -0.088575  -0.129756  0  3.975425  0
C  C42  1  0.71257541  0.30610419  0.09114548  1  0  -0.117004  0  3.745942  0  0  -0.135513  0  3.995399  0  0  -0.141001  0  4.017957  0  0  -0.089759  -0.131858  0  3.980023  0
C  C43  1  0.28743320  0.80611101  0.90885540  1  0  -0.117056  0  3.745729  0  0  -0.135521  0  3.995213  0  0  -0.141008  0  4.017772  0  0  -0.089783  -0.131861  0  3.979835  0
C  C44  1  0.41264271  0.19454176  0.16227491  1  0  -0.052568  0  3.714464  0  0  -0.077163  0  3.960848  0  0  -0.075759  0  3.981226  0  0  -0.076267  -0.07783  0  3.946999  0
C  C45  1  0.58736138  0.69455475  0.83772151  1  0  -0.052678  0  3.714681  0  0  -0.077233  0  3.96104  0  0  -0.075829  0  3.981409  0  0  -0.076257  -0.077908  0  3.947186  0
C  C46  1  0.74917817  0.30559689  0.16229420  1  0  -0.054821  0  3.714775  0  0  -0.079032  0  3.961354  0  0  -0.077635  0  3.98175  0  0  -0.077067  -0.079693  0  3.947506  0
C  C47  1  0.25082147  0.80560380  0.83770565  1  0  -0.054736  0  3.714627  0  0  -0.078944  0  3.961174  0  0  -0.077547  0  3.981567  0  0  -0.077009  -0.079611  0  3.947305  0
C  C48  1  0.63768264  0.19391431  0.94193950  1  0  -0.119463  0  3.746092  0  0  -0.136783  0  3.996093  0  0  -0.141759  0  4.017937  0  0  -0.089757  -0.133446  0  3.981171  0
C  C49  1  0.36234088  0.69391238  0.05806008  1  0  -0.119807  0  3.746121  0  0  -0.137048  0  3.996039  0  0  -0.142024  0  4.017879  0  0  -0.089901  -0.133709  0  3.981121  0
C  C50  1  0.30399719  0.30625468  0.94188889  1  0  -0.121429  0  3.745965  0  0  -0.139016  0  3.995734  0  0  -0.143946  0  4.017595  0  0  -0.09042  -0.135706  0  3.980822  0
C  C51  1  0.69602042  0.80624942  0.05810748  1  0  -0.121222  0  3.745895  0  0  -0.138814  0  3.995564  0  0  -0.143743  0  4.01742  0  0  -0.090333  -0.135502  0  3.980636  0
C  C52  1  0.41713417  0.25002645  0.83438595  1  0  -0.090391  0  3.778959  0  0  -0.069335  0  4.021808  0  0  -0.079246  0  4.047219  0  0  -0.021531  -0.062893  0  4.00462  0
C  C53  1  0.58289236  0.75002809  0.16561566  1  0  -0.090567  0  3.778406  0  0  -0.069806  0  4.021506  0  0  -0.079722  0  4.046919  0  0  -0.021742  -0.063391  0  4.004366  0
C  C54  1  0.60191152  0.19212652  0.87081381  1  0  -0.049702  0  3.739847  0  0  -0.075039  0  3.98812  0  0  -0.07373  0  4.009178  0  0  -0.078867  -0.075628  0  3.97372  0
C  C55  1  0.39810901  0.69212049  0.12918661  1  0  -0.049445  0  3.739438  0  0  -0.074701  0  3.987697  0  0  -0.073388  0  4.00875  0  0  -0.078762  -0.075282  0  3.973305  0
C  C56  1  0.26869878  0.30792027  0.87076545  1  0  -0.045494  0  3.73511  0  0  -0.070589  0  3.982776  0  0  -0.069307  0  4.003826  0  0  -0.077432  -0.071128  0  3.968377  0
C  C57  1  0.73132779  0.80790820  0.12923397  1  0  -0.045596  0  3.734763  0  0  -0.070691  0  3.982562  0  0  -0.069411  0  4.003616  0  0  -0.077433  -0.071251  0  3.968164  0
C  C58  1  0.37907636  0.24997212  0.75816259  1  0  0.676727  0  3.829507  0  0  0.616379  0  4.13184  0  0  0.65045  0  4.124618  0  0  0.23189  0.59333  0  4.135982  0
C  C59  1  0.62094267  0.74997626  0.24184261  1  0  0.676465  0  3.829981  0  0  0.616534  0  4.131818  0  0  0.65061  0  4.124583  0  0  0.231927  0.593505  0  4.135973  0
C  C60  1  0.36912671  0.18602908  0.55736411  1  0  0.058864  0  3.593815  0  0  0.03288  0  3.842774  0  0  0.034097  0  3.848023  0  0  0.003113  0.031959  0  3.839327  0
C  C61  1  0.63086091  0.68602497  0.44263287  1  0  0.058667  0  3.594194  0  0  0.032805  0  3.842801  0  0  0.034006  0  3.848043  0  0  0.003106  0.031887  0  3.839314  0
C  C62  1  0.18824740  0.31374316  0.55734283  1  0  0.057819  0  3.597555  0  0  0.034685  0  3.842398  0  0  0.035949  0  3.847636  0  0  0.003088  0.033713  0  3.839026  0
C  C63  1  0.81172534  0.81374212  0.44265186  1  0  0.057792  0  3.59786  0  0  0.0349  0  3.842543  0  0  0.036145  0  3.847774  0  0  0.00302  0.03394  0  3.839169  0
C  C64  1  0.35507373  0.08624886  0.48968942  1  0  0.708753  0  3.826094  0  0  0.658058  0  4.128954  0  0  0.692707  0  4.11734  0  0  0.235497  0.634365  0  4.136218  0
C  C65  1  0.64491834  0.58623662  0.51030813  1  0  0.70862  0  3.826522  0  0  0.65806  0  4.129071  0  0  0.692758  0  4.117372  0  0  0.235423  0.634356  0  4.136347  0
C  C66  1  0.13456049  0.41355162  0.48967303  1  0  0.709466  0  3.828273  0  0  0.658811  0  4.129911  0  0  0.693486  0  4.11821  0  0  0.235894  0.635174  0  4.137122  0
C  C67  1  0.86541080  0.91356001  0.51032229  1  0  0.709942  0  3.827703  0  0  0.658903  0  4.129858  0  0  0.693579  0  4.118157  0  0  0.23601  0.635246  0  4.137097  0
C  C68  1  0.59893296  0.25003873  0.19829585  1  0  -0.067731  0  3.743866  0  0  -0.047221  0  3.980994  0  0  -0.056926  0  4.005088  0  0  -0.016463  -0.041003  0  3.9649  0
C  C69  1  0.40107264  0.75003865  0.80170301  1  0  -0.067802  0  3.743939  0  0  -0.047288  0  3.981034  0  0  -0.056984  0  4.005127  0  0  -0.016532  -0.041053  0  3.964886  0
C  C70  1  0.63695494  0.24990628  0.27419478  1  0  0.674972  0  3.888272  0  0  0.631422  0  4.17401  0  0  0.665324  0  4.16617  0  0  0.202337  0.608451  0  4.17852  0
C  C71  1  0.36304469  0.74989832  0.72580272  1  0  0.674847  0  3.888291  0  0  0.63133  0  4.173981  0  0  0.66522  0  4.166178  0  0  0.202306  0.608378  0  4.17842  0
O  O72  1  0.12436658  0.51942869  0.26631326  1  0  -0.866579  0  1.765456  0  0  -0.828591  0  1.9252  0  0  -0.842975  0  1.893974  0  0  -0.653891  -0.818301  0  1.947267  0
O  O73  1  0.87562386  0.01940729  0.73370507  1  0  -0.866666  0  1.765268  0  0  -0.828598  0  1.925016  0  0  -0.843004  0  1.893749  0  0  -0.653829  -0.818313  0  1.947101  0
O  O74  1  0.14167552  0.98082464  0.26619348  1  0  -0.864921  0  1.769464  0  0  -0.82679  0  1.928438  0  0  -0.841232  0  1.897192  0  0  -0.653238  -0.816471  0  1.950402  0
O  O75  1  0.85835406  0.48081798  0.73381970  1  0  -0.865014  0  1.769359  0  0  -0.826703  0  1.92843  0  0  -0.841158  0  1.897199  0  0  -0.65314  -0.816402  0  1.95039  0
O  O76  1  0.52062461  0.20574796  0.72607775  1  0  -0.646554  0  2.019584  0  0  -0.573531  0  2.233209  0  0  -0.599697  0  2.222754  0  0  -0.302364  -0.555331  0  2.240004  0
O  O77  1  0.47938095  0.70576725  0.27392527  1  0  -0.646503  0  2.019718  0  0  -0.57369  0  2.233206  0  0  -0.599852  0  2.222758  0  0  -0.302461  -0.555485  0  2.239998  0
O  O78  1  0.20540221  0.29412168  0.72604201  1  0  -0.645742  0  2.021365  0  0  -0.572253  0  2.23436  0  0  -0.598562  0  2.223998  0  0  -0.301537  -0.554025  0  2.241111  0
O  O79  1  0.79461384  0.79410535  0.27396540  1  0  -0.645362  0  2.02187  0  0  -0.572075  0  2.234663  0  0  -0.598348  0  2.224293  0  0  -0.301349  -0.553895  0  2.241444  0
O  O80  1  0.29333308  0.92612482  0.48774778  1  0  -0.664425  0  2.040403  0  0  -0.613005  0  2.290446  0  0  -0.637466  0  2.27996  0  0  -0.361894  -0.595805  0  2.297146  0
O  O81  1  0.70664417  0.42611849  0.51225390  1  0  -0.664195  0  2.040486  0  0  -0.612831  0  2.290444  0  0  -0.637275  0  2.279927  0  0  -0.361764  -0.595617  0  2.297126  0
O  O82  1  0.19431254  0.57369407  0.48772753  1  0  -0.665011  0  2.042113  0  0  -0.613692  0  2.291677  0  0  -0.638223  0  2.281229  0  0  -0.362166  -0.59646  0  2.298297  0
O  O83  1  0.80567803  0.07369333  0.51226795  1  0  -0.665104  0  2.042142  0  0  -0.613629  0  2.291846  0  0  -0.63813  0  2.281388  0  0  -0.362136  -0.596397  0  2.298478  0
O  O84  1  0.40501963  0.16826097  0.43873267  1  0  -0.774977  0  2.080494  0  0  -0.731225  0  2.356844  0  0  -0.754996  0  2.342314  0  0  -0.437058  -0.714156  0  2.366174  0
O  O85  1  0.59495154  0.66825293  0.56126389  1  0  -0.775013  0  2.08045  0  0  -0.731359  0  2.356809  0  0  -0.755181  0  2.342256  0  0  -0.437066  -0.714284  0  2.366133  0
O  O86  1  0.03362537  0.33152710  0.43871692  1  0  -0.774972  0  2.081693  0  0  -0.731614  0  2.358112  0  0  -0.755456  0  2.343675  0  0  -0.43717  -0.714522  0  2.36734  0
O  O87  1  0.96634436  0.83153193  0.56128259  1  0  -0.775102  0  2.081035  0  0  -0.731632  0  2.35763  0  0  -0.755516  0  2.343225  0  0  -0.437214  -0.714526  0  2.36685  0
O  O88  1  0.37849256  0.05391223  0.61019110  1  0  -0.668721  0  2.191881  0  0  -0.617223  0  2.445475  0  0  -0.633941  0  2.43168  0  0  -0.450314  -0.604926  0  2.45441  0
O  O89  1  0.62149950  0.55391996  0.38980403  1  0  -0.668599  0  2.191716  0  0  -0.617153  0  2.445225  0  0  -0.633864  0  2.43145  0  0  -0.450252  -0.604856  0  2.454159  0
O  O90  1  0.23164037  0.44586433  0.61017724  1  0  -0.668016  0  2.193365  0  0  -0.617553  0  2.445624  0  0  -0.63428  0  2.431836  0  0  -0.450461  -0.605234  0  2.454568  0
O  O91  1  0.76831598  0.94585894  0.38981810  1  0  -0.668092  0  2.193459  0  0  -0.617727  0  2.445573  0  0  -0.634404  0  2.431873  0  0  -0.450462  -0.60543  0  2.454477  0
O  O92  1  0.49199390  0.23479963  0.30762360  1  0  -0.746866  0  2.002185  0  0  -0.699881  0  2.253557  0  0  -0.723711  0  2.243015  0  0  -0.444713  -0.682962  0  2.260237  0
O  O93  1  0.50800274  0.73479805  0.69237124  1  0  -0.746869  0  2.002196  0  0  -0.699883  0  2.253527  0  0  -0.723727  0  2.242989  0  0  -0.444688  -0.682982  0  2.260181  0
O  O94  1  0.81539948  0.26482011  0.30760753  1  0  -0.746245  0  2.002635  0  0  -0.699077  0  2.253752  0  0  -0.722836  0  2.243093  0  0  -0.443825  -0.682207  0  2.26051  0
O  O95  1  0.18459265  0.76480039  0.69239401  1  0  -0.746101  0  2.002608  0  0  -0.698965  0  2.253733  0  0  -0.722742  0  2.243082  0  0  -0.443797  -0.68211  0  2.260465  0
