# generated using pymatgen
data_CdH7C13NO5
_symmetry_space_group_name_H-M   'P 1'
_cell_length_a   7.57205920
_cell_length_b   8.55768674
_cell_length_c   9.08203917
_cell_angle_alpha   81.27266343
_cell_angle_beta   77.95877365
_cell_angle_gamma   82.33516488
_symmetry_Int_Tables_number   1
_chemical_formula_structural   CdH7C13NO5
_chemical_formula_sum   'Cd2 H14 C26 N2 O10'
_cell_volume   565.73862047
_cell_formula_units_Z   2
loop_
 _symmetry_equiv_pos_site_id
 _symmetry_equiv_pos_as_xyz
  1  'x, y, z'
loop_
 _atom_site_type_symbol
 _atom_site_label
 _atom_site_symmetry_multiplicity
 _atom_site_fract_x
 _atom_site_fract_y
 _atom_site_fract_z
 _atom_site_occupancy
 _atom_site_hle17_bader_spin_density
 _atom_site_hle17_ddec_charge
 _atom_site_hle17_ddec_spin_density
 _atom_site_hle17_ddec_sum_bond_order
 _atom_site_hle17_magmom
 _atom_site_hse06_10hf_bader_spin_density
 _atom_site_hse06_10hf_ddec_charge
 _atom_site_hse06_10hf_ddec_spin_density
 _atom_site_hse06_10hf_ddec_sum_bond_order
 _atom_site_hse06_10hf_magmom
 _atom_site_hse06_bader_spin_density
 _atom_site_hse06_ddec_charge
 _atom_site_hse06_ddec_spin_density
 _atom_site_hse06_ddec_sum_bond_order
 _atom_site_hse06_magmom
 _atom_site_pbe_bader_spin_density
 _atom_site_pbe_cm5_charge
 _atom_site_pbe_ddec_charge
 _atom_site_pbe_ddec_spin_density
 _atom_site_pbe_ddec_sum_bond_order
 _atom_site_pbe_magmom
Cd  Cd0  1  0.18757681  0.07092534  0.08435562  1  0  1.251352  0  1.582839  0  0  1.079475  0  2.02914  0  0  1.138243  0  1.969636  0  0  0.7858  1.03804  0  2.069192  0
Cd  Cd1  1  0.81242487  0.92907358  0.91564470  1  0  1.251348  0  1.582836  0  0  1.079472  0  2.029145  0  0  1.13824  0  1.969641  0  0  0.785804  1.038038  0  2.069204  0
H  H2  1  0.39676165  0.47546498  0.77752941  1  0  0.115742  0  0.955909  0  0  0.123361  0  1.022963  0  0  0.127584  0  1.019077  0  0  0.111126  0.120188  0  1.025993  0
H  H3  1  0.60323582  0.52453518  0.22247364  1  0  0.115732  0  0.955937  0  0  0.123352  0  1.022979  0  0  0.127574  0  1.019094  0  0  0.111122  0.120179  0  1.026004  0
H  H4  1  0.88250402  0.70590069  0.58169361  1  0  0.114213  0  0.952748  0  0  0.123472  0  1.015032  0  0  0.126513  0  1.0136  0  0  0.111502  0.121261  0  1.01615  0
H  H5  1  0.11749633  0.29409821  0.41830474  1  0  0.114212  0  0.952742  0  0  0.123471  0  1.015028  0  0  0.126513  0  1.013594  0  0  0.111494  0.121258  0  1.016144  0
H  H6  1  0.05422111  0.50419833  0.73655117  1  0  0.10056  0  0.93821  0  0  0.111563  0  0.997432  0  0  0.114479  0  0.995988  0  0  0.106172  0.109315  0  0.99889  0
H  H7  1  0.94578073  0.49579938  0.26344711  1  0  0.100609  0  0.938309  0  0  0.111632  0  0.997484  0  0  0.114548  0  0.996039  0  0  0.106216  0.109379  0  0.998942  0
H  H8  1  0.09372578  0.89813276  0.60985191  1  0  0.142997  0  0.969075  0  0  0.149413  0  1.030471  0  0  0.154518  0  1.02759  0  0  0.111794  0.145629  0  1.032909  0
H  H9  1  0.90627199  0.10186499  0.39014925  1  0  0.143005  0  0.969069  0  0  0.149424  0  1.030469  0  0  0.154528  0  1.027586  0  0  0.111801  0.145642  0  1.032902  0
H  H10  1  0.29571958  0.71734278  0.75798823  1  0  0.1108  0  0.975504  0  0  0.116153  0  1.042635  0  0  0.119512  0  1.039454  0  0  0.124419  0.114195  0  1.043853  0
H  H11  1  0.70428045  0.28265854  0.24201310  1  0  0.110803  0  0.975495  0  0  0.116153  0  1.042626  0  0  0.119513  0  1.039443  0  0  0.124422  0.114197  0  1.043838  0
H  H12  1  0.73613741  0.74793682  0.39167638  1  0  0.102415  0  0.933083  0  0  0.112284  0  0.995026  0  0  0.115324  0  0.991779  0  0  0.128253  0.109972  0  0.997599  0
H  H13  1  0.26386114  0.25206569  0.60832502  1  0  0.102449  0  0.933135  0  0  0.112317  0  0.995062  0  0  0.115356  0  0.991818  0  0  0.128263  0.110008  0  0.997637  0
H  H14  1  0.55199315  0.93792177  0.23541302  1  0  0.138629  0  0.969054  0  0  0.145375  0  1.033367  0  0  0.149754  0  1.031422  0  0  0.110494  0.142233  0  1.034827  0
H  H15  1  0.44800447  0.06207717  0.76458799  1  0  0.13862  0  0.969045  0  0  0.145375  0  1.033358  0  0  0.149754  0  1.031412  0  0  0.11048  0.142236  0  1.034825  0
C  C16  1  0.30086745  0.92804172  0.40498532  1  0  0.43402  0  3.88263  0  0  0.414754  0  4.146821  0  0  0.439449  0  4.155053  0  0  0.108981  0.399077  0  4.139471  0
C  C17  1  0.69913153  0.07195721  0.59501546  1  0  0.434071  0  3.882565  0  0  0.41478  0  4.146808  0  0  0.439476  0  4.155039  0  0  0.109008  0.399105  0  4.13946  0
C  C18  1  0.93760024  0.25837184  0.93533869  1  0  0.656771  0  3.923302  0  0  0.601426  0  4.221588  0  0  0.636817  0  4.213362  0  0  0.20159  0.57742  0  4.22633  0
C  C19  1  0.06240145  0.74162706  0.06465943  1  0  0.656782  0  3.923226  0  0  0.601414  0  4.221576  0  0  0.636804  0  4.21335  0  0  0.201588  0.577421  0  4.226304  0
C  C20  1  0.53421256  0.24595964  0.96016423  1  0  0.656356  0  3.921705  0  0  0.602409  0  4.22054  0  0  0.637504  0  4.214028  0  0  0.207378  0.578705  0  4.222996  0
C  C21  1  0.46578762  0.75404049  0.03983726  1  0  0.656381  0  3.921682  0  0  0.602435  0  4.220515  0  0  0.637532  0  4.214  0  0  0.20738  0.57874  0  4.222965  0
C  C22  1  0.82442735  0.37611892  0.84359585  1  0  -0.029502  0  3.677841  0  0  -0.01788  0  3.911849  0  0  -0.019906  0  3.929669  0  0  0.000915  -0.016791  0  3.900204  0
C  C23  1  0.17557433  0.62388001  0.15640447  1  0  -0.029482  0  3.677741  0  0  -0.01793  0  3.911866  0  0  -0.019957  0  3.929684  0  0  0.00088  -0.016847  0  3.900219  0
C  C24  1  0.63723352  0.37125535  0.85593833  1  0  -0.071149  0  3.737185  0  0  -0.054811  0  3.970886  0  0  -0.062322  0  3.994318  0  0  -0.0152  -0.050176  0  3.955763  0
C  C25  1  0.36276666  0.62874476  0.14406206  1  0  -0.071134  0  3.737203  0  0  -0.054763  0  3.970893  0  0  -0.062275  0  3.994325  0  0  -0.015166  -0.050134  0  3.955772  0
C  C26  1  0.54107042  0.48466764  0.76632675  1  0  -0.139654  0  3.72078  0  0  -0.175223  0  3.979969  0  0  -0.176536  0  3.999391  0  0  -0.083965  -0.174183  0  3.967243  0
C  C27  1  0.45893097  0.51533368  0.23367435  1  0  -0.139688  0  3.720785  0  0  -0.175244  0  3.97997  0  0  -0.176553  0  3.999385  0  0  -0.083986  -0.174201  0  3.967233  0
C  C28  1  0.62790427  0.60342822  0.66656234  1  0  0.160962  0  3.761093  0  0  0.151368  0  4.017602  0  0  0.155655  0  4.0401  0  0  0.088139  0.148522  0  4.001903  0
C  C29  1  0.37209727  0.39657189  0.33343782  1  0  0.160954  0  3.76104  0  0  0.151338  0  4.017576  0  0  0.155623  0  4.040075  0  0  0.088139  0.14849  0  4.001872  0
C  C30  1  0.81422332  0.60983141  0.65442027  1  0  -0.126589  0  3.720348  0  0  -0.153549  0  3.984478  0  0  -0.154823  0  4.003079  0  0  -0.08228  -0.152372  0  3.971735  0
C  C31  1  0.18577553  0.39016868  0.34557815  1  0  -0.126531  0  3.720253  0  0  -0.153483  0  3.984391  0  0  -0.154757  0  4.002993  0  0  -0.082243  -0.152308  0  3.971641  0
C  C32  1  0.91054227  0.49605876  0.74243813  1  0  -0.047299  0  3.704123  0  0  -0.069263  0  3.9575  0  0  -0.070522  0  3.976201  0  0  -0.076608  -0.068385  0  3.945183  0
C  C33  1  0.08945673  0.50394014  0.25756045  1  0  -0.047409  0  3.704205  0  0  -0.069372  0  3.957616  0  0  -0.070628  0  3.976312  0  0  -0.076679  -0.06849  0  3.945293  0
C  C34  1  0.23386321  0.86308673  0.55789504  1  0  -0.235972  0  3.67733  0  0  -0.249194  0  3.927919  0  0  -0.26303  0  3.945879  0  0  -0.098491  -0.240326  0  3.915734  0
C  C35  1  0.76613413  0.13691460  0.44210675  1  0  -0.236002  0  3.677279  0  0  -0.249216  0  3.927878  0  0  -0.263049  0  3.945837  0  0  -0.098517  -0.240352  0  3.915688  0
C  C36  1  0.34405013  0.76276898  0.63987441  1  0  0.093288  0  3.648046  0  0  0.050054  0  3.90345  0  0  0.06164  0  3.917144  0  0  0.043188  0.042723  0  3.893328  0
C  C37  1  0.65594856  0.23723234  0.36012715  1  0  0.093292  0  3.647984  0  0  0.050053  0  3.903414  0  0  0.061637  0  3.91711  0  0  0.043204  0.042723  0  3.893282  0
C  C38  1  0.59333146  0.78332741  0.43452934  1  0  0.103679  0  3.647412  0  0  0.062988  0  3.901514  0  0  0.074813  0  3.915499  0  0  0.048461  0.054134  0  3.893688  0
C  C39  1  0.40666723  0.21667391  0.56547222  1  0  0.103611  0  3.647398  0  0  0.06293  0  3.901493  0  0  0.074763  0  3.915465  0  0  0.048452  0.054073  0  3.893678  0
C  C40  1  0.48942724  0.88625000  0.34816734  1  0  -0.253975  0  3.710909  0  0  -0.273634  0  3.971785  0  0  -0.288205  0  3.992358  0  0  -0.103556  -0.264239  0  3.958094  0
C  C41  1  0.51057010  0.11375131  0.65183335  1  0  -0.253968  0  3.710854  0  0  -0.273643  0  3.97173  0  0  -0.288215  0  3.992304  0  0  -0.103531  -0.264256  0  3.958057  0
N  N42  1  0.52225253  0.71880346  0.57892703  1  0  -0.074915  0  3.566456  0  0  0.015407  0  3.773366  0  0  -0.001245  0  3.799022  0  0  -0.21519  0.026236  0  3.756079  0
N  N43  1  0.47774616  0.28119787  0.42107452  1  0  -0.07487  0  3.566411  0  0  0.01546  0  3.773311  0  0  -0.001193  0  3.79897  0  0  -0.2152  0.026295  0  3.756015  0
O  O44  1  0.94893533  0.28309796  0.06646849  1  0  -0.598627  0  1.95813  0  0  -0.533779  0  2.190445  0  0  -0.56364  0  2.182218  0  0  -0.301473  -0.512885  0  2.195234  0
O  O45  1  0.05106503  0.71690092  0.93352876  1  0  -0.59862  0  1.958168  0  0  -0.533758  0  2.1905  0  0  -0.563622  0  2.182277  0  0  -0.301465  -0.512873  0  2.195291  0
O  O46  1  0.02810019  0.13995595  0.87125776  1  0  -0.68297  0  1.962857  0  0  -0.613412  0  2.211345  0  0  -0.645348  0  2.199836  0  0  -0.333801  -0.590788  0  2.218116  0
O  O47  1  0.97190015  0.86004295  0.12874059  1  0  -0.68299  0  1.962841  0  0  -0.613382  0  2.211286  0  0  -0.645329  0  2.1998  0  0  -0.333782  -0.590759  0  2.21805  0
O  O48  1  0.62187176  0.12708796  0.02556897  1  0  -0.677148  0  2.05943  0  0  -0.610692  0  2.323243  0  0  -0.63888  0  2.309705  0  0  -0.332646  -0.590661  0  2.330054  0
O  O49  1  0.37812829  0.87291333  0.97443015  1  0  -0.677165  0  2.05942  0  0  -0.610711  0  2.32324  0  0  -0.638899  0  2.309699  0  0  -0.332653  -0.590685  0  2.330058  0
O  O50  1  0.36234805  0.26764980  0.97672610  1  0  -0.625665  0  2.031005  0  0  -0.560868  0  2.287772  0  0  -0.59096  0  2.278918  0  0  -0.317004  -0.539824  0  2.293045  0
O  O51  1  0.63765349  0.73235032  0.02327406  1  0  -0.62566  0  2.03098  0  0  -0.560893  0  2.287785  0  0  -0.590976  0  2.278911  0  0  -0.317002  -0.539853  0  2.293059  0
O  O52  1  0.19429203  0.02175156  0.32917670  1  0  -0.61832  0  2.055028  0  0  -0.547197  0  2.3121  0  0  -0.576389  0  2.301247  0  0  -0.328001  -0.527014  0  2.318  0
O  O53  1  0.80570561  0.97824735  0.67082321  1  0  -0.618349  0  2.054967  0  0  -0.54721  0  2.312046  0  0  -0.576404  0  2.301195  0  0  -0.328028  -0.52703  0  2.317952  0
