# generated using pymatgen
data_ZnH12C7S(NO4)2
_symmetry_space_group_name_H-M   'P 1'
_cell_length_a   5.64667613
_cell_length_b   13.19157586
_cell_length_c   15.54199277
_cell_angle_alpha   101.73688700
_cell_angle_beta   90.00045151
_cell_angle_gamma   90.00038227
_symmetry_Int_Tables_number   1
_chemical_formula_structural   ZnH12C7S(NO4)2
_chemical_formula_sum   'Zn4 H48 C28 S4 N8 O32'
_cell_volume   1133.49546454
_cell_formula_units_Z   4
loop_
 _symmetry_equiv_pos_site_id
 _symmetry_equiv_pos_as_xyz
  1  'x, y, z'
loop_
 _atom_site_type_symbol
 _atom_site_label
 _atom_site_symmetry_multiplicity
 _atom_site_fract_x
 _atom_site_fract_y
 _atom_site_fract_z
 _atom_site_occupancy
 _atom_site_hle17_bader_spin_density
 _atom_site_hle17_ddec_charge
 _atom_site_hle17_ddec_spin_density
 _atom_site_hle17_ddec_sum_bond_order
 _atom_site_hle17_magmom
 _atom_site_hse06_10hf_bader_spin_density
 _atom_site_hse06_10hf_ddec_charge
 _atom_site_hse06_10hf_ddec_spin_density
 _atom_site_hse06_10hf_ddec_sum_bond_order
 _atom_site_hse06_10hf_magmom
 _atom_site_hse06_bader_spin_density
 _atom_site_hse06_ddec_charge
 _atom_site_hse06_ddec_spin_density
 _atom_site_hse06_ddec_sum_bond_order
 _atom_site_hse06_magmom
 _atom_site_pbe_bader_spin_density
 _atom_site_pbe_cm5_charge
 _atom_site_pbe_ddec_charge
 _atom_site_pbe_ddec_spin_density
 _atom_site_pbe_ddec_sum_bond_order
 _atom_site_pbe_magmom
Zn  Zn0  1  0.50782361  0.88310064  0.84778899  1  0  1.193233  0  1.671453  0  0  1.026302  0  2.120396  0  0  1.069697  0  2.063752  0  0  0.695231  0.99572  0  2.159551  0
Zn  Zn1  1  0.00784770  0.11690487  0.65221220  1  0  1.193282  0  1.671372  0  0  1.026307  0  2.120371  0  0  1.069731  0  2.063658  0  0  0.695267  0.99571  0  2.159524  0
Zn  Zn2  1  0.49217395  0.11689860  0.15221102  1  0  1.193224  0  1.671335  0  0  1.02629  0  2.120287  0  0  1.069695  0  2.06362  0  0  0.695226  0.9957  0  2.159434  0
Zn  Zn3  1  0.99215871  0.88309667  0.34778952  1  0  1.193222  0  1.671328  0  0  1.026242  0  2.120323  0  0  1.069655  0  2.063625  0  0  0.695228  0.995659  0  2.159476  0
H  H4  1  0.38901083  0.27469973  0.47426877  1  0  0.39551  0  0.878499  0  0  0.363783  0  0.960038  0  0  0.374279  0  0.948549  0  0  0.306044  0.356419  0  0.967991  0
H  H5  1  0.88897743  0.72530992  0.02573418  1  0  0.395493  0  0.878289  0  0  0.363792  0  0.959827  0  0  0.374285  0  0.948339  0  0  0.306049  0.356429  0  0.967788  0
H  H6  1  0.61097610  0.72530566  0.52573494  1  0  0.395563  0  0.878355  0  0  0.36384  0  0.959905  0  0  0.374337  0  0.948412  0  0  0.306054  0.356479  0  0.96786  0
H  H7  1  0.11101305  0.27469239  0.97426768  1  0  0.39541  0  0.878421  0  0  0.363796  0  0.959825  0  0  0.374284  0  0.948343  0  0  0.306066  0.356433  0  0.967798  0
H  H8  1  0.05222563  0.85717814  0.80711148  1  0  0.306465  0  0.908894  0  0  0.293365  0  0.965359  0  0  0.29962  0  0.960547  0  0  0.306544  0.28888  0  0.968884  0
H  H9  1  0.55223951  0.14281141  0.69287722  1  0  0.30651  0  0.908751  0  0  0.293452  0  0.965149  0  0  0.299706  0  0.960333  0  0  0.306509  0.28896  0  0.968675  0
H  H10  1  0.94777547  0.14282272  0.19288432  1  0  0.306421  0  0.908882  0  0  0.293325  0  0.965331  0  0  0.299581  0  0.960515  0  0  0.306497  0.288841  0  0.96885  0
H  H11  1  0.44776513  0.85718474  0.30712158  1  0  0.306479  0  0.908798  0  0  0.29343  0  0.965182  0  0  0.299685  0  0.96036  0  0  0.306509  0.288947  0  0.968706  0
H  H12  1  0.18593742  0.91149295  0.73204459  1  0  0.313  0  0.897343  0  0  0.293206  0  0.965775  0  0  0.299723  0  0.960317  0  0  0.308789  0.288489  0  0.969786  0
H  H13  1  0.68594521  0.08850543  0.76795248  1  0  0.312851  0  0.89749  0  0  0.293035  0  0.965906  0  0  0.299548  0  0.960453  0  0  0.308738  0.288314  0  0.969919  0
H  H14  1  0.81406722  0.08851018  0.26795485  1  0  0.312866  0  0.897338  0  0  0.293038  0  0.965808  0  0  0.299552  0  0.960354  0  0  0.308726  0.288322  0  0.969819  0
H  H15  1  0.31406297  0.91149071  0.23204696  1  0  0.312896  0  0.897406  0  0  0.293072  0  0.965845  0  0  0.299583  0  0.960393  0  0  0.308748  0.288358  0  0.96986  0
H  H16  1  0.09736790  0.73900960  0.66542168  1  0  0.29331  0  0.914979  0  0  0.27367  0  0.980981  0  0  0.281528  0  0.974766  0  0  0.316628  0.268113  0  0.985485  0
H  H17  1  0.59735387  0.26098780  0.83457050  1  0  0.293449  0  0.914784  0  0  0.273657  0  0.981  0  0  0.281514  0  0.974788  0  0  0.316622  0.268096  0  0.985507  0
H  H18  1  0.90264028  0.26099359  0.33457391  1  0  0.29331  0  0.914965  0  0  0.273585  0  0.981097  0  0  0.281438  0  0.97489  0  0  0.316601  0.268044  0  0.9856  0
H  H19  1  0.40265077  0.73900754  0.16543008  1  0  0.293532  0  0.914638  0  0  0.27369  0  0.980886  0  0  0.281541  0  0.974686  0  0  0.316667  0.268143  0  0.985396  0
H  H20  1  0.81748721  0.39028534  0.63389596  1  0  0.118743  0  0.959899  0  0  0.128398  0  1.0201  0  0  0.131546  0  1.019745  0  0  0.104768  0.126028  0  1.020742  0
H  H21  1  0.31743866  0.60973896  0.86610875  1  0  0.118692  0  0.960076  0  0  0.128404  0  1.020243  0  0  0.131551  0  1.019843  0  0  0.10473  0.12608  0  1.020845  0
H  H22  1  0.18251034  0.60971630  0.36609934  1  0  0.118704  0  0.959894  0  0  0.128375  0  1.020094  0  0  0.131513  0  1.019737  0  0  0.104748  0.126007  0  1.020737  0
H  H23  1  0.68255358  0.39026485  0.13389596  1  0  0.118719  0  0.960043  0  0  0.128446  0  1.020199  0  0  0.131593  0  1.019802  0  0  0.104794  0.126118  0  1.020805  0
H  H24  1  0.13400062  0.41323517  0.51628078  1  0  0.113323  0  0.952341  0  0  0.125382  0  1.010236  0  0  0.128521  0  1.009335  0  0  0.10636  0.123183  0  1.011022  0
H  H25  1  0.63395362  0.58676234  0.98371151  1  0  0.113281  0  0.952264  0  0  0.125327  0  1.010177  0  0  0.12846  0  1.00929  0  0  0.106316  0.123128  0  1.010958  0
H  H26  1  0.86600756  0.58676644  0.48371645  1  0  0.113348  0  0.952291  0  0  0.125372  0  1.01021  0  0  0.128509  0  1.00931  0  0  0.106369  0.123171  0  1.011003  0
H  H27  1  0.36604393  0.41323766  0.01628864  1  0  0.113269  0  0.952307  0  0  0.125327  0  1.010209  0  0  0.128461  0  1.009318  0  0  0.106306  0.123119  0  1.011005  0
H  H28  1  0.76465710  0.56784066  0.72538896  1  0  0.10268  0  0.954689  0  0  0.109983  0  1.019996  0  0  0.112732  0  1.018811  0  0  0.104352  0.107985  0  1.020931  0
H  H29  1  0.26462256  0.43217966  0.77461168  1  0  0.102548  0  0.954303  0  0  0.109865  0  1.019659  0  0  0.112608  0  1.018478  0  0  0.104317  0.10787  0  1.020593  0
H  H30  1  0.23535640  0.43215862  0.27460784  1  0  0.102608  0  0.954708  0  0  0.109946  0  1.02  0  0  0.112686  0  1.018814  0  0  0.104359  0.107947  0  1.020929  0
H  H31  1  0.73537677  0.56782495  0.22539189  1  0  0.102604  0  0.954282  0  0  0.109904  0  1.019642  0  0  0.112652  0  1.018461  0  0  0.104305  0.107899  0  1.02059  0
H  H32  1  0.08335049  0.58913656  0.60479295  1  0  0.087534  0  0.964524  0  0  0.099765  0  1.026906  0  0  0.102505  0  1.024537  0  0  0.104734  0.097717  0  1.028778  0
H  H33  1  0.58333532  0.41085843  0.89520133  1  0  0.087453  0  0.964671  0  0  0.09969  0  1.027043  0  0  0.10243  0  1.024679  0  0  0.104739  0.097643  0  1.028909  0
H  H34  1  0.91665415  0.41087047  0.39520528  1  0  0.087529  0  0.964498  0  0  0.099767  0  1.026883  0  0  0.102507  0  1.024513  0  0  0.104743  0.097719  0  1.028751  0
H  H35  1  0.41666932  0.58914235  0.10479896  1  0  0.087447  0  0.964682  0  0  0.099679  0  1.027062  0  0  0.10242  0  1.024696  0  0  0.104724  0.097624  0  1.028942  0
H  H36  1  0.23944173  0.79817053  0.96583428  1  0  0.44045  0  0.850705  0  0  0.40902  0  0.913762  0  0  0.419582  0  0.898246  0  0  0.30185  0.401541  0  0.924751  0
H  H37  1  0.73948795  0.20184808  0.53417114  1  0  0.440411  0  0.850769  0  0  0.40894  0  0.913897  0  0  0.419506  0  0.898372  0  0  0.301834  0.401457  0  0.92489  0
H  H38  1  0.76054697  0.20183022  0.03416794  1  0  0.440506  0  0.850635  0  0  0.409068  0  0.913704  0  0  0.419627  0  0.898191  0  0  0.301883  0.40159  0  0.924689  0
H  H39  1  0.26051492  0.79815502  0.46583023  1  0  0.4404  0  0.850782  0  0  0.408945  0  0.913883  0  0  0.419509  0  0.898362  0  0  0.301849  0.401463  0  0.924874  0
H  H40  1  0.40995712  0.88624701  0.01976319  1  0  0.438278  0  0.86267  0  0  0.404681  0  0.929936  0  0  0.415458  0  0.91415  0  0  0.29401  0.397049  0  0.941132  0
H  H41  1  0.90998679  0.11376892  0.48023968  1  0  0.438074  0  0.862926  0  0  0.404525  0  0.930149  0  0  0.415308  0  0.914349  0  0  0.293911  0.39689  0  0.941347  0
H  H42  1  0.59004043  0.11375774  0.98023205  1  0  0.438212  0  0.862758  0  0  0.404679  0  0.929935  0  0  0.415459  0  0.914142  0  0  0.293979  0.397041  0  0.941139  0
H  H43  1  0.09002139  0.88623025  0.51976418  1  0  0.438014  0  0.863005  0  0  0.404468  0  0.930226  0  0  0.41525  0  0.914429  0  0  0.293891  0.396833  0  0.941425  0
H  H44  1  0.86606782  0.89615608  0.96252476  1  0  0.43111  0  0.860927  0  0  0.39687  0  0.93443  0  0  0.407479  0  0.919083  0  0  0.300916  0.389374  0  0.945253  0
H  H45  1  0.36608694  0.10384362  0.53747489  1  0  0.43111  0  0.86094  0  0  0.396918  0  0.934371  0  0  0.40753  0  0.919019  0  0  0.300906  0.389419  0  0.9452  0
H  H46  1  0.13392620  0.10384317  0.03747397  1  0  0.431109  0  0.860891  0  0  0.396874  0  0.934414  0  0  0.407483  0  0.919067  0  0  0.300925  0.389377  0  0.945239  0
H  H47  1  0.63391947  0.89615410  0.46252291  1  0  0.431149  0  0.860912  0  0  0.396924  0  0.934373  0  0  0.407537  0  0.919021  0  0  0.300907  0.389427  0  0.945201  0
H  H48  1  0.90592489  0.98031722  0.90583625  1  0  0.43783  0  0.861442  0  0  0.405739  0  0.925585  0  0  0.416463  0  0.91017  0  0  0.3012  0.398185  0  0.936435  0
H  H49  1  0.40593162  0.01967952  0.59416295  1  0  0.437861  0  0.861493  0  0  0.40579  0  0.925571  0  0  0.416517  0  0.910151  0  0  0.301207  0.39823  0  0.936429  0
H  H50  1  0.09406558  0.01968124  0.09416362  1  0  0.437887  0  0.861439  0  0  0.405788  0  0.925548  0  0  0.416511  0  0.910134  0  0  0.301229  0.398231  0  0.936404  0
H  H51  1  0.59407302  0.98031895  0.40583628  1  0  0.437822  0  0.861405  0  0  0.405754  0  0.925585  0  0  0.416482  0  0.910165  0  0  0.301203  0.398201  0  0.936434  0
C  C52  1  0.42490805  0.59194545  0.67023132  1  0  -0.101289  0  3.814947  0  0  -0.08289  0  4.060063  0  0  -0.094173  0  4.08472  0  0  -0.031625  -0.075484  0  4.043248  0
C  C53  1  0.92488583  0.40805047  0.82977420  1  0  -0.101283  0  3.814761  0  0  -0.08288  0  4.059853  0  0  -0.094155  0  4.084509  0  0  -0.031548  -0.075469  0  4.043044  0
C  C54  1  0.57510190  0.40805456  0.32976883  1  0  -0.101468  0  3.815179  0  0  -0.082996  0  4.060236  0  0  -0.094281  0  4.084894  0  0  -0.031644  -0.075579  0  4.043391  0
C  C55  1  0.07510996  0.59194956  0.17022467  1  0  -0.101251  0  3.814692  0  0  -0.08285  0  4.059784  0  0  -0.094131  0  4.084442  0  0  -0.031585  -0.075459  0  4.042968  0
C  C56  1  0.40722848  0.69602160  0.72622555  1  0  0.524798  0  3.850181  0  0  0.470241  0  4.145338  0  0  0.501253  0  4.144634  0  0  0.240914  0.449322  0  4.145293  0
C  C57  1  0.90722602  0.30398282  0.77377828  1  0  0.524647  0  3.850349  0  0  0.470137  0  4.145444  0  0  0.501123  0  4.144778  0  0  0.24088  0.449204  0  4.145415  0
C  C58  1  0.59276730  0.30397449  0.27377646  1  0  0.524754  0  3.850322  0  0  0.470223  0  4.145453  0  0  0.501224  0  4.144754  0  0  0.240873  0.449332  0  4.145408  0
C  C59  1  0.09276622  0.69602261  0.22622223  1  0  0.524652  0  3.850399  0  0  0.470146  0  4.145485  0  0  0.501149  0  4.144788  0  0  0.240896  0.449252  0  4.145425  0
C  C60  1  0.65723751  0.43465417  0.62852175  1  0  -0.20671  0  3.721279  0  0  -0.225366  0  3.974874  0  0  -0.234102  0  3.995201  0  0  -0.107822  -0.219614  0  3.961382  0
C  C61  1  0.15721134  0.56534936  0.87148715  1  0  -0.206846  0  3.721716  0  0  -0.225604  0  3.975309  0  0  -0.234315  0  3.995671  0  0  -0.10774  -0.219899  0  3.961789  0
C  C62  1  0.34276005  0.56534654  0.37148304  1  0  -0.206674  0  3.721157  0  0  -0.225361  0  3.974723  0  0  -0.23408  0  3.99506  0  0  -0.107806  -0.219614  0  3.961241  0
C  C63  1  0.84278621  0.43465145  0.12851187  1  0  -0.206759  0  3.721459  0  0  -0.22553  0  3.975067  0  0  -0.234237  0  3.995435  0  0  -0.107799  -0.219832  0  3.961546  0
C  C64  1  0.27282831  0.44819592  0.56134631  1  0  -0.204115  0  3.73277  0  0  -0.221521  0  3.985342  0  0  -0.230037  0  4.006136  0  0  -0.103946  -0.215931  0  3.971364  0
C  C65  1  0.77280079  0.55179952  0.93865813  1  0  -0.20412  0  3.733107  0  0  -0.221578  0  3.985668  0  0  -0.230098  0  4.006478  0  0  -0.104056  -0.215984  0  3.97167  0
C  C66  1  0.72717279  0.55180087  0.43866033  1  0  -0.204069  0  3.73283  0  0  -0.221472  0  3.985396  0  0  -0.229989  0  4.00619  0  0  -0.103987  -0.21589  0  3.97143  0
C  C67  1  0.22719500  0.44820049  0.06134202  1  0  -0.204092  0  3.733026  0  0  -0.221548  0  3.985604  0  0  -0.230062  0  4.006416  0  0  -0.104026  -0.215967  0  3.971621  0
C  C68  1  0.47995330  0.39181612  0.56886043  1  0  0.369552  0  3.795809  0  0  0.357682  0  4.053319  0  0  0.372372  0  4.067016  0  0  0.093299  0.347733  0  4.043769  0
C  C69  1  0.97992834  0.60818766  0.93114988  1  0  0.36945  0  3.796031  0  0  0.357746  0  4.053337  0  0  0.372432  0  4.067042  0  0  0.093364  0.347794  0  4.043804  0
C  C70  1  0.52005311  0.60817843  0.43114129  1  0  0.369447  0  3.795953  0  0  0.35768  0  4.053312  0  0  0.372368  0  4.067009  0  0  0.093279  0.34773  0  4.043778  0
C  C71  1  0.02006390  0.39181859  0.06884885  1  0  0.369565  0  3.795875  0  0  0.357792  0  4.053272  0  0  0.37246  0  4.066997  0  0  0.09336  0.347856  0  4.04372  0
C  C72  1  0.62896575  0.53368804  0.67852831  1  0  -0.035253  0  3.737436  0  0  -0.059616  0  3.988574  0  0  -0.055407  0  4.007647  0  0  -0.079604  -0.062101  0  3.975474  0
C  C73  1  0.12893833  0.46631536  0.82148243  1  0  -0.034777  0  3.73672  0  0  -0.059192  0  3.98793  0  0  -0.054974  0  4.006986  0  0  -0.079503  -0.061693  0  3.974868  0
C  C74  1  0.37104066  0.46631035  0.32147541  1  0  -0.035079  0  3.737252  0  0  -0.059513  0  3.988442  0  0  -0.055291  0  4.007501  0  0  -0.079552  -0.061996  0  3.975333  0
C  C75  1  0.87105922  0.53368772  0.17851958  1  0  -0.035004  0  3.736679  0  0  -0.059385  0  3.987877  0  0  -0.055177  0  4.006943  0  0  -0.079536  -0.061879  0  3.974812  0
C  C76  1  0.24683931  0.54744792  0.61140463  1  0  -0.045049  0  3.756136  0  0  -0.073195  0  4.012094  0  0  -0.068915  0  4.031258  0  0  -0.081445  -0.075749  0  3.999043  0
C  C77  1  0.74681762  0.45255045  0.88860544  1  0  -0.045019  0  3.756281  0  0  -0.073152  0  4.012223  0  0  -0.068865  0  4.031369  0  0  -0.081499  -0.075698  0  3.999145  0
C  C78  1  0.75316002  0.45255521  0.38859481  1  0  -0.045048  0  3.756149  0  0  -0.073214  0  4.012075  0  0  -0.06894  0  4.031252  0  0  -0.081493  -0.075758  0  3.999006  0
C  C79  1  0.25317994  0.54745113  0.11139371  1  0  -0.045018  0  3.756225  0  0  -0.073146  0  4.012165  0  0  -0.06886  0  4.031308  0  0  -0.081496  -0.075698  0  3.999104  0
S  S80  1  0.25006195  0.11123769  0.86759743  1  0  1.579115  0  5.784224  0  0  1.445083  0  6.330331  0  0  1.500632  0  6.295875  0  0  0.57243  1.406814  0  6.352804  0
S  S81  1  0.75004656  0.88876098  0.63239469  1  0  1.578689  0  5.785075  0  0  1.444681  0  6.331175  0  0  1.500237  0  6.296727  0  0  0.572255  1.406432  0  6.35361  0
S  S82  1  0.74993560  0.88876004  0.13239973  1  0  1.579124  0  5.78481  0  0  1.444946  0  6.330987  0  0  1.500487  0  6.296546  0  0  0.572407  1.406683  0  6.353458  0
S  S83  1  0.24995454  0.11124058  0.36760511  1  0  1.578657  0  5.784944  0  0  1.444649  0  6.331041  0  0  1.500212  0  6.296586  0  0  0.572226  1.406391  0  6.353505  0
N  N84  1  0.20250821  0.85524383  0.76879461  1  0  -0.519404  0  3.154665  0  0  -0.479935  0  3.415797  0  0  -0.493349  0  3.41259  0  0  -0.520061  -0.470433  0  3.418043  0
N  N85  1  0.70252844  0.14474924  0.73119830  1  0  -0.519451  0  3.154463  0  0  -0.479884  0  3.415426  0  0  -0.493285  0  3.412209  0  0  -0.520035  -0.470381  0  3.417683  0
N  N86  1  0.79748757  0.14475779  0.23120197  1  0  -0.519188  0  3.154517  0  0  -0.479712  0  3.415741  0  0  -0.493134  0  3.412548  0  0  -0.519916  -0.470172  0  3.417976  0
N  N87  1  0.29748506  0.85524536  0.26880022  1  0  -0.519363  0  3.154429  0  0  -0.479904  0  3.415566  0  0  -0.493298  0  3.412343  0  0  -0.519987  -0.470385  0  3.417804  0
N  N88  1  0.22509161  0.75753118  0.71296271  1  0  -0.258342  0  3.324038  0  0  -0.21405  0  3.576819  0  0  -0.231452  0  3.586409  0  0  -0.331824  -0.202397  0  3.570264  0
N  N89  1  0.72509019  0.24247122  0.78703390  1  0  -0.258243  0  3.323697  0  0  -0.213934  0  3.576547  0  0  -0.231338  0  3.586152  0  0  -0.331771  -0.202298  0  3.570015  0
N  N90  1  0.77492011  0.24246892  0.28703231  1  0  -0.258245  0  3.323965  0  0  -0.21395  0  3.57682  0  0  -0.231341  0  3.586405  0  0  -0.331799  -0.202393  0  3.570343  0
N  N91  1  0.27491799  0.75752799  0.21296739  1  0  -0.258363  0  3.323652  0  0  -0.213987  0  3.57655  0  0  -0.231396  0  3.586141  0  0  -0.331838  -0.202376  0  3.570026  0
O  O92  1  0.51625460  0.29575160  0.51960986  1  0  -0.534436  0  2.174832  0  0  -0.471992  0  2.384022  0  0  -0.492712  0  2.374506  0  0  -0.340056  -0.457236  0  2.390163  0
O  O93  1  0.01623722  0.70425220  0.98040198  1  0  -0.534327  0  2.174546  0  0  -0.47202  0  2.383704  0  0  -0.492737  0  2.374187  0  0  -0.340109  -0.45728  0  2.389869  0
O  O94  1  0.48373764  0.70424058  0.48039400  1  0  -0.534453  0  2.174695  0  0  -0.472073  0  2.383867  0  0  -0.492792  0  2.374342  0  0  -0.340034  -0.457322  0  2.390027  0
O  O95  1  0.98376033  0.29574854  0.01960089  1  0  -0.534436  0  2.174646  0  0  -0.472105  0  2.383696  0  0  -0.492809  0  2.374182  0  0  -0.340155  -0.457386  0  2.389879  0
O  O96  1  0.55708051  0.72652500  0.78638475  1  0  -0.580462  0  2.023015  0  0  -0.519523  0  2.274956  0  0  -0.543676  0  2.264211  0  0  -0.298901  -0.502894  0  2.281923  0
O  O97  1  0.05707528  0.27349148  0.71361922  1  0  -0.580529  0  2.022998  0  0  -0.519533  0  2.274788  0  0  -0.543692  0  2.264093  0  0  -0.298951  -0.502886  0  2.281748  0
O  O98  1  0.44292589  0.27348123  0.21361462  1  0  -0.580444  0  2.023151  0  0  -0.519558  0  2.275112  0  0  -0.543699  0  2.264369  0  0  -0.298895  -0.502927  0  2.282064  0
O  O99  1  0.94291873  0.72651316  0.28638243  1  0  -0.58042  0  2.023129  0  0  -0.519489  0  2.275009  0  0  -0.543644  0  2.264298  0  0  -0.298895  -0.50287  0  2.281967  0
O  O100  1  0.18455111  0.07663452  0.77452860  1  0  -0.733044  0  2.027289  0  0  -0.66955  0  2.307686  0  0  -0.692758  0  2.289933  0  0  -0.348508  -0.653227  0  2.319434  0
O  O101  1  0.68453164  0.92335856  0.72546041  1  0  -0.733173  0  2.027644  0  0  -0.669484  0  2.307803  0  0  -0.692687  0  2.290049  0  0  -0.348544  -0.653178  0  2.319571  0
O  O102  1  0.81545707  0.92336018  0.22546414  1  0  -0.733091  0  2.027526  0  0  -0.669409  0  2.307774  0  0  -0.692613  0  2.290028  0  0  -0.348442  -0.653108  0  2.319556  0
O  O103  1  0.31545706  0.07664537  0.27453725  1  0  -0.733077  0  2.027575  0  0  -0.669391  0  2.307743  0  0  -0.692595  0  2.289991  0  0  -0.348462  -0.653089  0  2.31952  0
O  O104  1  0.36374708  0.84873417  0.95991727  1  0  -0.862846  0  1.914307  0  0  -0.803222  0  2.139749  0  0  -0.822771  0  2.102208  0  0  -0.592808  -0.789442  0  2.165864  0
O  O105  1  0.86378195  0.15128018  0.54008829  1  0  -0.862661  0  1.914576  0  0  -0.802986  0  2.139832  0  0  -0.822541  0  2.102284  0  0  -0.592708  -0.789207  0  2.16595  0
O  O106  1  0.63624693  0.15126511  0.04008017  1  0  -0.862839  0  1.914329  0  0  -0.803256  0  2.139692  0  0  -0.822807  0  2.102148  0  0  -0.59281  -0.789473  0  2.165807  0
O  O107  1  0.13621915  0.84871823  0.45991414  1  0  -0.862585  0  1.914643  0  0  -0.802909  0  2.139868  0  0  -0.822462  0  2.102325  0  0  -0.592678  -0.789121  0  2.165979  0
O  O108  1  0.83881041  0.90886634  0.90224721  1  0  -0.822181  0  1.946268  0  0  -0.746717  0  2.159955  0  0  -0.769776  0  2.125543  0  0  -0.563508  -0.730501  0  2.183893  0
O  O109  1  0.33882732  0.09113249  0.59775286  1  0  -0.822329  0  1.946393  0  0  -0.746902  0  2.15996  0  0  -0.769962  0  2.125529  0  0  -0.563513  -0.730678  0  2.183905  0
O  O110  1  0.16118538  0.09113059  0.09775109  1  0  -0.822239  0  1.946239  0  0  -0.746772  0  2.159896  0  0  -0.769832  0  2.12548  0  0  -0.563515  -0.73055  0  2.183832  0
O  O111  1  0.66117377  0.90886446  0.40224479  1  0  -0.822276  0  1.946262  0  0  -0.746815  0  2.159875  0  0  -0.769875  0  2.125442  0  0  -0.563491  -0.730595  0  2.183813  0
O  O112  1  0.46980686  0.05207826  0.88460963  1  0  -0.774086  0  2.026689  0  0  -0.695698  0  2.294155  0  0  -0.720265  0  2.274209  0  0  -0.354571  -0.678482  0  2.307707  0
O  O113  1  0.96979383  0.94791714  0.61538883  1  0  -0.773895  0  2.026856  0  0  -0.695484  0  2.294279  0  0  -0.720052  0  2.274335  0  0  -0.354547  -0.678271  0  2.307824  0
O  O114  1  0.53019955  0.94791633  0.11538953  1  0  -0.77408  0  2.026876  0  0  -0.695625  0  2.294299  0  0  -0.720193  0  2.274367  0  0  -0.354613  -0.678397  0  2.307833  0
O  O115  1  0.03020373  0.05208047  0.38461539  1  0  -0.773976  0  2.026731  0  0  -0.69557  0  2.294181  0  0  -0.720142  0  2.274236  0  0  -0.354594  -0.678353  0  2.307728  0
O  O116  1  0.30404190  0.22401436  0.89135991  1  0  -0.723687  0  1.921933  0  0  -0.666511  0  2.168375  0  0  -0.687598  0  2.151438  0  0  -0.353232  -0.651725  0  2.179739  0
O  O117  1  0.80400621  0.77597986  0.60863087  1  0  -0.723611  0  1.921912  0  0  -0.666487  0  2.168394  0  0  -0.687584  0  2.151461  0  0  -0.35323  -0.651717  0  2.179754  0
O  O118  1  0.69595211  0.77598491  0.10863818  1  0  -0.723848  0  1.922073  0  0  -0.666532  0  2.168457  0  0  -0.687613  0  2.151517  0  0  -0.35324  -0.65175  0  2.179821  0
O  O119  1  0.19598072  0.22402244  0.39137163  1  0  -0.72366  0  1.921992  0  0  -0.666458  0  2.1684  0  0  -0.687553  0  2.151464  0  0  -0.35322  -0.651688  0  2.179766  0
O  O120  1  0.05495481  0.08878871  0.92603679  1  0  -0.74392  0  2.009155  0  0  -0.673343  0  2.249124  0  0  -0.696372  0  2.232373  0  0  -0.350086  -0.657251  0  2.260534  0
O  O121  1  0.55494007  0.91121243  0.57395534  1  0  -0.743576  0  2.009193  0  0  -0.673178  0  2.249265  0  0  -0.696225  0  2.232534  0  0  -0.349959  -0.657073  0  2.260646  0
O  O122  1  0.94502680  0.91120592  0.07395980  1  0  -0.743926  0  2.009371  0  0  -0.673343  0  2.249366  0  0  -0.696373  0  2.23262  0  0  -0.350122  -0.657246  0  2.260765  0
O  O123  1  0.44506280  0.08878913  0.42604446  1  0  -0.743549  0  2.009191  0  0  -0.673189  0  2.249318  0  0  -0.696237  0  2.232584  0  0  -0.349951  -0.657091  0  2.26071  0
