# generated using pymatgen
data_CuH16C8Br2(N4O)2
_symmetry_space_group_name_H-M   'P 1'
_cell_length_a   8.31178965
_cell_length_b   9.01584087
_cell_length_c   10.99952623
_cell_angle_alpha   106.63030457
_cell_angle_beta   89.99996067
_cell_angle_gamma   90.00000393
_symmetry_Int_Tables_number   1
_chemical_formula_structural   CuH16C8Br2(N4O)2
_chemical_formula_sum   'Cu2 H32 C16 Br4 N16 O4'
_cell_volume   789.80146711
_cell_formula_units_Z   2
loop_
 _symmetry_equiv_pos_site_id
 _symmetry_equiv_pos_as_xyz
  1  'x, y, z'
loop_
 _atom_site_type_symbol
 _atom_site_label
 _atom_site_symmetry_multiplicity
 _atom_site_fract_x
 _atom_site_fract_y
 _atom_site_fract_z
 _atom_site_occupancy
 _atom_site_hle17_ddec_charge
 _atom_site_hle17_ddec_spin_density
 _atom_site_hle17_ddec_sum_bond_order
 _atom_site_hle17_magmom
 _atom_site_hse06_10hf_ddec_charge
 _atom_site_hse06_10hf_ddec_spin_density
 _atom_site_hse06_10hf_ddec_sum_bond_order
 _atom_site_hse06_10hf_magmom
 _atom_site_hse06_ddec_charge
 _atom_site_hse06_ddec_spin_density
 _atom_site_hse06_ddec_sum_bond_order
 _atom_site_hse06_magmom
 _atom_site_pbe_cm5_charge
 _atom_site_pbe_ddec_charge
 _atom_site_pbe_ddec_spin_density
 _atom_site_pbe_ddec_sum_bond_order
 _atom_site_pbe_magmom
Cu  Cu0  1  0.00000120  0.00000002  0.00000182  1  0.652531  0.547856  1.952715  0.403  0.613522  0.666301  2.379441  0.526  0.704964  0.740264  2.305766  0.613  0.594271  0.566457  0.624358  2.42319  0.481
Cu  Cu1  1  0.50000064  0.49999923  0.00000067  1  0.652527  0.547838  1.952772  0.403  0.613581  0.666302  2.379484  0.526  0.704987  0.740253  2.305814  0.613  0.594292  0.566494  0.624354  2.423238  0.481
H  H2  1  0.62845065  0.84040396  0.18614274  1  0.12779  -0.000401  0.950817  0.0  0.130495  -0.000203  1.024435  0.0  0.135322  -0.000181  1.017767  0.0  0.141747  0.127351  -0.000194  1.028391  0.0
H  H3  1  0.87154509  0.34040469  0.18614368  1  0.127831  -0.000403  0.950826  0.0  0.130544  -0.000203  1.024395  0.0  0.13537  -0.000181  1.017731  0.0  0.141768  0.1274  -0.000194  1.028351  0.0
H  H4  1  0.37154779  0.15959726  0.81385721  1  0.127808  -0.000397  0.95083  0.0  0.130515  -0.000204  1.024433  0.0  0.135342  -0.000181  1.017766  0.0  0.141749  0.127372  -0.000194  1.028389  0.0
H  H5  1  0.12845335  0.65959537  0.81385509  1  0.127812  -0.0004  0.950805  0.0  0.130513  -0.000204  1.024429  0.0  0.135342  -0.000181  1.01776  0.0  0.141765  0.12737  -0.000194  1.028386  0.0
H  H6  1  0.58558979  0.13661824  0.24051345  1  0.09673  -0.000123  0.934456  0.0  0.109533  4.2e-05  1.00375  0.0  0.111728  2.3e-05  1.001913  0.0  0.111214  0.107985  4.7e-05  1.005016  0.0
H  H7  1  0.91440468  0.63661865  0.24051534  1  0.096738  -0.000114  0.934523  0.0  0.109534  4.1e-05  1.003784  0.0  0.111727  2.3e-05  1.001953  0.0  0.111204  0.107985  4.7e-05  1.00505  0.0
H  H8  1  0.41440985  0.86338182  0.75948532  1  0.096703  -0.000127  0.934447  0.0  0.109507  4.2e-05  1.003741  0.0  0.111702  2.3e-05  1.001903  0.0  0.111193  0.107959  4.7e-05  1.005007  0.0
H  H9  1  0.08559496  0.36338027  0.75948407  1  0.096788  -0.000116  0.934438  0.0  0.109564  4.1e-05  1.003726  0.0  0.111761  2.3e-05  1.001885  0.0  0.111204  0.108003  4.7e-05  1.005004  0.0
H  H10  1  0.43644145  0.20347282  0.15224447  1  0.09745  -0.000141  0.946087  0.0  0.106319  -6.5e-05  1.01905  0.0  0.106359  -6.6e-05  1.020162  0.0  0.111977  0.106189  4e-06  1.018061  0.0
H  H11  1  0.06355547  0.70347442  0.15224500  1  0.097482  -0.000139  0.946098  0.0  0.106339  -6.4e-05  1.019037  0.0  0.106379  -6.7e-05  1.02015  0.0  0.111977  0.106206  4e-06  1.018045  0.0
H  H12  1  0.56355940  0.79652726  0.84775612  1  0.097442  -0.000147  0.946071  0.0  0.106311  -6.4e-05  1.019021  0.0  0.106351  -6.7e-05  1.020133  0.0  0.111965  0.106181  4e-06  1.018031  0.0
H  H13  1  0.93644297  0.29652451  0.84775623  1  0.097471  -0.000134  0.94609  0.0  0.106323  -6.4e-05  1.019034  0.0  0.10636  -6.6e-05  1.020148  0.0  0.111969  0.106189  4e-06  1.018041  0.0
H  H14  1  0.22074656  0.16208180  0.29941893  1  0.054324  -0.000251  0.950193  0.0  0.063332  -0.000171  1.02328  0.0  0.06465  -0.000176  1.022153  0.0  0.087759  0.062233  -0.000197  1.02422  0.0
H  H15  1  0.27925023  0.66209148  0.29942211  1  0.054256  -0.000255  0.950162  0.0  0.063263  -0.00017  1.023263  0.0  0.06458  -0.000175  1.022137  0.0  0.087716  0.062165  -0.000197  1.024205  0.0
H  H16  1  0.77925669  0.83792060  0.70058310  1  0.054365  -0.00025  0.950137  0.0  0.063371  -0.00017  1.023235  0.0  0.064689  -0.000176  1.022107  0.0  0.087753  0.062264  -0.000197  1.024182  0.0
H  H17  1  0.72074821  0.33791554  0.70058007  1  0.054299  -0.000261  0.950148  0.0  0.063304  -0.00017  1.023258  0.0  0.064622  -0.000176  1.022131  0.0  0.087741  0.062204  -0.000197  1.024198  0.0
H  H18  1  0.37234926  0.29622326  0.37982494  1  0.059507  0.000215  0.922503  0.0  0.077261  0.000181  0.981308  0.0  0.07797  9e-05  0.980891  0.0  0.100422  0.076297  0.000204  0.982197  0.0
H  H19  1  0.12764265  0.79622602  0.37982662  1  0.059439  0.000213  0.922514  0.0  0.077176  0.000181  0.981339  0.0  0.077886  9.1e-05  0.98092  0.0  0.100374  0.076215  0.000204  0.982231  0.0
H  H20  1  0.62765399  0.70377912  0.62017526  1  0.059552  0.000218  0.922473  0.0  0.077261  0.000181  0.981328  0.0  0.077969  9e-05  0.980913  0.0  0.100413  0.076297  0.000204  0.982216  0.0
H  H21  1  0.87235097  0.20377522  0.62017515  1  0.05946  0.000213  0.922505  0.0  0.077218  0.000181  0.98132  0.0  0.077928  9e-05  0.980901  0.0  0.100396  0.076255  0.000204  0.982211  0.0
H  H22  1  0.15435764  0.08355064  0.48243719  1  0.063824  0.000518  0.954864  0.0  0.077452  0.000614  1.028234  0.0  0.079296  0.000442  1.026084  0.0  0.081736  0.076067  0.000699  1.029859  0.0
H  H23  1  0.34564138  0.58354987  0.48243522  1  0.063841  0.000512  0.954856  0.0  0.077466  0.000614  1.028225  0.0  0.079309  0.000442  1.026075  0.0  0.081745  0.076081  0.000699  1.029849  0.0
H  H24  1  0.84564200  0.91644593  0.51755895  1  0.063849  0.000512  0.95487  0.0  0.077486  0.000613  1.028227  0.0  0.07933  0.000442  1.026075  0.0  0.081738  0.076102  0.000699  1.029851  0.0
H  H25  1  0.65436067  0.41644556  0.51756249  1  0.063832  0.000514  0.954902  0.0  0.07748  0.000613  1.028248  0.0  0.079324  0.000442  1.026095  0.0  0.081738  0.076094  0.000699  1.029871  0.0
H  H26  1  0.31576809  0.01388536  0.56062273  1  0.089254  0.000862  0.959212  0.0  0.102905  0.000935  1.028705  0.0  0.104329  0.000725  1.027548  0.0  0.091351  0.101802  0.001107  1.029812  0.0
H  H27  1  0.18423206  0.51388346  0.56062149  1  0.089293  0.000858  0.959204  0.0  0.102949  0.000935  1.02868  0.0  0.104373  0.000725  1.027525  0.0  0.091379  0.101848  0.001107  1.029787  0.0
H  H28  1  0.68423275  0.98611124  0.43937615  1  0.089271  0.000857  0.959209  0.0  0.102909  0.000935  1.028709  0.0  0.104332  0.000726  1.027552  0.0  0.091366  0.101808  0.001107  1.029816  0.0
H  H29  1  0.81576879  0.48611197  0.43937621  1  0.089277  0.000855  0.959213  0.0  0.102894  0.000935  1.028727  0.0  0.104317  0.000725  1.027572  0.0  0.091367  0.101794  0.001107  1.029832  0.0
H  H30  1  0.29801259  0.21680241  0.57702737  1  0.06693  0.00064  0.969207  0.0  0.082959  0.000654  1.03991  0.0  0.084634  0.000471  1.038544  0.0  0.076326  0.081747  0.000796  1.04104  0.0
H  H31  1  0.20198876  0.71680169  0.57702911  1  0.066966  0.00064  0.969183  0.0  0.082992  0.000653  1.039882  0.0  0.084667  0.000471  1.038517  0.0  0.076333  0.081779  0.000795  1.041012  0.0
H  H32  1  0.70198465  0.78319652  0.42297387  1  0.066925  0.000632  0.969249  0.0  0.082961  0.000654  1.039948  0.0  0.084627  0.000471  1.038589  0.0  0.076322  0.081748  0.000796  1.041078  0.0
H  H33  1  0.79801448  0.28319492  0.42297159  1  0.066933  0.000633  0.969237  0.0  0.082966  0.000653  1.039939  0.0  0.084636  0.000471  1.038576  0.0  0.076325  0.081753  0.000796  1.04107  0.0
C  C34  1  0.51589609  0.84132801  0.13670146  1  0.181769  -0.004692  3.599976  -0.003  0.100759  -0.001232  3.868701  0.0  0.118125  -0.002434  3.875362  -0.001  0.186443  0.090825  -0.000338  3.862567  0.001
C  C35  1  0.98410210  0.34133220  0.13670405  1  0.181635  -0.00466  3.600013  -0.003  0.100695  -0.001232  3.868773  0.0  0.118058  -0.002433  3.875441  -0.001  0.186426  0.090762  -0.000338  3.862641  0.001
C  C36  1  0.48410355  0.15867322  0.86329849  1  0.181704  -0.00469  3.599928  -0.003  0.10069  -0.001231  3.86868  0.0  0.118056  -0.002432  3.875342  -0.001  0.186422  0.090755  -0.000338  3.862546  0.001
C  C37  1  0.01589514  0.65866902  0.86329499  1  0.181701  -0.004687  3.599971  -0.003  0.100722  -0.00123  3.868735  0.0  0.118088  -0.00243  3.8754  -0.001  0.186449  0.090786  -0.000338  3.862605  0.001
C  C38  1  0.45807214  0.12868759  0.21340929  1  -0.045641  0.000552  3.618863  0.001  -0.127037  0.000505  3.878369  0.001  -0.124188  0.000396  3.887618  0.0  -0.052366  -0.128483  0.000541  3.87133  0.001
C  C39  1  0.04192352  0.62868687  0.21340840  1  -0.045848  0.000523  3.61899  0.001  -0.127153  0.000507  3.878472  0.001  -0.124309  0.000397  3.887724  0.0  -0.052377  -0.128584  0.000541  3.871421  0.001
C  C40  1  0.54192750  0.87131132  0.78659012  1  -0.04559  0.000566  3.618823  0.001  -0.126959  0.000505  3.878343  0.001  -0.124108  0.000397  3.887588  0.0  -0.052316  -0.128405  0.000541  3.8713  0.001
C  C41  1  0.95807492  0.37130973  0.78659049  1  -0.045839  0.000516  3.61893  0.001  -0.1271  0.000507  3.878351  0.001  -0.124251  0.000398  3.887601  0.0  -0.052349  -0.128526  0.000541  3.871303  0.001
C  C42  1  0.34866966  0.17363529  0.32854680  1  0.06652  -1.7e-05  3.657143  0.0  0.012472  0.000208  3.922551  0.0  0.017733  0.000115  3.929664  0.0  -0.072344  0.008883  0.000134  3.918177  0.0
C  C43  1  0.15132469  0.67363918  0.32854690  1  0.066749  1e-05  3.656977  0.0  0.012746  0.000206  3.922245  0.0  0.018  0.000115  3.929362  0.0  -0.072243  0.009144  0.000134  3.917887  0.0
C  C44  1  0.65133239  0.82636595  0.67145406  1  0.066492  -2.3e-05  3.657097  0.0  0.012466  0.000206  3.92252  0.0  0.017726  0.000115  3.929631  0.0  -0.072319  0.008878  0.000134  3.918153  0.0
C  C45  1  0.84867374  0.32636205  0.67145395  1  0.066678  2.3e-05  3.65694  0.0  0.012625  0.000206  3.922307  0.0  0.017884  0.000115  3.929424  0.0  -0.072273  0.009036  0.000134  3.91793  0.0
C  C46  1  0.28176461  0.09932308  0.51181173  1  -0.084536  0.001675  3.688324  0.001  -0.172981  0.002069  3.949692  0.002  -0.167721  0.001494  3.953117  0.001  -0.157309  -0.176049  0.002587  3.947238  0.002
C  C47  1  0.21823439  0.59932350  0.51181100  1  -0.08461  0.00169  3.688362  0.001  -0.173062  0.00207  3.949739  0.002  -0.167807  0.001494  3.953162  0.001  -0.157331  -0.176131  0.002587  3.947284  0.002
C  C48  1  0.71823503  0.90067583  0.48818768  1  -0.084575  0.001702  3.688415  0.001  -0.173006  0.002069  3.949791  0.002  -0.167738  0.001494  3.953222  0.001  -0.157326  -0.176075  0.002587  3.947337  0.002
C  C49  1  0.78176646  0.40067309  0.48818697  1  -0.084556  0.001703  3.688412  0.001  -0.17298  0.002069  3.949784  0.002  -0.167715  0.001494  3.953214  0.001  -0.157309  -0.176047  0.002587  3.947329  0.002
Br  Br50  1  0.08625910  0.98215008  0.77933005  1  -0.476305  0.172627  0.911406  0.175  -0.482048  0.117992  1.213986  0.124  -0.518146  0.091764  1.192956  0.104  -0.253668  -0.462703  0.132965  1.228607  0.133
Br  Br51  1  0.41374450  0.48214387  0.77933029  1  -0.476299  0.172633  0.91143  0.175  -0.482059  0.117993  1.21402  0.124  -0.518148  0.091723  1.192987  0.104  -0.253669  -0.462709  0.132968  1.228638  0.133
Br  Br52  1  0.91374415  0.01785577  0.22067004  1  -0.4763  0.172624  0.911453  0.175  -0.482044  0.117991  1.214046  0.124  -0.518142  0.091719  1.193013  0.104  -0.253664  -0.462701  0.132962  1.228668  0.133
Br  Br53  1  0.58625514  0.51785738  0.22067148  1  -0.476295  0.172631  0.91143  0.175  -0.48205  0.117994  1.213991  0.124  -0.518138  0.09172  1.192954  0.104  -0.253674  -0.462701  0.132965  1.228612  0.133
N  N54  1  0.43056790  0.96813746  0.13937823  1  0.05085  0.001806  3.496902  0.002  0.174997  0.00114  3.679433  0.001  0.166564  0.00109  3.697478  0.001  -0.112075  0.179952  0.001193  3.667642  0.001
N  N55  1  0.06943146  0.46813938  0.13937870  1  0.051153  0.001802  3.496601  0.002  0.175065  0.001139  3.679354  0.001  0.166645  0.001091  3.697377  0.001  -0.112033  0.180018  0.001193  3.667561  0.001
N  N56  1  0.56943174  0.03186377  0.86062171  1  0.050855  0.001799  3.496889  0.002  0.174957  0.00114  3.679459  0.001  0.166521  0.00109  3.697511  0.001  -0.11209  0.179912  0.001193  3.667665  0.001
N  N57  1  0.93056818  0.53186068  0.86062006  1  0.051024  0.001805  3.496578  0.002  0.175003  0.001139  3.679246  0.001  0.166568  0.001091  3.697296  0.001  -0.112082  0.179957  0.001193  3.66745  0.001
N  N58  1  0.29943492  0.92543231  0.06383858  1  -0.09911  0.001466  2.904359  0.003  -0.117482  0.00102  3.204217  0.003  -0.121039  -0.000152  3.214506  0.002  -0.069303  -0.115491  0.002184  3.198546  0.004
N  N59  1  0.20056570  0.42543537  0.06383924  1  -0.099242  0.001464  2.904144  0.003  -0.117548  0.00102  3.204048  0.003  -0.121104  -0.000152  3.214332  0.002  -0.06932  -0.115554  0.002184  3.198376  0.004
N  N60  1  0.70056472  0.07456777  0.93616201  1  -0.099087  0.00148  2.904263  0.003  -0.117439  0.00102  3.204121  0.003  -0.120996  -0.000152  3.214411  0.002  -0.069278  -0.115447  0.002184  3.198447  0.004
N  N61  1  0.79943514  0.57456587  0.93616252  1  -0.099113  0.001467  2.904051  0.003  -0.117433  0.001018  3.203932  0.003  -0.120985  -0.000153  3.214217  0.002  -0.069277  -0.11544  0.002184  3.198258  0.004
N  N62  1  0.30662112  0.77672538  0.01558969  1  -0.04108  -0.003077  2.977072  -0.003  -0.034438  -0.001097  3.289786  -0.001  -0.03088  -0.001867  3.304755  -0.002  -0.069113  -0.036583  -0.000616  3.281236  -0.001
N  N63  1  0.19337833  0.27672845  0.01559126  1  -0.041058  -0.003066  2.976998  -0.003  -0.03441  -0.001097  3.289676  -0.001  -0.03085  -0.001866  3.304645  -0.002  -0.069126  -0.036556  -0.000616  3.281128  -0.001
N  N64  1  0.69337852  0.22327470  0.98441181  1  -0.041122  -0.003074  2.977053  -0.003  -0.034504  -0.001098  3.289769  -0.001  -0.030944  -0.001869  3.304738  -0.002  -0.069159  -0.03665  -0.000615  3.281218  -0.001
N  N65  1  0.80662251  0.72327279  0.98441050  1  -0.041272  -0.00307  2.977154  -0.003  -0.034639  -0.001098  3.289858  -0.001  -0.031079  -0.001868  3.304828  -0.002  -0.069224  -0.036786  -0.000615  3.281308  -0.001
N  N66  1  0.43991249  0.72110363  0.05878364  1  -0.259348  0.052913  3.319838  0.069  -0.210463  0.043239  3.645021  0.058  -0.240562  0.037793  3.664216  0.054  -0.257288  -0.193386  0.045675  3.633777  0.059
N  N67  1  0.06008692  0.22110788  0.05878647  1  -0.259315  0.052893  3.319798  0.069  -0.210425  0.043242  3.644937  0.058  -0.240533  0.037793  3.664149  0.054  -0.25727  -0.193354  0.045677  3.633702  0.059
N  N68  1  0.56008836  0.27889645  0.94121694  1  -0.259305  0.052898  3.31978  0.069  -0.210385  0.043241  3.644921  0.058  -0.240483  0.037794  3.664116  0.054  -0.257255  -0.193308  0.045675  3.633675  0.059
N  N69  1  0.93991272  0.77889335  0.94121347  1  -0.259182  0.052905  3.319756  0.069  -0.21027  0.043242  3.644869  0.058  -0.240376  0.037792  3.664079  0.054  -0.257202  -0.193198  0.045675  3.63363  0.059
O  O70  1  0.38503122  0.07408796  0.40413279  1  -0.275209  0.001492  2.264506  0.002  -0.200816  0.001018  2.511781  0.002  -0.216671  0.000373  2.514692  0.001  -0.24265  -0.189878  0.001029  2.50952  0.002
O  O71  1  0.11496546  0.57409186  0.40413292  1  -0.275285  0.001488  2.264581  0.002  -0.200903  0.001017  2.511854  0.002  -0.216746  0.000372  2.514757  0.001  -0.242695  -0.189964  0.001029  2.509598  0.002
O  O72  1  0.61497082  0.92591443  0.59586832  1  -0.275237  0.001491  2.264513  0.002  -0.200858  0.001018  2.511793  0.002  -0.216708  0.000373  2.514699  0.001  -0.242654  -0.189921  0.001029  2.50953  0.002
O  O73  1  0.88503538  0.42590820  0.59586585  1  -0.275273  0.001485  2.264452  0.002  -0.200908  0.001018  2.511747  0.002  -0.216761  0.000373  2.514654  0.001  -0.242704  -0.189973  0.00103  2.509487  0.002
