# generated using pymatgen
data_CaPH10C3NO7
_symmetry_space_group_name_H-M   'P 1'
_cell_length_a   5.40251157
_cell_length_b   7.90794498
_cell_length_c   10.22055246
_cell_angle_alpha   74.38251664
_cell_angle_beta   79.88710185
_cell_angle_gamma   83.28017957
_symmetry_Int_Tables_number   1
_chemical_formula_structural   CaPH10C3NO7
_chemical_formula_sum   'Ca2 P2 H20 C6 N2 O14'
_cell_volume   412.87424949
_cell_formula_units_Z   2
loop_
 _symmetry_equiv_pos_site_id
 _symmetry_equiv_pos_as_xyz
  1  'x, y, z'
loop_
 _atom_site_type_symbol
 _atom_site_label
 _atom_site_symmetry_multiplicity
 _atom_site_fract_x
 _atom_site_fract_y
 _atom_site_fract_z
 _atom_site_occupancy
 _atom_site_hle17_bader_spin_density
 _atom_site_hle17_ddec_charge
 _atom_site_hle17_ddec_spin_density
 _atom_site_hle17_ddec_sum_bond_order
 _atom_site_hle17_magmom
 _atom_site_hse06_10hf_bader_spin_density
 _atom_site_hse06_10hf_ddec_charge
 _atom_site_hse06_10hf_ddec_spin_density
 _atom_site_hse06_10hf_ddec_sum_bond_order
 _atom_site_hse06_10hf_magmom
 _atom_site_hse06_bader_spin_density
 _atom_site_hse06_ddec_charge
 _atom_site_hse06_ddec_spin_density
 _atom_site_hse06_ddec_sum_bond_order
 _atom_site_hse06_magmom
 _atom_site_pbe_bader_spin_density
 _atom_site_pbe_cm5_charge
 _atom_site_pbe_ddec_charge
 _atom_site_pbe_ddec_spin_density
 _atom_site_pbe_ddec_sum_bond_order
 _atom_site_pbe_magmom
Ca  Ca0  1  0.15038885  0.70853667  0.87423255  1  0  1.577945  0  1.080574  0  0  1.452947  0  1.425089  0  0  1.492282  0  1.382759  0  0  0.903138  1.423099  0  1.455378  0
Ca  Ca1  1  0.84960644  0.29146248  0.12577018  1  0  1.577973  0  1.080528  0  0  1.452981  0  1.42501  0  0  1.492315  0  1.382677  0  0  0.903121  1.42313  0  1.455293  0
P  P2  1  0.68903123  0.41482803  0.83914957  1  0  1.472363  0  4.966995  0  0  1.311268  0  5.473745  0  0  1.360629  0  5.43668  0  0  0.320205  1.276858  0  5.498381  0
P  P3  1  0.31097112  0.58517507  0.16084969  1  0  1.472417  0  4.966999  0  0  1.311293  0  5.473731  0  0  1.360647  0  5.436665  0  0  0.320188  1.276878  0  5.49837  0
H  H4  1  0.82677187  0.30620907  0.63394679  1  0  0.11813  0  0.964598  0  0  0.125817  0  1.032789  0  0  0.128128  0  1.031896  0  0  0.114527  0.124034  0  1.03371  0
H  H5  1  0.17323227  0.69379534  0.36605398  1  0  0.118107  0  0.964595  0  0  0.125803  0  1.032766  0  0  0.128111  0  1.031873  0  0  0.11452  0.124021  0  1.033686  0
H  H6  1  0.94573012  0.51557248  0.62035213  1  0  0.129128  0  0.959677  0  0  0.140246  0  1.021868  0  0  0.142714  0  1.020726  0  0  0.119656  0.138387  0  1.022872  0
H  H7  1  0.05427219  0.48443193  0.37965077  1  0  0.129159  0  0.959686  0  0  0.140248  0  1.021885  0  0  0.142707  0  1.020743  0  0  0.119647  0.138388  0  1.022887  0
H  H8  1  0.25677501  0.37696428  0.75673645  1  0  0.305818  0  0.902005  0  0  0.286124  0  0.962994  0  0  0.294939  0  0.957242  0  0  0.315608  0.279902  0  0.967046  0
H  H9  1  0.74322982  0.62303225  0.24326000  1  0  0.305773  0  0.902073  0  0  0.286078  0  0.963091  0  0  0.294892  0  0.957342  0  0  0.315602  0.279856  0  0.967142  0
H  H10  1  0.12763867  0.18148532  0.80521748  1  0  0.295629  0  0.856628  0  0  0.277099  0  0.917587  0  0  0.285744  0  0.91059  0  0  0.328648  0.270845  0  0.922747  0
H  H11  1  0.87236950  0.81851517  0.19477782  1  0  0.295513  0  0.856665  0  0  0.277154  0  0.91745  0  0  0.285795  0  0.910454  0  0  0.328688  0.270899  0  0.922611  0
H  H12  1  0.43565740  0.34467683  0.54875274  1  0  0.105488  0  0.915873  0  0  0.12052  0  0.973001  0  0  0.122813  0  0.971466  0  0  0.119501  0.118734  0  0.974485  0
H  H13  1  0.56433413  0.65531974  0.45123915  1  0  0.105557  0  0.915977  0  0  0.120545  0  0.973114  0  0  0.122834  0  0.97158  0  0  0.119529  0.118761  0  0.974597  0
H  H14  1  0.20149767  0.21056545  0.53882036  1  0  0.117452  0  0.937995  0  0  0.130498  0  1.000068  0  0  0.13345  0  0.997973  0  0  0.125724  0.128319  0  1.001771  0
H  H15  1  0.79849216  0.78943109  0.46117954  1  0  0.117508  0  0.938036  0  0  0.130521  0  1.000098  0  0  0.13347  0  0.998003  0  0  0.125733  0.128344  0  1.001802  0
H  H16  1  0.64405039  0.83383770  0.99462986  1  0  0.44024  0  0.858934  0  0  0.407909  0  0.924863  0  0  0.418817  0  0.909008  0  0  0.303398  0.40019  0  0.936059  0
H  H17  1  0.35595067  0.16616012  0.00537257  1  0  0.440303  0  0.858868  0  0  0.407941  0  0.924841  0  0  0.418849  0  0.908986  0  0  0.30341  0.400222  0  0.936038  0
H  H18  1  0.77425320  0.01173453  0.95263241  1  0  0.439839  0  0.857078  0  0  0.408981  0  0.920753  0  0  0.419472  0  0.905364  0  0  0.3017  0.401532  0  0.931688  0
H  H19  1  0.22575325  0.98826593  0.04736993  1  0  0.439767  0  0.857146  0  0  0.408907  0  0.920831  0  0  0.419399  0  0.90544  0  0  0.301673  0.401458  0  0.931767  0
H  H20  1  0.16437867  0.83399489  0.56587960  1  0  0.414868  0  0.8922  0  0  0.382716  0  0.958934  0  0  0.393685  0  0.942973  0  0  0.289902  0.374919  0  0.970279  0
H  H21  1  0.83562406  0.16600556  0.43412506  1  0  0.414991  0  0.892061  0  0  0.382835  0  0.958788  0  0  0.393804  0  0.942829  0  0  0.289965  0.375037  0  0.970135  0
H  H22  1  0.89078293  0.86974713  0.63867918  1  0  0.418839  0  0.888673  0  0  0.386662  0  0.954827  0  0  0.398684  0  0.93718  0  0  0.292576  0.378169  0  0.967265  0
H  H23  1  0.10921605  0.13025332  0.36132585  1  0  0.418839  0  0.888672  0  0  0.386662  0  0.954829  0  0  0.398685  0  0.937181  0  0  0.292563  0.378169  0  0.967266  0
C  C24  1  0.90787887  0.38450054  0.68742941  1  0  -0.309581  0  3.542229  0  0  -0.350661  0  3.798501  0  0  -0.354001  0  3.802561  0  0  -0.0752  -0.348257  0  3.795974  0
C  C25  1  0.09212577  0.61549861  0.31257044  1  0  -0.309756  0  3.542279  0  0  -0.350752  0  3.798474  0  0  -0.354074  0  3.802514  0  0  -0.075212  -0.348345  0  3.795946  0
C  C26  1  0.31872911  0.23729229  0.60757819  1  0  -0.135682  0  3.52336  0  0  -0.195719  0  3.774987  0  0  -0.196213  0  3.778985  0  0  -0.059493  -0.195509  0  3.772604  0
C  C27  1  0.68126042  0.76270688  0.39242021  1  0  -0.135865  0  3.523496  0  0  -0.195778  0  3.775066  0  0  -0.196256  0  3.779041  0  0  -0.059505  -0.19557  0  3.772688  0
C  C28  1  0.47577249  0.06640178  0.66069059  1  0  0.704995  0  3.884946  0  0  0.652153  0  4.195789  0  0  0.686024  0  4.187016  0  0  0.22658  0.629205  0  4.200966  0
C  C29  1  0.52422264  0.93359869  0.33931090  1  0  0.705108  0  3.885069  0  0  0.65222  0  4.195939  0  0  0.686087  0  4.187163  0  0  0.226597  0.629273  0  4.201117  0
N  N30  1  0.15292794  0.29267604  0.72345149  1  0  -0.219013  0  3.363652  0  0  -0.153025  0  3.571589  0  0  -0.166121  0  3.580694  0  0  -0.464889  -0.143985  0  3.565484  0
N  N31  1  0.84707457  0.70732445  0.27654340  1  0  -0.218699  0  3.363257  0  0  -0.152917  0  3.57116  0  0  -0.166014  0  3.580255  0  0  -0.464914  -0.143879  0  3.565055  0
O  O32  1  0.44853194  0.50580425  0.78249939  1  0  -0.881048  0  1.905453  0  0  -0.79818  0  2.159236  0  0  -0.825143  0  2.141149  0  0  -0.412415  -0.778784  0  2.171224  0
O  O33  1  0.55146782  0.49418702  0.21749963  1  0  -0.881073  0  1.905465  0  0  -0.798177  0  2.159223  0  0  -0.825132  0  2.141131  0  0  -0.41242  -0.778779  0  2.17121  0
O  O34  1  0.65304236  0.23050532  0.93716063  1  0  -0.922172  0  1.980447  0  0  -0.831056  0  2.223016  0  0  -0.858278  0  2.204204  0  0  -0.391823  -0.811502  0  2.235339  0
O  O35  1  0.34695447  0.76949648  0.06283847  1  0  -0.92216  0  1.980479  0  0  -0.831061  0  2.223075  0  0  -0.858285  0  2.204267  0  0  -0.391833  -0.811517  0  2.235425  0
O  O36  1  0.81898720  0.52201292  0.90820599  1  0  -0.952004  0  1.941416  0  0  -0.86544  0  2.21187  0  0  -0.894176  0  2.193957  0  0  -0.443527  -0.844377  0  2.223431  0
O  O37  1  0.18100955  0.47799018  0.09179578  1  0  -0.952001  0  1.941422  0  0  -0.865425  0  2.21186  0  0  -0.894169  0  2.193962  0  0  -0.443504  -0.844363  0  2.223423  0
O  O38  1  0.37585234  0.95981681  0.76622639  1  0  -0.678876  0  1.986509  0  0  -0.623916  0  2.235461  0  0  -0.649385  0  2.223893  0  0  -0.35448  -0.605945  0  2.242893  0
O  O39  1  0.62413747  0.04017973  0.23377253  1  0  -0.678898  0  1.986555  0  0  -0.623941  0  2.235527  0  0  -0.649411  0  2.223957  0  0  -0.354454  -0.605968  0  2.242955  0
O  O40  1  0.69089725  0.04517331  0.59105537  1  0  -0.652813  0  2.017903  0  0  -0.584763  0  2.23548  0  0  -0.611891  0  2.224671  0  0  -0.303499  -0.565827  0  2.242514  0
O  O41  1  0.30909385  0.95482851  0.40894038  1  0  -0.652836  0  2.017897  0  0  -0.584788  0  2.23552  0  0  -0.611919  0  2.224714  0  0  -0.303534  -0.565859  0  2.242564  0
O  O42  1  0.81349909  0.88251109  0.96987888  1  0  -0.901357  0  1.77431  0  0  -0.845618  0  1.965938  0  0  -0.866168  0  1.933446  0  0  -0.62667  -0.830876  0  1.988574  0
O  O43  1  0.18650344  0.11749068  0.03012259  1  0  -0.901363  0  1.774312  0  0  -0.845579  0  1.965945  0  0  -0.866132  0  1.933459  0  0  -0.626651  -0.830836  0  1.988578  0
O  O44  1  0.03943929  0.78080950  0.64575790  1  0  -0.888215  0  1.82343  0  0  -0.834605  0  2.010327  0  0  -0.856045  0  1.977811  0  0  -0.629161  -0.819164  0  2.03308  0
O  O45  1  0.96056145  0.21919226  0.35424766  1  0  -0.888334  0  1.823308  0  0  -0.834727  0  2.01024  0  0  -0.856162  0  1.977721  0  0  -0.629213  -0.819288  0  2.032995  0
