# generated using pymatgen
data_Ag2H20C18N6O5
_symmetry_space_group_name_H-M   'P 1'
_cell_length_a   8.91236305
_cell_length_b   11.24873507
_cell_length_c   12.18950375
_cell_angle_alpha   112.34478207
_cell_angle_beta   97.93726766
_cell_angle_gamma   109.59388522
_symmetry_Int_Tables_number   1
_chemical_formula_structural   Ag2H20C18N6O5
_chemical_formula_sum   'Ag4 H40 C36 N12 O10'
_cell_volume   1014.15708831
_cell_formula_units_Z   2
loop_
 _symmetry_equiv_pos_site_id
 _symmetry_equiv_pos_as_xyz
  1  'x, y, z'
loop_
 _atom_site_type_symbol
 _atom_site_label
 _atom_site_symmetry_multiplicity
 _atom_site_fract_x
 _atom_site_fract_y
 _atom_site_fract_z
 _atom_site_occupancy
 _atom_site_hle17_bader_spin_density
 _atom_site_hle17_ddec_charge
 _atom_site_hle17_ddec_spin_density
 _atom_site_hle17_ddec_sum_bond_order
 _atom_site_hle17_magmom
 _atom_site_hse06_10hf_bader_spin_density
 _atom_site_hse06_10hf_ddec_charge
 _atom_site_hse06_10hf_ddec_spin_density
 _atom_site_hse06_10hf_ddec_sum_bond_order
 _atom_site_hse06_10hf_magmom
 _atom_site_hse06_bader_spin_density
 _atom_site_hse06_ddec_charge
 _atom_site_hse06_ddec_spin_density
 _atom_site_hse06_ddec_sum_bond_order
 _atom_site_hse06_magmom
 _atom_site_pbe_bader_spin_density
 _atom_site_pbe_cm5_charge
 _atom_site_pbe_ddec_charge
 _atom_site_pbe_ddec_spin_density
 _atom_site_pbe_ddec_sum_bond_order
 _atom_site_pbe_magmom
Ag  Ag0  1  0.96745319  0.65113479  0.27584304  1  0  0.583073  0  1.33806  0  0  0.452859  0  1.75295  0  0  0.483723  0  1.705878  0  0  0.460775  0.431155  0  1.786115  0
Ag  Ag1  1  0.03254857  0.34886495  0.72415826  1  0  0.583072  0  1.338038  0  0  0.452851  0  1.752928  0  0  0.483717  0  1.705857  0  0  0.46075  0.431149  0  1.786094  0
Ag  Ag2  1  0.33663130  0.20847867  0.80957169  1  0  0.561807  0  1.37037  0  0  0.427897  0  1.798091  0  0  0.457987  0  1.75366  0  0  0.46114  0.407224  0  1.828844  0
Ag  Ag3  1  0.66337279  0.79151894  0.19042994  1  0  0.561794  0  1.370362  0  0  0.427864  0  1.798112  0  0  0.457953  0  1.753682  0  0  0.461126  0.40719  0  1.828863  0
H  H4  1  0.31906542  0.69450533  0.37662924  1  0  0.07668  0  0.974618  0  0  0.088586  0  1.036171  0  0  0.090091  0  1.034006  0  0  0.118484  0.087431  0  1.037638  0
H  H5  1  0.68093635  0.30549440  0.62337124  1  0  0.076661  0  0.974624  0  0  0.088559  0  1.036206  0  0  0.090067  0  1.034024  0  0  0.118485  0.087404  0  1.037671  0
H  H6  1  0.58560231  0.86255194  0.55266987  1  0  0.128696  0  0.95451  0  0  0.140213  0  1.009956  0  0  0.143518  0  1.010541  0  0  0.107216  0.137787  0  1.009881  0
H  H7  1  0.41439873  0.13745311  0.44733238  1  0  0.128724  0  0.954482  0  0  0.14025  0  1.009921  0  0  0.143554  0  1.010506  0  0  0.107219  0.137824  0  1.009846  0
H  H8  1  0.63536733  0.20402856  0.77368664  1  0  0.133324  0  0.946641  0  0  0.150659  0  1.016004  0  0  0.153766  0  1.012904  0  0  0.098561  0.148312  0  1.018355  0
H  H9  1  0.36463105  0.79597118  0.22631185  1  0  0.133351  0  0.946618  0  0  0.150683  0  1.015986  0  0  0.15379  0  1.012885  0  0  0.098576  0.148335  0  1.018337  0
H  H10  1  0.72851184  0.08185677  0.73945224  1  0  0.132443  0  0.962889  0  0  0.150919  0  1.022325  0  0  0.153053  0  1.021811  0  0  0.094868  0.149352  0  1.022757  0
H  H11  1  0.27148707  0.91814403  0.26054749  1  0  0.132429  0  0.962892  0  0  0.150902  0  1.022338  0  0  0.153036  0  1.021824  0  0  0.094859  0.149335  0  1.022769  0
H  H12  1  0.60939137  0.09346091  0.84678236  1  0  0.123913  0  0.93762  0  0  0.147471  0  0.994382  0  0  0.149117  0  0.994296  0  0  0.097606  0.146327  0  0.994414  0
H  H13  1  0.39061033  0.90654095  0.15321885  1  0  0.123915  0  0.937628  0  0  0.147476  0  0.99438  0  0  0.149122  0  0.994295  0  0  0.097615  0.146331  0  0.994413  0
H  H14  1  0.33334115  0.10032378  0.01509026  1  0  0.066784  0  0.955215  0  0  0.077289  0  1.020952  0  0  0.07833  0  1.019619  0  0  0.111211  0.076347  0  1.022176  0
H  H15  1  0.66666572  0.89967488  0.98491285  1  0  0.066775  0  0.955181  0  0  0.077294  0  1.020915  0  0  0.078323  0  1.019602  0  0  0.111199  0.07635  0  1.02214  0
H  H16  1  0.53068574  0.15124875  0.21268446  1  0  0.116123  0  0.985009  0  0  0.128912  0  1.043046  0  0  0.131222  0  1.045098  0  0  0.101505  0.12723  0  1.041914  0
H  H17  1  0.46931882  0.84875203  0.78731668  1  0  0.116099  0  0.985052  0  0  0.128896  0  1.043083  0  0  0.131206  0  1.045133  0  0  0.101497  0.127214  0  1.04195  0
H  H18  1  0.93950246  0.48676165  0.37456084  1  0  0.117894  0  0.974866  0  0  0.133399  0  1.048433  0  0  0.136595  0  1.045006  0  0  0.089753  0.131028  0  1.050904  0
H  H19  1  0.06049864  0.51324127  0.62544068  1  0  0.117932  0  0.974832  0  0  0.133443  0  1.048395  0  0  0.136639  0  1.044969  0  0  0.089782  0.131072  0  1.050865  0
H  H20  1  0.87494849  0.30332966  0.33360908  1  0  0.129817  0  0.925586  0  0  0.15598  0  0.974434  0  0  0.157428  0  0.974682  0  0  0.100949  0.154866  0  0.974365  0
H  H21  1  0.12505315  0.69667432  0.66639286  1  0  0.12986  0  0.925609  0  0  0.156028  0  0.974442  0  0  0.157472  0  0.974695  0  0  0.100957  0.154918  0  0.974368  0
H  H22  1  0.77111577  0.39669535  0.41961808  1  0  0.12633  0  0.944619  0  0  0.147675  0  1.003986  0  0  0.148591  0  1.005868  0  0  0.097969  0.146986  0  1.002749  0
H  H23  1  0.22888532  0.60330758  0.58038508  1  0  0.126384  0  0.944662  0  0  0.147713  0  1.004034  0  0  0.148632  0  1.005912  0  0  0.097977  0.147024  0  1.002798  0
H  H24  1  0.99067305  0.07805963  0.21782403  1  0  0.091159  0  0.978779  0  0  0.097826  0  1.048021  0  0  0.101585  0  1.045598  0  0  0.098402  0.09508  0  1.049862  0
H  H25  1  0.00932359  0.92194118  0.78217629  1  0  0.091226  0  0.978732  0  0  0.097863  0  1.047997  0  0  0.101603  0  1.045594  0  0  0.098427  0.095117  0  1.049836  0
H  H26  1  0.99906898  0.23501946  0.11783888  1  0  0.105344  0  0.973289  0  0  0.114814  0  1.034482  0  0  0.118648  0  1.031987  0  0  0.103816  0.111846  0  1.03656  0
H  H27  1  0.00092699  0.76498455  0.88216329  1  0  0.105321  0  0.973265  0  0  0.114805  0  1.034435  0  0  0.118623  0  1.031962  0  0  0.103814  0.111844  0  1.036503  0
H  H28  1  0.69525504  0.60500154  0.71212779  1  0  0.097516  0  0.971626  0  0  0.106302  0  1.035394  0  0  0.109523  0  1.033838  0  0  0.101975  0.103895  0  1.036665  0
H  H29  1  0.30474460  0.39499395  0.28787100  1  0  0.097564  0  0.971594  0  0  0.106295  0  1.03541  0  0  0.109517  0  1.033856  0  0  0.101963  0.10389  0  1.036681  0
H  H30  1  0.76501810  0.71505887  0.57302223  1  0  0.092419  0  0.968817  0  0  0.102218  0  1.031694  0  0  0.105634  0  1.029719  0  0  0.099776  0.099706  0  1.033233  0
H  H31  1  0.23498254  0.28494086  0.42697567  1  0  0.092444  0  0.968851  0  0  0.102244  0  1.031718  0  0  0.105659  0  1.029744  0  0  0.099781  0.099732  0  1.033258  0
H  H32  1  0.92631591  0.84118763  0.49226515  1  0  0.349016  0  0.918867  0  0  0.327491  0  0.988769  0  0  0.336469  0  0.980183  0  0  0.297198  0.321164  0  0.994771  0
H  H33  1  0.07368419  0.15881105  0.50773480  1  0  0.349027  0  0.918839  0  0  0.327506  0  0.988738  0  0  0.336483  0  0.980154  0  0  0.297204  0.321179  0  0.99474  0
H  H34  1  0.03288272  0.99414268  0.63830686  1  0  0.347566  0  0.914772  0  0  0.328124  0  0.979409  0  0  0.336583  0  0.971758  0  0  0.29841  0.322175  0  0.984759  0
H  H35  1  0.96711738  0.00585599  0.36169308  1  0  0.347554  0  0.914772  0  0  0.328118  0  0.979405  0  0  0.336577  0  0.971756  0  0  0.298408  0.322169  0  0.984755  0
H  H36  1  0.60013170  0.45501257  0.92634330  1  0  0.339962  0  0.932435  0  0  0.319507  0  0.999432  0  0  0.327909  0  0.991965  0  0  0.295836  0.313468  0  1.004901  0
H  H37  1  0.39986619  0.54498399  0.07365650  1  0  0.339958  0  0.932449  0  0  0.319503  0  0.999452  0  0  0.327905  0  0.991985  0  0  0.295854  0.313465  0  1.004921  0
H  H38  1  0.79402869  0.56129739  0.04372257  1  0  0.328498  0  0.943632  0  0  0.306884  0  1.014515  0  0  0.31548  0  1.0066  0  0  0.293125  0.300719  0  1.020281  0
H  H39  1  0.20597195  0.43870234  0.95627697  1  0  0.328492  0  0.943652  0  0  0.306879  0  1.014536  0  0  0.315475  0  1.00662  0  0  0.293131  0.300715  0  1.020301  0
H  H40  1  0.24136661  0.51841129  0.20826976  1  0  0.401246  0  0.913178  0  0  0.373478  0  0.974243  0  0  0.383601  0  0.959314  0  0  0.27609  0.366424  0  0.984603  0
H  H41  1  0.75862956  0.48158633  0.79172859  1  0  0.401239  0  0.913178  0  0  0.373473  0  0.974241  0  0  0.383596  0  0.959312  0  0  0.276092  0.366419  0  0.984601  0
H  H42  1  0.06769834  0.42438282  0.10457776  1  0  0.41731  0  0.885939  0  0  0.390406  0  0.943669  0  0  0.4007  0  0.928585  0  0  0.282028  0.383166  0  0.954281  0
H  H43  1  0.93230017  0.57561267  0.89541927  1  0  0.41727  0  0.885986  0  0  0.390427  0  0.943642  0  0  0.400721  0  0.928556  0  0  0.282027  0.383185  0  0.954259  0
C  C44  1  0.17880120  0.90119726  0.55984846  1  0  0.637692  0  3.816027  0  0  0.591899  0  4.084334  0  0  0.618868  0  4.093036  0  0  0.343691  0.573826  0  4.07781  0
C  C45  1  0.82119776  0.09880142  0.44015218  1  0  0.637682  0  3.816063  0  0  0.591919  0  4.084319  0  0  0.618888  0  4.093017  0  0  0.343718  0.573847  0  4.077795  0
C  C46  1  0.32286995  0.78180099  0.45831473  1  0  0.20058  0  3.743828  0  0  0.163632  0  3.999043  0  0  0.178753  0  4.014099  0  0  0.055606  0.153674  0  3.98876  0
C  C47  1  0.67713122  0.21819981  0.54168524  1  0  0.200658  0  3.743725  0  0  0.163706  0  3.998959  0  0  0.178831  0  4.014011  0  0  0.055626  0.153747  0  3.988676  0
C  C48  1  0.46996063  0.87459355  0.55530130  1  0  -0.28424  0  3.723968  0  0  -0.302027  0  3.977877  0  0  -0.318307  0  3.99979  0  0  -0.114088  -0.291614  0  3.963571  0
C  C49  1  0.53003994  0.12540830  0.44469815  1  0  -0.284304  0  3.723853  0  0  -0.302106  0  3.977774  0  0  -0.318387  0  3.999689  0  0  -0.114081  -0.291693  0  3.963468  0
C  C50  1  0.46427187  0.98698586  0.65401409  1  0  0.370238  0  3.771763  0  0  0.370171  0  4.018962  0  0  0.38683  0  4.034503  0  0  0.1294  0.359185  0  4.008117  0
C  C51  1  0.53572650  0.01301388  0.34598604  1  0  0.370271  0  3.771742  0  0  0.3702  0  4.018942  0  0  0.386855  0  4.034488  0  0  0.129411  0.359216  0  4.008097  0
C  C52  1  0.61833054  0.09706446  0.75890767  1  0  -0.392437  0  3.692105  0  0  -0.474922  0  3.931024  0  0  -0.478892  0  3.934611  0  0  -0.245249  -0.471917  0  3.928337  0
C  C53  1  0.38166950  0.90293634  0.24109218  1  0  -0.392454  0  3.692148  0  0  -0.474936  0  3.93106  0  0  -0.478907  0  3.934648  0  0  -0.245256  -0.471931  0  3.928368  0
C  C54  1  0.63320002  0.39920683  0.06571137  1  0  0.643832  0  3.793527  0  0  0.59949  0  4.054898  0  0  0.626528  0  4.064004  0  0  0.34615  0.581327  0  4.048158  0
C  C55  1  0.36679895  0.60079185  0.93429010  1  0  0.643878  0  3.793456  0  0  0.599534  0  4.054818  0  0  0.626572  0  4.063925  0  0  0.346189  0.58137  0  4.048076  0
C  C56  1  0.45203318  0.19471969  0.06198353  1  0  0.1958  0  3.761364  0  0  0.158558  0  4.019472  0  0  0.174013  0  4.034279  0  0  0.05247  0.148375  0  4.009468  0
C  C57  1  0.54797030  0.80527898  0.93801923  1  0  0.195716  0  3.761468  0  0  0.158454  0  4.019581  0  0  0.173912  0  4.034383  0  0  0.052427  0.148274  0  4.00957  0
C  C58  1  0.56055190  0.22232087  0.17063318  1  0  -0.291673  0  3.731851  0  0  -0.310164  0  3.982471  0  0  -0.32661  0  4.004816  0  0  -0.116716  -0.299572  0  3.967754  0
C  C59  1  0.43945199  0.77768311  0.82937145  1  0  -0.29163  0  3.731739  0  0  -0.310111  0  3.982368  0  0  -0.326555  0  4.004712  0  0  -0.116683  -0.299518  0  3.967648  0
C  C60  1  0.70873648  0.34771232  0.22703271  1  0  0.391993  0  3.715101  0  0  0.391226  0  3.959439  0  0  0.408316  0  3.975184  0  0  0.142588  0.379841  0  3.948392  0
C  C61  1  0.29126528  0.65228742  0.77296859  1  0  0.392084  0  3.714984  0  0  0.391276  0  3.95937  0  0  0.408366  0  3.975116  0  0  0.142623  0.379889  0  3.948324  0
C  C62  1  0.83102734  0.38656688  0.34562748  1  0  -0.372227  0  3.673401  0  0  -0.452484  0  3.906265  0  0  -0.457017  0  3.911662  0  0  -0.236377  -0.449078  0  3.902404  0
C  C63  1  0.16897542  0.61343711  0.65437540  1  0  -0.372407  0  3.673553  0  0  -0.452647  0  3.906428  0  0  -0.45718  0  3.911824  0  0  -0.236426  -0.449243  0  3.902565  0
C  C64  1  0.99497856  0.04403691  0.12229726  1  0  -0.083718  0  3.747625  0  0  -0.103418  0  3.995784  0  0  -0.104467  0  4.015226  0  0  -0.089218  -0.102458  0  3.98257  0
C  C65  1  0.00501915  0.95596602  0.87770309  1  0  -0.083826  0  3.747672  0  0  -0.103497  0  3.995834  0  0  -0.10453  0  4.01528  0  0  -0.089251  -0.102536  0  3.982622  0
C  C66  1  0.99605572  0.91130528  0.05702875  1  0  -0.063432  0  3.75723  0  0  -0.042724  0  3.993996  0  0  -0.048861  0  4.016737  0  0  -0.020691  -0.038742  0  3.978527  0
C  C67  1  0.00394033  0.08869659  0.94297105  1  0  -0.06339  0  3.757173  0  0  -0.042673  0  3.993904  0  0  -0.048811  0  4.016645  0  0  -0.020701  -0.038693  0  3.978437  0
C  C68  1  0.99845767  0.13163005  0.06603203  1  0  -0.08207  0  3.730699  0  0  -0.102613  0  3.973793  0  0  -0.103963  0  3.99391  0  0  -0.088251  -0.101495  0  3.960246  0
C  C69  1  0.00153552  0.86837289  0.93396785  1  0  -0.082027  0  3.730765  0  0  -0.102579  0  3.973862  0  0  -0.103917  0  3.99398  0  0  -0.088268  -0.101466  0  3.960312  0
C  C70  1  0.98676674  0.81472031  0.11650542  1  0  0.622958  0  3.939279  0  0  0.570603  0  4.233734  0  0  0.603404  0  4.227643  0  0  0.196077  0.548309  0  4.237077  0
C  C71  1  0.01323383  0.18528155  0.88349485  1  0  0.622881  0  3.939432  0  0  0.570513  0  4.233891  0  0  0.603314  0  4.227798  0  0  0.196014  0.548222  0  4.237237  0
C  C72  1  0.60960835  0.55928998  0.61923923  1  0  -0.073799  0  3.734301  0  0  -0.095663  0  3.979588  0  0  -0.097014  0  4.000645  0  0  -0.086964  -0.094744  0  3.96545  0
C  C73  1  0.39039068  0.44070657  0.38075904  1  0  -0.073821  0  3.734251  0  0  -0.095641  0  3.979528  0  0  -0.096993  0  4.000585  0  0  -0.086951  -0.094706  0  3.965408  0
C  C74  1  0.46061953  0.43734070  0.57879253  1  0  -0.065938  0  3.7533  0  0  -0.042972  0  3.986781  0  0  -0.049538  0  4.009956  0  0  -0.019235  -0.03887  0  3.971358  0
C  C75  1  0.53938057  0.56265797  0.42120659  1  0  -0.065938  0  3.753372  0  0  -0.042952  0  3.986812  0  0  -0.049516  0  4.009985  0  0  -0.019223  -0.038905  0  3.971458  0
C  C76  1  0.64866044  0.62088934  0.54123036  1  0  -0.080994  0  3.744216  0  0  -0.09924  0  3.986851  0  0  -0.100348  0  4.007004  0  0  -0.087589  -0.098259  0  3.973379  0
C  C77  1  0.35133680  0.37911040  0.45876965  1  0  -0.081054  0  3.744187  0  0  -0.099296  0  3.986814  0  0  -0.100404  0  4.006967  0  0  -0.087595  -0.098332  0  3.973326  0
C  C78  1  0.42148962  0.36844943  0.66191765  1  0  0.641092  0  3.920539  0  0  0.584938  0  4.220615  0  0  0.618229  0  4.214663  0  0  0.197814  0.562421  0  4.223746  0
C  C79  1  0.57851049  0.63154924  0.33808065  1  0  0.641065  0  3.920608  0  0  0.584918  0  4.220665  0  0  0.618209  0  4.21471  0  0  0.19779  0.562418  0  4.223799  0
N  N80  1  0.03375463  0.90943010  0.56601899  1  0  -0.699289  0  3.090449  0  0  -0.659744  0  3.327458  0  0  -0.682767  0  3.321085  0  0  -0.571078  -0.643794  0  3.331451  0
N  N81  1  0.96624434  0.09056857  0.43398083  1  0  -0.699286  0  3.09043  0  0  -0.659761  0  3.327446  0  0  -0.682786  0  3.321075  0  0  -0.571079  -0.643812  0  3.331439  0
N  N82  1  0.17833202  0.79404236  0.45736500  1  0  -0.464766  0  3.185104  0  0  -0.386449  0  3.468864  0  0  -0.412154  0  3.478221  0  0  -0.351693  -0.369309  0  3.462322  0
N  N83  1  0.82166749  0.20595737  0.54263442  1  0  -0.464795  0  3.185099  0  0  -0.386486  0  3.468853  0  0  -0.412192  0  3.478209  0  0  -0.351722  -0.369345  0  3.462311  0
N  N84  1  0.31965035  0.99933055  0.65654614  1  0  -0.513352  0  3.119599  0  0  -0.440685  0  3.393763  0  0  -0.466476  0  3.402888  0  0  -0.347174  -0.423239  0  3.387266  0
N  N85  1  0.68034748  0.00066813  0.34345438  1  0  -0.513372  0  3.119576  0  0  -0.440693  0  3.393719  0  0  -0.466481  0  3.402842  0  0  -0.347204  -0.42325  0  3.387226  0
N  N86  1  0.67316513  0.48565192  0.01349175  1  0  -0.700803  0  3.130241  0  0  -0.666214  0  3.37734  0  0  -0.688416  0  3.370344  0  0  -0.578924  -0.650845  0  3.382238  0
N  N87  1  0.32683557  0.51434569  0.98650789  1  0  -0.700812  0  3.13028  0  0  -0.666246  0  3.377403  0  0  -0.688445  0  3.370407  0  0  -0.57897  -0.650881  0  3.382311  0
N  N88  1  0.74259869  0.43630061  0.17569031  1  0  -0.484927  0  3.108637  0  0  -0.403004  0  3.364235  0  0  -0.4301  0  3.375103  0  0  -0.337032  -0.384729  0  3.356506  0
N  N89  1  0.25740414  0.56370124  0.82431101  1  0  -0.485025  0  3.108707  0  0  -0.403071  0  3.364307  0  0  -0.43017  0  3.375178  0  0  -0.337088  -0.384801  0  3.35659  0
N  N90  1  0.48570794  0.28044827  0.00759321  1  0  -0.467649  0  3.192082  0  0  -0.390131  0  3.477895  0  0  -0.416518  0  3.48862  0  0  -0.352681  -0.372499  0  3.470381  0
N  N91  1  0.51429502  0.71954933  0.99240748  1  0  -0.467548  0  3.192043  0  0  -0.390026  0  3.47786  0  0  -0.416411  0  3.488584  0  0  -0.352638  -0.37239  0  3.470336  0
O  O92  1  0.97346767  0.85602979  0.22713712  1  0  -0.666542  0  2.079862  0  0  -0.593646  0  2.340454  0  0  -0.62082  0  2.326714  0  0  -0.334345  -0.574446  0  2.349289  0
O  O93  1  0.02653130  0.14396888  0.77286188  1  0  -0.666529  0  2.079891  0  0  -0.593626  0  2.340485  0  0  -0.620803  0  2.326742  0  0  -0.334306  -0.574426  0  2.349319  0
O  O94  1  0.11966338  0.48662705  0.19521307  1  0  -0.847452  0  1.834746  0  0  -0.798771  0  2.0169  0  0  -0.818409  0  1.984685  0  0  -0.611907  -0.784294  0  2.039336  0
O  O95  1  0.88033507  0.51337056  0.80478387  1  0  -0.8474  0  1.834798  0  0  -0.798793  0  2.016862  0  0  -0.818429  0  1.984645  0  0  -0.611907  -0.784315  0  2.039302  0
O  O96  1  0.99147898  0.69663605  0.05628920  1  0  -0.622835  0  1.988547  0  0  -0.556657  0  2.204071  0  0  -0.581821  0  2.19419  0  0  -0.313308  -0.538968  0  2.21054  0
O  O97  1  0.00852273  0.30336580  0.94370955  1  0  -0.622795  0  1.988663  0  0  -0.556595  0  2.204167  0  0  -0.581758  0  2.194289  0  0  -0.31326  -0.538905  0  2.210634  0
O  O98  1  0.27816113  0.26807142  0.62962668  1  0  -0.647312  0  2.039347  0  0  -0.583877  0  2.301339  0  0  -0.610751  0  2.289871  0  0  -0.323932  -0.564991  0  2.30856  0
O  O99  1  0.72184063  0.73192832  0.37037381  1  0  -0.647307  0  2.039417  0  0  -0.583867  0  2.301394  0  0  -0.610746  0  2.289931  0  0  -0.323905  -0.56498  0  2.308606  0
O  O100  1  0.53728705  0.41238182  0.76137653  1  0  -0.665624  0  2.042085  0  0  -0.593992  0  2.274417  0  0  -0.621209  0  2.264848  0  0  -0.324024  -0.574738  0  2.280189  0
O  O101  1  0.46271305  0.58761685  0.23862259  1  0  -0.665636  0  2.042106  0  0  -0.594018  0  2.274449  0  0  -0.621235  0  2.264882  0  0  -0.324039  -0.574759  0  2.280205  0
