# generated using pymatgen
data_Zn4H11C23O13F
_symmetry_space_group_name_H-M   'P 1'
_cell_length_a   18.45915285
_cell_length_b   18.39852919
_cell_length_c   18.47622261
_cell_angle_alpha   119.86138197
_cell_angle_beta   119.84577247
_cell_angle_gamma   90.00024659
_symmetry_Int_Tables_number   1
_chemical_formula_structural   Zn4H11C23O13F
_chemical_formula_sum   'Zn8 H22 C46 O26 F2'
_cell_volume   4456.59530815
_cell_formula_units_Z   2
loop_
 _symmetry_equiv_pos_site_id
 _symmetry_equiv_pos_as_xyz
  1  'x, y, z'
loop_
 _atom_site_type_symbol
 _atom_site_label
 _atom_site_symmetry_multiplicity
 _atom_site_fract_x
 _atom_site_fract_y
 _atom_site_fract_z
 _atom_site_occupancy
 _atom_site_pbe_bader_charge
 _atom_site_pbe_bader_spin_density
 _atom_site_pbe_cm5_charge
 _atom_site_pbe_ddec_charge
 _atom_site_pbe_ddec_spin_density
 _atom_site_pbe_ddec_sum_bond_order
 _atom_site_pbe_magmom
Zn  Zn0  1  0.70808691  0.79609853  0.41755744  1  1.318518  0  0.671308  0.962899  0  2.376897  0
Zn  Zn1  1  0.11796438  0.20490093  0.41044337  1  1.318335  0  0.671572  0.963474  0  2.370386  0
Zn  Zn2  1  0.88203798  0.79445611  0.58955743  1  1.318193  0  0.671523  0.963361  0  2.37044  0
Zn  Zn3  1  0.29226969  0.20529907  0.40987997  1  1.317374  0  0.671902  0.965096  0  2.364934  0
Zn  Zn4  1  0.71032484  0.62169107  0.41853848  1  1.323849  0  0.674793  0.966812  0  2.374705  0
Zn  Zn5  1  0.28967310  0.20315288  0.58145724  1  1.326243  0  0.674833  0.966761  0  2.3748  0
Zn  Zn6  1  0.29191494  0.37854518  0.58244768  1  1.316354  0  0.671368  0.963056  0  2.376633  0
Zn  Zn7  1  0.70772937  0.79542046  0.59011694  1  1.317854  0  0.671944  0.965138  0  2.364902  0
H  H8  1  0.46662648  0.55972928  0.90586614  1  0.121818  0  0.119965  0.142564  0  0.970479  0
H  H9  1  0.45325105  0.33554945  0.38332583  1  0.073345  0  0.109856  0.115081  0  0.992539  0
H  H10  1  0.54674814  0.95222552  0.61667655  1  0.109842  0  0.109862  0.115069  0  0.992582  0
H  H11  1  0.93194842  0.33578816  0.38413857  1  0.125333  0  0.109963  0.115471  0  0.992615  0
H  H12  1  0.16313250  0.04721344  0.61363554  1  0.060456  0  0.110858  0.117144  0  0.990176  0
H  H13  1  0.54998272  0.43308929  0.38475592  1  0.091059  0  0.110659  0.116456  0  0.990361  0
H  H14  1  0.45001700  0.04833399  0.61524517  1  0.104638  0  0.110652  0.116417  0  0.990339  0
H  H15  1  0.83686693  0.43357448  0.38636216  1  0.071174  0  0.110832  0.117125  0  0.99017  0
H  H16  1  0.53336884  0.65386946  0.09413513  1  0.116187  0  0.119991  0.142573  0  0.970498  0
H  H17  1  0.93013643  0.04773526  0.38318862  1  0.098676  0  0.109331  0.114631  0  0.993199  0
H  H18  1  0.54736499  0.66434776  0.61581272  1  0.12394  0  0.109383  0.114958  0  0.992902  0
H  H19  1  0.45264004  0.04853733  0.38419464  1  0.10181  0  0.109408  0.114975  0  0.992934  0
H  H20  1  0.06986203  0.66454877  0.61681175  1  0.091832  0  0.109314  0.114604  0  0.993203  0
H  H21  1  0.83502847  0.95181918  0.38507834  1  0.09154  0  0.109012  0.114294  0  0.993487  0
H  H22  1  0.45030274  0.56678107  0.61398270  1  0.07883  0  0.10927  0.115032  0  0.993752  0
H  H23  1  0.54970167  0.95279932  0.38602164  1  0.073887  0  0.109239  0.114982  0  0.993817  0
H  H24  1  0.16497051  0.56674450  0.61492245  1  0.109125  0  0.109011  0.1143  0  0.993486  0
H  H25  1  0.06827594  0.95200464  0.90388472  1  0.10228  0  0.109566  0.115165  0  0.993068  0
H  H26  1  0.16397461  0.04775563  0.09529535  1  0.104564  0  0.109372  0.115263  0  0.993098  0
H  H27  1  0.83602777  0.95246029  0.90470484  1  0.123024  0  0.109389  0.115307  0  0.993039  0
H  H28  1  0.93172461  0.04811373  0.09611439  1  0.070065  0  0.109583  0.115166  0  0.993061  0
H  H29  1  0.06805310  0.95165232  0.61586127  1  0.107713  0  0.109975  0.115483  0  0.992684  0
C  C30  1  0.61134878  0.61222156  0.50085599  1  1.532008  0  0.230093  0.605978  0  4.162047  0
C  C31  1  0.52626609  0.59230656  0.56518066  1  0.005874  0  -0.078901  -0.090773  0  3.970892  0
C  C32  1  0.47373575  0.02712588  0.43482240  1  0.004168  0  -0.078951  -0.090797  0  3.970865  0
C  C33  1  0.04049393  0.59252263  0.56637564  1  -0.06648  0  -0.079301  -0.090977  0  3.970815  0
C  C34  1  0.95950491  0.02614512  0.43362444  1  -0.030163  0  -0.079366  -0.091075  0  3.970815  0
C  C35  1  0.90690207  0.97316338  0.43471058  1  -0.027684  0  -0.079184  -0.090305  0  3.969496  0
C  C36  1  0.47259512  0.53833674  0.56422179  1  -0.10348  0  -0.078959  -0.090884  0  3.971211  0
C  C37  1  0.52740728  0.97411443  0.43578068  1  -0.080884  0  -0.078937  -0.090854  0  3.971263  0
C  C38  1  0.10869163  0.10851011  0.49613266  1  1.530972  0  0.228275  0.602046  0  4.169186  0
C  C39  1  0.09309813  0.53845607  0.56529039  1  -0.051464  0  -0.079167  -0.090272  0  3.969499  0
C  C40  1  0.94619611  0.94616812  0.50033601  1  -0.036899  0  -0.013246  -0.031061  0  3.964548  0
C  C41  1  0.44617115  0.44567193  0.49841895  1  0.041492  0  -0.012731  -0.030527  0  3.96544  0
C  C42  1  0.55383076  0.94725407  0.50158328  1  0.017105  0  -0.012722  -0.030493  0  3.965308  0
C  C43  1  0.05380525  0.44583386  0.49966621  1  -0.013688  0  -0.013322  -0.031206  0  3.964629  0
C  C44  1  0.89130570  0.61237357  0.50386453  1  1.540522  0  0.228376  0.602321  0  4.169034  0
C  C45  1  0.03912590  0.97343503  0.94676896  1  -0.141922  0  -0.078403  -0.089522  0  3.968614  0
C  C46  1  0.09212190  0.02644441  0.05274062  1  0.051772  0  -0.078301  -0.090548  0  3.97004  0
C  C47  1  0.90788025  0.97370307  0.94726032  1  0.021479  0  -0.078377  -0.090696  0  3.97006  0
C  C48  1  0.96087438  0.02666288  0.05322966  1  -0.097158  0  -0.078361  -0.089441  0  3.968677  0
C  C49  1  0.38865007  0.11136282  0.49914503  1  1.530185  0  0.230103  0.605955  0  4.162124  0
C  C50  1  0.05332592  0.05334422  0.10662465  1  0.004363  0  -0.013868  -0.031621  0  3.962819  0
C  C51  1  0.94667368  0.94671999  0.89337220  1  0.055791  0  -0.013791  -0.03151  0  3.962672  0
C  C52  1  0.88955208  0.88904253  0.50124933  1  1.547235  0  0.22919  0.605881  0  4.163582  0
C  C53  1  0.38803111  0.38781801  0.49714676  1  1.538067  0  0.228319  0.602699  0  4.168099  0
C  C54  1  0.61196771  0.89067009  0.50285278  1  1.534268  0  0.228395  0.602768  0  4.167812  0
C  C55  1  0.11044943  0.38779641  0.49875084  1  1.526164  0  0.229125  0.605753  0  4.163798  0
C  C56  1  0.88963525  0.88961582  0.77934086  1  1.546835  0  0.229546  0.605714  0  4.162638  0
C  C57  1  0.11036502  0.11026972  0.22065693  1  1.570157  0  0.22967  0.605907  0  4.162505  0
C  C58  1  0.62292039  0.61624403  0.23021567  1  1.608784  0  0.219119  0.549755  0  4.24486  0
C  C59  1  0.37707975  0.38602422  0.76978793  1  1.607242  0  0.219064  0.549799  0  4.245311  0
C  C60  1  0.47329960  0.52866437  0.94508926  1  0.15295  0  -0.090359  -0.153816  0  4.019485  0
C  C61  1  0.52669660  0.58357907  0.05491405  1  0.079154  0  -0.090405  -0.153917  0  4.019553  0
C  C62  1  0.42644452  0.44124572  0.88300059  1  0.424865  0  0.09599  0.13288  0  3.995608  0
C  C63  1  0.57355516  0.55825141  0.11699993  1  0.413564  0  0.095972  0.13298  0  3.995424  0
C  C64  1  0.03864412  0.97296146  0.56515194  1  0.04112  0  -0.078387  -0.089963  0  3.969016  0
C  C65  1  0.47423933  0.40758723  0.43380864  1  -0.023317  0  -0.078518  -0.089898  0  3.967349  0
C  C66  1  0.52576177  0.97377961  0.56619356  1  -0.057329  0  -0.078537  -0.08995  0  3.967348  0
C  C67  1  0.96135666  0.40780905  0.43484800  1  0.031718  0  -0.078367  -0.08989  0  3.96901  0
C  C68  1  0.09126016  0.02578534  0.56392496  1  -0.008647  0  -0.077832  -0.089419  0  3.96592  0
C  C69  1  0.52779416  0.46155164  0.43462227  1  -0.028306  0  -0.077389  -0.088256  0  3.963154  0
C  C70  1  0.47220484  0.02692901  0.56537804  1  0.003077  0  -0.077368  -0.088144  0  3.963115  0
C  C71  1  0.90874067  0.46185730  0.43607223  1  0.008989  0  -0.07781  -0.089395  0  3.96598  0
C  C72  1  0.05192565  0.05244064  0.49795194  1  -0.053411  0  -0.01206  -0.0297  0  3.965747  0
C  C73  1  0.55399378  0.55421056  0.50021845  1  -0.00413  0  -0.01328  -0.030957  0  3.963229  0
C  C74  1  0.44600790  0.05399159  0.49978483  1  -0.009585  0  -0.013258  -0.030994  0  3.963275  0
C  C75  1  0.94807346  0.55448764  0.50204675  1  -0.052022  0  -0.012067  -0.0298  0  3.965745  0
O  O76  1  0.75188537  0.75214354  0.50387256  1  -1.242578  0  -0.571136  -1.029388  0  2.526862  0
O  O77  1  0.19213045  0.12699888  0.55382990  1  -1.163329  0  -0.312709  -0.542596  0  2.342944  0
O  O78  1  0.80786284  0.57315993  0.44615792  1  -1.162335  0  -0.312731  -0.542761  0  2.342744  0
O  O79  1  0.36760187  0.13505715  0.56196635  1  -1.179979  0  -0.314219  -0.546435  0  2.338792  0
O  O80  1  0.80591060  0.86610720  0.43924578  1  -1.17274  0  -0.31548  -0.549086  0  2.34314  0
O  O81  1  0.36417478  0.42717290  0.55707682  1  -1.165916  0  -0.314215  -0.54466  0  2.343609  0
O  O82  1  0.63581149  0.87008200  0.44290931  1  -1.169124  0  -0.314215  -0.544636  0  2.343541  0
O  O83  1  0.19408830  0.42686495  0.56075961  1  -1.164762  0  -0.315509  -0.549103  0  2.343214  0
O  O84  1  0.24811596  0.24827379  0.49612748  1  -1.242642  0  -0.57115  -1.029433  0  2.526899  0
O  O85  1  0.63318874  0.86763218  0.56365475  1  -1.158899  0  -0.313438  -0.546018  0  2.334176  0
O  O86  1  0.07076669  0.30407978  0.43626734  1  -1.171385  0  -0.313705  -0.545552  0  2.33749  0
O  O87  1  0.92923431  0.86780634  0.56372632  1  -1.159679  0  -0.313761  -0.545639  0  2.337531  0
O  O88  1  0.36681672  0.30397602  0.43635032  1  -1.161369  0  -0.313376  -0.545966  0  2.334197  0
O  O89  1  0.93064997  0.69621031  0.56308974  1  -1.161377  0  -0.313978  -0.546195  0  2.336208  0
O  O90  1  0.36543488  0.13202566  0.43608743  1  -1.161905  0  -0.313539  -0.546644  0  2.336254  0
O  O91  1  0.63456486  0.69594091  0.56391361  1  -1.167793  0  -0.313573  -0.546681  0  2.336168  0
O  O92  1  0.06934846  0.13313378  0.43691709  1  -1.16365  0  -0.313937  -0.546171  0  2.336074  0
O  O93  1  0.80600153  0.86805247  0.73550307  1  -1.188476  0  -0.314517  -0.547584  0  2.335701  0
O  O94  1  0.07080072  0.13194466  0.26492317  1  -1.185261  0  -0.31446  -0.547122  0  2.338113  0
O  O95  1  0.92920069  0.86703083  0.73507859  1  -1.192407  0  -0.314392  -0.547045  0  2.338164  0
O  O96  1  0.19400012  0.13254590  0.26449574  1  -1.190453  0  -0.314541  -0.547682  0  2.335671  0
O  O97  1  0.64996331  0.57700995  0.27431890  1  -1.166567  0  -0.310604  -0.521398  0  2.348537  0
O  O98  1  0.35003410  0.30268494  0.72568039  1  -1.163379  0  -0.310538  -0.521342  0  2.348667  0
O  O99  1  0.63215635  0.69862607  0.27101140  1  -1.171078  0  -0.31429  -0.533797  0  2.334778  0
O  O100  1  0.63239505  0.57309000  0.43803160  1  -1.169057  0  -0.314157  -0.546443  0  2.338783  0
O  O101  1  0.36784437  0.42760696  0.72899093  1  -1.165247  0  -0.314323  -0.533875  0  2.334952  0
F  F102  1  0.42045668  0.39572157  0.91984730  1  -0.616016  0  -0.090506  -0.104618  0  1.408433  0
F  F103  1  0.57954058  0.47587790  0.08015118  1  -0.613806  0  -0.090445  -0.104562  0  1.408355  0
