# generated using pymatgen
data_TmH27C21NO8
_symmetry_space_group_name_H-M   'P 1'
_cell_length_a   9.91259905
_cell_length_b   12.54117426
_cell_length_c   13.07708651
_cell_angle_alpha   72.62922324
_cell_angle_beta   80.55369246
_cell_angle_gamma   79.82137656
_symmetry_Int_Tables_number   1
_chemical_formula_structural   TmH27C21NO8
_chemical_formula_sum   'Tm2 H54 C42 N2 O16'
_cell_volume   1516.35502238
_cell_formula_units_Z   2
loop_
 _symmetry_equiv_pos_site_id
 _symmetry_equiv_pos_as_xyz
  1  'x, y, z'
loop_
 _atom_site_type_symbol
 _atom_site_label
 _atom_site_symmetry_multiplicity
 _atom_site_fract_x
 _atom_site_fract_y
 _atom_site_fract_z
 _atom_site_occupancy
 _atom_site_hle17_bader_spin_density
 _atom_site_hle17_ddec_charge
 _atom_site_hle17_ddec_spin_density
 _atom_site_hle17_ddec_sum_bond_order
 _atom_site_hle17_magmom
 _atom_site_hse06_10hf_bader_spin_density
 _atom_site_hse06_10hf_ddec_charge
 _atom_site_hse06_10hf_ddec_spin_density
 _atom_site_hse06_10hf_ddec_sum_bond_order
 _atom_site_hse06_10hf_magmom
 _atom_site_hse06_bader_spin_density
 _atom_site_hse06_ddec_charge
 _atom_site_hse06_ddec_spin_density
 _atom_site_hse06_ddec_sum_bond_order
 _atom_site_hse06_magmom
 _atom_site_pbe_bader_spin_density
 _atom_site_pbe_cm5_charge
 _atom_site_pbe_ddec_charge
 _atom_site_pbe_ddec_spin_density
 _atom_site_pbe_ddec_sum_bond_order
 _atom_site_pbe_magmom
Tm  Tm0  1  0.46831472  0.36501459  0.62677909  1  0  2.245574  0  1.662473  0  0  2.107551  0  2.143585  0  0  2.244717  0  1.941032  0  0  1.549478  2.070561  0  2.174784  0
Tm  Tm1  1  0.53169220  0.63498370  0.37322533  1  0  2.245447  0  1.662558  0  0  2.107386  0  2.143764  0  0  2.244603  0  1.941119  0  0  1.549476  2.070383  0  2.174976  0
H  H2  1  0.83673746  0.04384457  0.50244104  1  0  0.087151  0  0.950304  0  0  0.107832  0  1.014547  0  0  0.108958  0  1.014386  0  0  0.082725  0.108634  0  1.011672  0
H  H3  1  0.16323842  0.95614932  0.49756505  1  0  0.087069  0  0.950403  0  0  0.107785  0  1.014617  0  0  0.108911  0  1.014459  0  0  0.082694  0.108584  0  1.011741  0
H  H4  1  0.74854710  0.05065619  0.63039751  1  0  0.105998  0  0.968146  0  0  0.128076  0  1.030634  0  0  0.129247  0  1.030908  0  0  0.092278  0.126935  0  1.030902  0
H  H5  1  0.25143184  0.94933004  0.36960982  1  0  0.105989  0  0.968173  0  0  0.128074  0  1.030668  0  0  0.129271  0  1.030913  0  0  0.092213  0.126907  0  1.030951  0
H  H6  1  0.73338330  0.16989892  0.51752386  1  0  0.103431  0  0.973816  0  0  0.121367  0  1.040847  0  0  0.12298  0  1.040856  0  0  0.093166  0.119844  0  1.041688  0
H  H7  1  0.26660586  0.83009321  0.48248974  1  0  0.103325  0  0.973867  0  0  0.121282  0  1.040902  0  0  0.122895  0  1.040914  0  0  0.093125  0.119756  0  1.041738  0
H  H8  1  0.31073927  0.24614207  0.36096271  1  0  0.105628  0  0.984317  0  0  0.126407  0  1.046855  0  0  0.127762  0  1.047006  0  0  0.090847  0.125433  0  1.046593  0
H  H9  1  0.68925752  0.75385325  0.63901848  1  0  0.105608  0  0.984195  0  0  0.126338  0  1.046826  0  0  0.127694  0  1.046977  0  0  0.090821  0.125366  0  1.046566  0
H  H10  1  0.19003588  0.14806112  0.40712593  1  0  0.086159  0  0.97381  0  0  0.105938  0  1.042022  0  0  0.107377  0  1.041456  0  0  0.082565  0.104835  0  1.042317  0
H  H11  1  0.80996563  0.85193667  0.59285628  1  0  0.086112  0  0.973714  0  0  0.105864  0  1.041973  0  0  0.107307  0  1.041403  0  0  0.082541  0.104766  0  1.042263  0
H  H12  1  0.30877050  0.14556723  0.29116859  1  0  0.114279  0  0.929739  0  0  0.139747  0  0.982251  0  0  0.141384  0  0.981828  0  0  0.096561  0.138383  0  0.982766  0
H  H13  1  0.69123263  0.85442406  0.70882462  1  0  0.114195  0  0.929738  0  0  0.139646  0  0.982288  0  0  0.141276  0  0.981874  0  0  0.096566  0.138287  0  0.982805  0
H  H14  1  0.70367894  0.56154850  0.66575446  1  0  0.12038  0  0.957171  0  0  0.139979  0  1.019214  0  0  0.142234  0  1.017817  0  0  0.098651  0.138353  0  1.020146  0
H  H15  1  0.29632555  0.43844782  0.33423782  1  0  0.120335  0  0.957126  0  0  0.139961  0  1.019142  0  0  0.142213  0  1.017752  0  0  0.098628  0.138334  0  1.020074  0
H  H16  1  0.83564604  0.60495676  0.71492820  1  0  0.106763  0  0.962809  0  0  0.130117  0  1.019392  0  0  0.131406  0  1.019374  0  0  0.092601  0.129149  0  1.019434  0
H  H17  1  0.16435383  0.39504233  0.28506909  1  0  0.1067  0  0.962853  0  0  0.130061  0  1.01943  0  0  0.131351  0  1.019412  0  0  0.092576  0.129097  0  1.019463  0
H  H18  1  0.81131593  0.46150743  0.75367161  1  0  0.111402  0  0.945883  0  0  0.133448  0  1.005527  0  0  0.13516  0  1.004947  0  0  0.095883  0.132318  0  1.005736  0
H  H19  1  0.18868530  0.53848911  0.24632631  1  0  0.111396  0  0.945875  0  0  0.133437  0  1.005531  0  0  0.13515  0  1.00495  0  0  0.095907  0.132308  0  1.005734  0
H  H20  1  0.81603300  0.34967136  0.39759644  1  0  0.117999  0  0.962867  0  0  0.137464  0  1.023857  0  0  0.139627  0  1.022811  0  0  0.09668  0.13606  0  1.024315  0
H  H21  1  0.18397064  0.65033850  0.60239484  1  0  0.117928  0  0.962956  0  0  0.137409  0  1.023912  0  0  0.139571  0  1.022867  0  0  0.096687  0.136012  0  1.024363  0
H  H22  1  0.99152519  0.30303190  0.36086129  1  0  0.100136  0  0.951702  0  0  0.122109  0  1.012403  0  0  0.123185  0  1.012446  0  0  0.089712  0.121353  0  1.012371  0
H  H23  1  0.00847666  0.69696796  0.63913479  1  0  0.100024  0  0.951681  0  0  0.122005  0  1.012388  0  0  0.123082  0  1.012428  0  0  0.08965  0.121248  0  1.012355  0
H  H24  1  0.90883747  0.43198134  0.28361728  1  0  0.116351  0  0.925328  0  0  0.140406  0  0.978317  0  0  0.14247  0  0.977174  0  0  0.099425  0.138924  0  0.979147  0
H  H25  1  0.09116952  0.56801914  0.71637422  1  0  0.116338  0  0.925143  0  0  0.140369  0  0.978174  0  0  0.142433  0  0.97703  0  0  0.099452  0.138881  0  0.979019  0
H  H26  1  0.73759949  0.11308290  0.78434548  1  0  0.116546  0  0.965471  0  0  0.13811  0  1.023898  0  0  0.140073  0  1.023331  0  0  0.096517  0.136696  0  1.024347  0
H  H27  1  0.26238356  0.88692226  0.21567550  1  0  0.116455  0  0.965462  0  0  0.138006  0  1.023918  0  0  0.13997  0  1.02335  0  0  0.096424  0.136585  0  1.024369  0
H  H28  1  0.78390181  0.96486925  0.81212300  1  0  0.095556  0  0.950463  0  0  0.115918  0  1.014996  0  0  0.117243  0  1.014402  0  0  0.088565  0.114656  0  1.015862  0
H  H29  1  0.21609069  0.03514235  0.18789268  1  0  0.09575  0  0.95053  0  0  0.116129  0  1.014996  0  0  0.117459  0  1.0144  0  0  0.088637  0.114864  0  1.015857  0
H  H30  1  0.83602679  0.03743165  0.89223120  1  0  0.0903  0  0.958648  0  0  0.109736  0  1.024238  0  0  0.111234  0  1.023675  0  0  0.08527  0.10911  0  1.023734  0
H  H31  1  0.16396818  0.96258489  0.10778117  1  0  0.090335  0  0.958692  0  0  0.109731  0  1.024316  0  0  0.11123  0  1.023753  0  0  0.085229  0.109105  0  1.023809  0
H  H32  1  0.25516440  0.22281369  0.88630040  1  0  0.118897  0  0.971956  0  0  0.137837  0  1.032641  0  0  0.140534  0  1.031065  0  0  0.094516  0.135887  0  1.033807  0
H  H33  1  0.74484206  0.77719867  0.11372271  1  0  0.118953  0  0.971689  0  0  0.13783  0  1.032468  0  0  0.140526  0  1.030887  0  0  0.094476  0.135881  0  1.033628  0
H  H34  1  0.20884693  0.19443974  0.02747961  1  0  0.103104  0  0.935415  0  0  0.126336  0  0.991078  0  0  0.12755  0  0.991106  0  0  0.09131  0.125234  0  0.991306  0
H  H35  1  0.79116499  0.80557755  0.97254216  1  0  0.103122  0  0.935414  0  0  0.126292  0  0.991136  0  0  0.127501  0  0.991167  0  0  0.09123  0.125187  0  0.991369  0
H  H36  1  0.16184745  0.10855867  0.95780105  1  0  0.090226  0  0.956938  0  0  0.110013  0  1.021118  0  0  0.111393  0  1.020703  0  0  0.084566  0.109476  0  1.020509  0
H  H37  1  0.83815943  0.89145792  0.04222225  1  0  0.090274  0  0.956913  0  0  0.110011  0  1.021106  0  0  0.111386  0  1.020694  0  0  0.084596  0.109476  0  1.020493  0
H  H38  1  0.25382653  0.21841096  0.57821395  1  0  0.05134  0  0.939923  0  0  0.058266  0  1.011805  0  0  0.059558  0  1.008241  0  0  0.133405  0.057135  0  1.014739  0
H  H39  1  0.74618475  0.78158018  0.42177995  1  0  0.051489  0  0.939835  0  0  0.058463  0  1.011679  0  0  0.059755  0  1.00812  0  0  0.133512  0.057329  0  1.014619  0
H  H40  1  0.98627809  0.18590055  0.84639710  1  0  0.091402  0  0.939598  0  0  0.112573  0  1.001787  0  0  0.112634  0  1.002074  0  0  0.10413  0.112664  0  1.00108  0
H  H41  1  0.01373697  0.81409376  0.15359159  1  0  0.091438  0  0.939586  0  0  0.112592  0  1.001769  0  0  0.112647  0  1.002064  0  0  0.104208  0.112683  0  1.001062  0
H  H42  1  0.88504335  0.28511029  0.74936144  1  0  0.11681  0  0.954683  0  0  0.135809  0  1.016953  0  0  0.137278  0  1.016033  0  0  0.110709  0.134636  0  1.017811  0
H  H43  1  0.11497092  0.71488160  0.25063114  1  0  0.116736  0  0.954786  0  0  0.135743  0  1.017031  0  0  0.137202  0  1.016119  0  0  0.110709  0.13457  0  1.017884  0
H  H44  1  0.03378067  0.32422000  0.78529812  1  0  0.119973  0  0.929944  0  0  0.141249  0  0.985335  0  0  0.142938  0  0.984279  0  0  0.116957  0.140001  0  0.98606  0
H  H45  1  0.96623601  0.67577079  0.21468688  1  0  0.12001  0  0.929898  0  0  0.141233  0  0.985337  0  0  0.14292  0  0.98428  0  0  0.116974  0.139979  0  0.98606  0
H  H46  1  0.09759290  0.12009635  0.57748521  1  0  0.099165  0  0.960098  0  0  0.118707  0  1.026132  0  0  0.11896  0  1.026626  0  0  0.10982  0.118618  0  1.025269  0
H  H47  1  0.90241835  0.87988723  0.42251101  1  0  0.099105  0  0.959936  0  0  0.118652  0  1.025995  0  0  0.118904  0  1.02649  0  0  0.109836  0.118554  0  1.025149  0
H  H48  1  0.92394386  0.17835442  0.61460455  1  0  0.114575  0  0.946782  0  0  0.133563  0  1.010717  0  0  0.134249  0  1.011203  0  0  0.110347  0.133015  0  1.010359  0
H  H49  1  0.07607276  0.82162734  0.38539088  1  0  0.114534  0  0.946799  0  0  0.133501  0  1.010765  0  0  0.134186  0  1.011255  0  0  0.110354  0.132971  0  1.010378  0
H  H50  1  0.00982061  0.06132520  0.70762318  1  0  0.103819  0  0.921715  0  0  0.126955  0  0.977141  0  0  0.127334  0  0.977493  0  0  0.109777  0.126496  0  0.977186  0
H  H51  1  0.99019678  0.93865750  0.29237646  1  0  0.103781  0  0.921794  0  0  0.12694  0  0.97717  0  0  0.127322  0  0.977515  0  0  0.109758  0.126476  0  0.97722  0
H  H52  1  0.42143492  0.59261353  0.69025708  1  0  0.450151  0  0.850292  0  0  0.415664  0  0.917245  0  0  0.429396  0  0.897568  0  0  0.291785  0.406508  0  0.930291  0
H  H53  1  0.57853452  0.40739282  0.30973517  1  0  0.450156  0  0.85029  0  0  0.415681  0  0.917236  0  0  0.429406  0  0.897566  0  0  0.291785  0.406521  0  0.930285  0
H  H54  1  0.44215751  0.47352330  0.78636102  1  0  0.450917  0  0.807166  0  0  0.435775  0  0.846028  0  0  0.445081  0  0.832837  0  0  0.331522  0.42937  0  0.855326  0
H  H55  1  0.55782506  0.52647682  0.21363018  1  0  0.450772  0  0.80718  0  0  0.435631  0  0.846171  0  0  0.444933  0  0.832986  0  0  0.331443  0.429214  0  0.855488  0
C  C56  1  0.52998001  0.23726522  0.42530562  1  0  0.716852  0  3.864801  0  0  0.67164  0  4.158721  0  0  0.705863  0  4.150372  0  0  0.229359  0.648768  0  4.164735  0
C  C57  1  0.46999355  0.76273803  0.57470014  1  0  0.717075  0  3.864566  0  0  0.671795  0  4.15855  0  0  0.706031  0  4.150182  0  0  0.229485  0.648902  0  4.164595  0
C  C58  1  0.51595110  0.11336841  0.46162949  1  0  -0.156759  0  3.712231  0  0  -0.152935  0  3.955525  0  0  -0.157531  0  3.973526  0  0  -0.017806  -0.14953  0  3.943047  0
C  C59  1  0.48403586  0.88663597  0.53836605  1  0  -0.15693  0  3.712735  0  0  -0.153182  0  3.956004  0  0  -0.157785  0  3.973999  0  0  -0.017942  -0.149774  0  3.943543  0
C  C60  1  0.61654495  0.03785988  0.52058974  1  0  0.084621  0  3.716145  0  0  0.094099  0  3.961141  0  0  0.094962  0  3.984137  0  0  -0.010883  0.092936  0  3.946134  0
C  C61  1  0.38344462  0.96213115  0.47941497  1  0  0.084635  0  3.716125  0  0  0.094208  0  3.961136  0  0  0.095074  0  3.984139  0  0  -0.010883  0.093048  0  3.946118  0
C  C62  1  0.73979174  0.07786329  0.54362164  1  0  -0.317784  0  3.74077  0  0  -0.397246  0  3.981776  0  0  -0.399207  0  3.991191  0  0  -0.238847  -0.395801  0  3.974669  0
C  C63  1  0.26019352  0.92213634  0.45638472  1  0  -0.317636  0  3.740907  0  0  -0.397165  0  3.981816  0  0  -0.399147  0  3.991218  0  0  -0.238716  -0.395689  0  3.974729  0
C  C64  1  0.40011061  0.07695492  0.44011729  1  0  0.064569  0  3.728726  0  0  0.074156  0  3.977452  0  0  0.074255  0  4.001143  0  0  -0.017202  0.073455  0  3.96187  0
C  C65  1  0.59987785  0.92304679  0.55987432  1  0  0.064431  0  3.729219  0  0  0.074248  0  3.977635  0  0  0.074355  0  4.001313  0  0  -0.017183  0.073544  0  3.962066  0
C  C66  1  0.29719681  0.15858241  0.37202067  1  0  -0.327922  0  3.751841  0  0  -0.408207  0  3.993205  0  0  -0.410347  0  4.002342  0  0  -0.24089  -0.406292  0  3.987207  0
C  C67  1  0.70279579  0.84142142  0.62795837  1  0  -0.327681  0  3.751607  0  0  -0.407939  0  3.992924  0  0  -0.41008  0  4.002062  0  0  -0.240828  -0.406027  0  3.98693  0
C  C68  1  0.73502121  0.42238930  0.55180550  1  0  0.705105  0  3.878415  0  0  0.660464  0  4.167599  0  0  0.694472  0  4.167383  0  0  0.219224  0.637452  0  4.173266  0
C  C69  1  0.26498510  0.57761549  0.44818858  1  0  0.704861  0  3.879019  0  0  0.660375  0  4.167982  0  0  0.694376  0  4.167786  0  0  0.219161  0.637357  0  4.173654  0
C  C70  1  0.87388217  0.46153725  0.52450984  1  0  -0.159562  0  3.718174  0  0  -0.154208  0  3.962939  0  0  -0.158824  0  3.980677  0  0  -0.018336  -0.150234  0  3.948858  0
C  C71  1  0.12612209  0.53846759  0.47548444  1  0  -0.159648  0  3.7181  0  0  -0.154389  0  3.962876  0  0  -0.159005  0  3.980616  0  0  -0.018378  -0.150397  0  3.948793  0
C  C72  1  0.90958295  0.52022757  0.59029731  1  0  0.075008  0  3.710189  0  0  0.083482  0  3.961123  0  0  0.083882  0  3.984392  0  0  -0.009697  0.083366  0  3.944589  0
C  C73  1  0.09042608  0.47977212  0.40969804  1  0  0.074984  0  3.710101  0  0  0.083486  0  3.961058  0  0  0.083887  0  3.984327  0  0  -0.0097  0.083363  0  3.944508  0
C  C74  1  0.81029782  0.53860178  0.68576920  1  0  -0.336641  0  3.727016  0  0  -0.415754  0  3.962696  0  0  -0.418117  0  3.971257  0  0  -0.240663  -0.413691  0  3.956244  0
C  C75  1  0.18970768  0.46139377  0.31422704  1  0  -0.336464  0  3.726907  0  0  -0.415598  0  3.962593  0  0  -0.417961  0  3.971152  0  0  -0.240612  -0.413542  0  3.956129  0
C  C76  1  0.96122804  0.44029401  0.43472287  1  0  0.078789  0  3.716381  0  0  0.086972  0  3.967107  0  0  0.087749  0  3.990036  0  0  -0.009168  0.086557  0  3.950579  0
C  C77  1  0.03878450  0.55971059  0.56526829  1  0  0.078779  0  3.716557  0  0  0.087014  0  3.967232  0  0  0.087793  0  3.990161  0  0  -0.009258  0.086565  0  3.950742  0
C  C78  1  0.91702075  0.37791109  0.36639238  1  0  -0.323615  0  3.726418  0  0  -0.40175  0  3.963487  0  0  -0.403712  0  3.971509  0  0  -0.235946  -0.400269  0  3.957591  0
C  C79  1  0.08298396  0.62209113  0.63359884  1  0  -0.323354  0  3.726368  0  0  -0.401486  0  3.9634  0  0  -0.403449  0  3.971422  0  0  -0.235851  -0.399988  0  3.95752  0
C  C80  1  0.49421818  0.18871597  0.80774901  1  0  0.666949  0  3.913983  0  0  0.623757  0  4.206789  0  0  0.65657  0  4.206636  0  0  0.190472  0.600708  0  4.212458  0
C  C81  1  0.50577717  0.81128966  0.19226742  1  0  0.66693  0  3.91356  0  0  0.623757  0  4.206277  0  0  0.656579  0  4.206133  0  0  0.190561  0.600714  0  4.211927  0
C  C82  1  0.49782878  0.09149088  0.90804393  1  0  -0.136353  0  3.696032  0  0  -0.131095  0  3.937232  0  0  -0.135508  0  3.9553  0  0  -0.01653  -0.127354  0  3.924169  0
C  C83  1  0.50217000  0.90852047  0.09196732  1  0  -0.136323  0  3.696323  0  0  -0.130838  0  3.937463  0  0  -0.135278  0  3.955568  0  0  -0.016541  -0.127088  0  3.924374  0
C  C84  1  0.62043852  0.01639222  0.92602330  1  0  0.073239  0  3.716562  0  0  0.084604  0  3.959359  0  0  0.084451  0  3.984011  0  0  -0.012015  0.084284  0  3.942979  0
C  C85  1  0.37956294  0.98361255  0.07399732  1  0  0.073435  0  3.716755  0  0  0.084597  0  3.959502  0  0  0.084459  0  3.984139  0  0  -0.011971  0.084287  0  3.943105  0
C  C86  1  0.75048442  0.03474587  0.84935357  1  0  -0.32473  0  3.750251  0  0  -0.405158  0  3.993667  0  0  -0.407292  0  4.003248  0  0  -0.239496  -0.403419  0  3.987078  0
C  C87  1  0.24950476  0.96526899  0.15065535  1  0  -0.324913  0  3.750232  0  0  -0.405295  0  3.993662  0  0  -0.40744  0  4.003238  0  0  -0.239401  -0.403552  0  3.987065  0
C  C88  1  0.37718194  0.07630350  0.98120316  1  0  0.076273  0  3.711837  0  0  0.086313  0  3.955742  0  0  0.086339  0  3.980311  0  0  -0.011056  0.085854  0  3.939456  0
C  C89  1  0.62281281  0.92369655  0.01882577  1  0  0.0765  0  3.712183  0  0  0.086167  0  3.9564  0  0  0.086188  0  3.981002  0  0  -0.010967  0.085711  0  3.940106  0
C  C90  1  0.24471361  0.15498130  0.96129767  1  0  -0.321339  0  3.74287  0  0  -0.398447  0  3.979838  0  0  -0.400697  0  3.988875  0  0  -0.240891  -0.39659  0  3.973451  0
C  C91  1  0.75528636  0.84503523  0.03871798  1  0  -0.321527  0  3.742894  0  0  -0.39839  0  3.980042  0  0  -0.400622  0  3.989086  0  0  -0.240825  -0.396538  0  3.973642  0
C  C92  1  0.19745983  0.25407704  0.64306796  1  0  0.42378  0  3.781097  0  0  0.348377  0  4.071405  0  0  0.377455  0  4.07585  0  0  0.193106  0.328754  0  4.071827  0
C  C93  1  0.80255246  0.74591559  0.35691925  1  0  0.423344  0  3.780821  0  0  0.347877  0  4.071224  0  0  0.376949  0  4.075681  0  0  0.192887  0.328258  0  4.071637  0
C  C94  1  0.98993876  0.25595801  0.77202095  1  0  -0.173967  0  3.631161  0  0  -0.273726  0  3.874488  0  0  -0.270398  0  3.88394  0  0  -0.128845  -0.275563  0  3.867752  0
C  C95  1  0.01007132  0.74403480  0.22797104  1  0  -0.174004  0  3.631493  0  0  -0.273667  0  3.874759  0  0  -0.270327  0  3.88422  0  0  -0.128918  -0.275511  0  3.86803  0
C  C96  1  0.02393989  0.13987520  0.64361464  1  0  -0.175112  0  3.649393  0  0  -0.275932  0  3.895016  0  0  -0.272663  0  3.906392  0  0  -0.124952  -0.277764  0  3.886966  0
C  C97  1  0.97607564  0.86011572  0.35637427  1  0  -0.174852  0  3.648993  0  0  -0.275682  0  3.894626  0  0  -0.272414  0  3.906004  0  0  -0.124878  -0.277528  0  3.886569  0
N  N98  1  0.07661622  0.21789771  0.68505205  1  0  -0.072692  0  3.495476  0  0  0.031391  0  3.72924  0  0  0.011354  0  3.753731  0  0  -0.273228  0.044804  0  3.711877  0
N  N99  1  0.92339655  0.78209151  0.31493462  1  0  -0.072676  0  3.495638  0  0  0.031393  0  3.729404  0  0  0.011366  0  3.753885  0  0  -0.273311  0.044798  0  3.712046  0
O  O100  1  0.47157510  0.29518613  0.49065697  1  0  -0.788975  0  2.066131  0  0  -0.738464  0  2.337285  0  0  -0.78033  0  2.321978  0  0  -0.442095  -0.718917  0  2.343623  0
O  O101  1  0.52843964  0.70480546  0.50935631  1  0  -0.789002  0  2.065775  0  0  -0.738455  0  2.336936  0  0  -0.780334  0  2.321616  0  0  -0.442091  -0.71889  0  2.343282  0
O  O102  1  0.43696007  0.50544052  0.70936897  1  0  -0.945845  0  1.860984  0  0  -0.895384  0  2.054503  0  0  -0.928337  0  2.012287  0  0  -0.65561  -0.880958  0  2.077519  0
O  O103  1  0.56303878  0.49456008  0.29062108  1  0  -0.945671  0  1.860976  0  0  -0.895208  0  2.054618  0  0  -0.928162  0  2.012414  0  0  -0.655524  -0.880772  0  2.077659  0
O  O104  1  0.59569250  0.27881054  0.33513342  1  0  -0.594536  0  1.887752  0  0  -0.546542  0  2.080862  0  0  -0.569078  0  2.06882  0  0  -0.312928  -0.530538  0  2.088011  0
O  O105  1  0.40425511  0.72120029  0.66485142  1  0  -0.594603  0  1.888148  0  0  -0.546546  0  2.081257  0  0  -0.569089  0  2.069212  0  0  -0.312941  -0.530529  0  2.088409  0
O  O106  1  0.71259699  0.33593680  0.62976492  1  0  -0.680462  0  1.949669  0  0  -0.636797  0  2.191933  0  0  -0.671338  0  2.18252  0  0  -0.359794  -0.620342  0  2.196886  0
O  O107  1  0.28740920  0.66407568  0.37023140  1  0  -0.680301  0  1.950057  0  0  -0.636731  0  2.192301  0  0  -0.671271  0  2.182896  0  0  -0.359786  -0.620269  0  2.197255  0
O  O108  1  0.63552605  0.47802754  0.49782404  1  0  -0.807588  0  2.152507  0  0  -0.751596  0  2.420687  0  0  -0.800256  0  2.411684  0  0  -0.425212  -0.733268  0  2.425912  0
O  O109  1  0.36448071  0.52197462  0.50216697  1  0  -0.807512  0  2.152712  0  0  -0.751541  0  2.420781  0  0  -0.8002  0  2.411791  0  0  -0.42516  -0.733219  0  2.426018  0
O  O110  1  0.50672137  0.17023248  0.71558971  1  0  -0.693051  0  1.948274  0  0  -0.648106  0  2.18198  0  0  -0.683759  0  2.174526  0  0  -0.383533  -0.629853  0  2.185597  0
O  O111  1  0.49328110  0.82976471  0.28443313  1  0  -0.69312  0  1.948047  0  0  -0.648214  0  2.181822  0  0  -0.683878  0  2.174366  0  0  -0.383629  -0.629974  0  2.185437  0
O  O112  1  0.47593497  0.29031726  0.81463343  1  0  -0.722823  0  1.936751  0  0  -0.678807  0  2.165762  0  0  -0.712413  0  2.153301  0  0  -0.401704  -0.661813  0  2.173402  0
O  O113  1  0.52406719  0.70968393  0.18538057  1  0  -0.722719  0  1.936705  0  0  -0.678692  0  2.165693  0  0  -0.712307  0  2.153227  0  0  -0.401652  -0.661704  0  2.17333  0
O  O114  1  0.24744947  0.32346702  0.67364610  1  0  -0.63954  0  2.118426  0  0  -0.592122  0  2.387386  0  0  -0.629575  0  2.377928  0  0  -0.384651  -0.575069  0  2.391456  0
O  O115  1  0.75255562  0.67652654  0.32633854  1  0  -0.639337  0  2.118048  0  0  -0.591884  0  2.387008  0  0  -0.629343  0  2.377555  0  0  -0.384601  -0.574834  0  2.391069  0
