# generated using pymatgen
data_H6PbC4BrNO4
_symmetry_space_group_name_H-M   'P 1'
_cell_length_a   6.88036664
_cell_length_b   8.59723257
_cell_length_c   13.01800670
_cell_angle_alpha   100.41010564
_cell_angle_beta   89.99863957
_cell_angle_gamma   90.00287334
_symmetry_Int_Tables_number   1
_chemical_formula_structural   H6PbC4BrNO4
_chemical_formula_sum   'H24 Pb4 C16 Br4 N4 O16'
_cell_volume   757.36739423
_cell_formula_units_Z   4
loop_
 _symmetry_equiv_pos_site_id
 _symmetry_equiv_pos_as_xyz
  1  'x, y, z'
loop_
 _atom_site_type_symbol
 _atom_site_label
 _atom_site_symmetry_multiplicity
 _atom_site_fract_x
 _atom_site_fract_y
 _atom_site_fract_z
 _atom_site_occupancy
 _atom_site_hle17_bader_spin_density
 _atom_site_hle17_ddec_charge
 _atom_site_hle17_ddec_spin_density
 _atom_site_hle17_ddec_sum_bond_order
 _atom_site_hle17_magmom
 _atom_site_hse06_10hf_bader_spin_density
 _atom_site_hse06_10hf_ddec_charge
 _atom_site_hse06_10hf_ddec_spin_density
 _atom_site_hse06_10hf_ddec_sum_bond_order
 _atom_site_hse06_10hf_magmom
 _atom_site_hse06_bader_spin_density
 _atom_site_hse06_ddec_charge
 _atom_site_hse06_ddec_spin_density
 _atom_site_hse06_ddec_sum_bond_order
 _atom_site_hse06_magmom
 _atom_site_pbe_bader_spin_density
 _atom_site_pbe_cm5_charge
 _atom_site_pbe_ddec_charge
 _atom_site_pbe_ddec_spin_density
 _atom_site_pbe_ddec_sum_bond_order
 _atom_site_pbe_magmom
H  H0  1  0.29685231  0.96336033  0.08586077  1  0  0.301766  0  0.871203  0  0  0.281074  0  0.937318  0  0  0.288746  0  0.931588  0  0  0.311463  0.275649  0  0.94137  0
H  H1  1  0.79686613  0.53663436  0.41411003  1  0  0.301832  0  0.871099  0  0  0.281008  0  0.937331  0  0  0.288679  0  0.931602  0  0  0.311479  0.27559  0  0.941367  0
H  H2  1  0.70311623  0.03661838  0.91411473  1  0  0.302014  0  0.870961  0  0  0.281102  0  0.937309  0  0  0.288776  0  0.931578  0  0  0.311518  0.275683  0  0.941342  0
H  H3  1  0.20314020  0.46337607  0.58588254  1  0  0.301869  0  0.871088  0  0  0.281074  0  0.937264  0  0  0.288748  0  0.931533  0  0  0.311449  0.275653  0  0.941305  0
H  H4  1  0.20411593  0.85568098  0.97956471  1  0  0.302131  0  0.866667  0  0  0.28175  0  0.932284  0  0  0.289303  0  0.926678  0  0  0.311844  0.276405  0  0.936243  0
H  H5  1  0.70419471  0.64433492  0.52040762  1  0  0.302319  0  0.86633  0  0  0.281787  0  0.932099  0  0  0.289339  0  0.926495  0  0  0.312042  0.276444  0  0.936058  0
H  H6  1  0.79585115  0.14430224  0.02042518  1  0  0.302094  0  0.866596  0  0  0.281635  0  0.932317  0  0  0.289189  0  0.926712  0  0  0.311935  0.276292  0  0.936272  0
H  H7  1  0.29579272  0.35564928  0.47959469  1  0  0.302473  0  0.866233  0  0  0.281925  0  0.931991  0  0  0.289482  0  0.92638  0  0  0.31204  0.276578  0  0.935956  0
H  H8  1  0.14267761  0.76087893  0.18492702  1  0  0.129332  0  0.933566  0  0  0.137722  0  1.001361  0  0  0.141063  0  0.9988  0  0  0.116431  0.135282  0  1.003393  0
H  H9  1  0.64261977  0.73908271  0.31503928  1  0  0.129164  0  0.933483  0  0  0.137637  0  1.001254  0  0  0.140975  0  0.998699  0  0  0.11632  0.135211  0  1.003299  0
H  H10  1  0.85736651  0.23907137  0.81504719  1  0  0.129333  0  0.933398  0  0  0.137775  0  1.00116  0  0  0.141113  0  0.998609  0  0  0.116389  0.135354  0  1.003209  0
H  H11  1  0.35738365  0.26091090  0.68496729  1  0  0.129285  0  0.933429  0  0  0.137706  0  1.001217  0  0  0.141043  0  0.998664  0  0  0.116311  0.135267  0  1.003249  0
H  H12  1  0.00969854  0.70070303  0.06692524  1  0  0.128887  0  0.922254  0  0  0.135722  0  0.991435  0  0  0.138906  0  0.989326  0  0  0.115516  0.133462  0  0.992995  0
H  H13  1  0.50972637  0.79929200  0.43307926  1  0  0.128849  0  0.922177  0  0  0.135706  0  0.991365  0  0  0.138892  0  0.989254  0  0  0.115572  0.133458  0  0.99294  0
H  H14  1  0.99027872  0.29928933  0.93308502  1  0  0.128843  0  0.922184  0  0  0.135729  0  0.991335  0  0  0.138917  0  0.98922  0  0  0.11553  0.133489  0  0.992907  0
H  H15  1  0.49030611  0.20071943  0.56692418  1  0  0.129016  0  0.922094  0  0  0.135897  0  0.991214  0  0  0.13909  0  0.989096  0  0  0.115603  0.133632  0  0.992773  0
H  H16  1  0.36348579  0.61649669  0.04084693  1  0  0.132765  0  0.935093  0  0  0.1408  0  1.000332  0  0  0.144275  0  0.998072  0  0  0.1176  0.138287  0  1.002086  0
H  H17  1  0.86350316  0.88351388  0.45910581  1  0  0.132835  0  0.934909  0  0  0.140978  0  1.000127  0  0  0.144404  0  0.997906  0  0  0.117628  0.13846  0  1.001881  0
H  H18  1  0.63658158  0.38348007  0.95910374  1  0  0.132794  0  0.935175  0  0  0.140882  0  1.000411  0  0  0.14436  0  0.998142  0  0  0.117613  0.138367  0  1.002172  0
H  H19  1  0.13651334  0.11647847  0.54090521  1  0  0.132849  0  0.934863  0  0  0.140988  0  1.000025  0  0  0.144425  0  0.997797  0  0  0.11767  0.13847  0  1.001778  0
H  H20  1  0.49463264  0.76453636  0.12679916  1  0  0.131035  0  0.910753  0  0  0.139076  0  0.976932  0  0  0.141976  0  0.975327  0  0  0.121365  0.13699  0  0.978245  0
H  H21  1  0.99465192  0.73544584  0.37316520  1  0  0.130882  0  0.911002  0  0  0.13896  0  0.977208  0  0  0.141859  0  0.97559  0  0  0.121278  0.136861  0  0.978526  0
H  H22  1  0.50533298  0.23544083  0.87319688  1  0  0.130909  0  0.910841  0  0  0.138999  0  0.977042  0  0  0.141895  0  0.975443  0  0  0.121352  0.136905  0  0.978367  0
H  H23  1  0.00534132  0.26455122  0.62684795  1  0  0.130869  0  0.911001  0  0  0.13892  0  0.977221  0  0  0.141812  0  0.975612  0  0  0.121237  0.136819  0  0.978542  0
Pb  Pb24  1  0.65839146  0.17394928  0.27692147  1  0  1.151297  0  1.691438  0  0  0.982501  0  2.114536  0  0  1.041759  0  2.067165  0  0  0.508028  0.938403  0  2.150988  0
Pb  Pb25  1  0.15837898  0.32605936  0.22298294  1  0  1.151366  0  1.691712  0  0  0.98266  0  2.114862  0  0  1.041902  0  2.067495  0  0  0.508086  0.93857  0  2.151322  0
Pb  Pb26  1  0.34156545  0.82615687  0.72308703  1  0  1.151221  0  1.691507  0  0  0.982487  0  2.114627  0  0  1.041728  0  2.067269  0  0  0.508014  0.938412  0  2.151047  0
Pb  Pb27  1  0.84152270  0.67389088  0.77692367  1  0  1.151333  0  1.691523  0  0  0.982544  0  2.114636  0  0  1.041795  0  2.067258  0  0  0.508032  0.938471  0  2.151057  0
C  C28  1  0.94122697  0.93452392  0.15042158  1  0  0.68887  0  3.863325  0  0  0.635766  0  4.169496  0  0  0.670518  0  4.162427  0  0  0.211226  0.612236  0  4.173099  0
C  C29  1  0.44117521  0.56547639  0.34961337  1  0  0.689326  0  3.863131  0  0  0.635995  0  4.16965  0  0  0.670745  0  4.16257  0  0  0.211338  0.612487  0  4.173261  0
C  C30  1  0.05880115  0.06548942  0.84960977  1  0  0.689654  0  3.863316  0  0  0.636351  0  4.169777  0  0  0.671107  0  4.162695  0  0  0.211497  0.612853  0  4.173389  0
C  C31  1  0.55879042  0.43452903  0.65039546  1  0  0.689549  0  3.862966  0  0  0.636259  0  4.169386  0  0  0.671013  0  4.162299  0  0  0.211465  0.612727  0  4.172996  0
C  C32  1  0.08429106  0.80065899  0.11563770  1  0  -0.140532  0  3.521452  0  0  -0.199435  0  3.773925  0  0  -0.201125  0  3.778251  0  0  -0.066127  -0.198423  0  3.771267  0
C  C33  1  0.58428288  0.69930112  0.38435758  1  0  -0.140585  0  3.521669  0  0  -0.199554  0  3.774355  0  0  -0.201248  0  3.778665  0  0  -0.066153  -0.198629  0  3.771814  0
C  C34  1  0.91571817  0.19930746  0.88436313  1  0  -0.140682  0  3.521755  0  0  -0.199578  0  3.774293  0  0  -0.201272  0  3.778591  0  0  -0.066128  -0.198684  0  3.77179  0
C  C35  1  0.41571472  0.30068423  0.61564641  1  0  -0.140876  0  3.521776  0  0  -0.199726  0  3.774225  0  0  -0.201426  0  3.778542  0  0  -0.066136  -0.198704  0  3.771562  0
C  C36  1  0.41864192  0.73815053  0.05150174  1  0  -0.138777  0  3.515008  0  0  -0.195093  0  3.766171  0  0  -0.196692  0  3.770049  0  0  -0.064797  -0.194198  0  3.76387  0
C  C37  1  0.91867110  0.76185844  0.44846007  1  0  -0.138934  0  3.514695  0  0  -0.195189  0  3.765615  0  0  -0.196725  0  3.769516  0  0  -0.06479  -0.194267  0  3.763272  0
C  C38  1  0.58135423  0.26184933  0.94848564  1  0  -0.138492  0  3.514521  0  0  -0.194943  0  3.765868  0  0  -0.196533  0  3.769744  0  0  -0.064669  -0.194032  0  3.76353  0
C  C39  1  0.08133668  0.23813979  0.55155323  1  0  -0.139058  0  3.51483  0  0  -0.195222  0  3.765797  0  0  -0.196766  0  3.769696  0  0  -0.064844  -0.194298  0  3.763454  0
C  C40  1  0.55911882  0.75047604  0.96322482  1  0  0.686236  0  3.863374  0  0  0.631512  0  4.170456  0  0  0.666288  0  4.163506  0  0  0.212132  0.60799  0  4.173958  0
C  C41  1  0.05913170  0.74951420  0.53674614  1  0  0.686126  0  3.863473  0  0  0.631195  0  4.170909  0  0  0.665963  0  4.163968  0  0  0.21203  0.60767  0  4.174404  0
C  C42  1  0.44090786  0.24956609  0.03678557  1  0  0.685882  0  3.863789  0  0  0.631049  0  4.171141  0  0  0.665825  0  4.164197  0  0  0.212026  0.607517  0  4.174642  0
C  C43  1  0.94089207  0.25046887  0.46325295  1  0  0.686488  0  3.86315  0  0  0.631348  0  4.170848  0  0  0.666109  0  4.163916  0  0  0.212044  0.607826  0  4.174345  0
Br  Br44  1  0.30893347  0.03025639  0.33139495  1  0  -0.539714  0  0.921089  0  0  -0.47012  0  1.199746  0  0  -0.493154  0  1.181192  0  0  -0.199138  -0.453016  0  1.212758  0
Br  Br45  1  0.80891249  0.46981403  0.16863132  1  0  -0.539812  0  0.921364  0  0  -0.470225  0  1.200126  0  0  -0.493262  0  1.18157  0  0  -0.199105  -0.453119  0  1.213142  0
Br  Br46  1  0.69100454  0.96979643  0.66861373  1  0  -0.539636  0  0.921173  0  0  -0.470095  0  1.199933  0  0  -0.493131  0  1.181371  0  0  -0.199077  -0.452995  0  1.21294  0
Br  Br47  1  0.19096448  0.53016016  0.83133131  1  0  -0.539729  0  0.920947  0  0  -0.470199  0  1.199772  0  0  -0.493238  0  1.181229  0  0  -0.199152  -0.453095  0  1.212773  0
N  N48  1  0.25077778  0.84906211  0.05476198  1  0  -0.227486  0  3.345158  0  0  -0.164437  0  3.556845  0  0  -0.176534  0  3.565589  0  0  -0.472821  -0.156094  0  3.551048  0
N  N49  1  0.75078859  0.65092376  0.44520599  1  0  -0.227336  0  3.344747  0  0  -0.164177  0  3.557038  0  0  -0.176275  0  3.565778  0  0  -0.472976  -0.155819  0  3.551259  0
N  N50  1  0.74921546  0.15090455  0.94522582  1  0  -0.227688  0  3.344812  0  0  -0.164446  0  3.556903  0  0  -0.176551  0  3.565651  0  0  -0.473065  -0.156077  0  3.551129  0
N  N51  1  0.24920756  0.34907344  0.55479796  1  0  -0.227562  0  3.344777  0  0  -0.164529  0  3.557262  0  0  -0.176637  0  3.566004  0  0  -0.473015  -0.156196  0  3.551476  0
O  O52  1  0.80433379  0.90546199  0.20947620  1  0  -0.611334  0  1.948853  0  0  -0.546615  0  2.184291  0  0  -0.576381  0  2.177742  0  0  -0.297501  -0.525661  0  2.188033  0
O  O53  1  0.30431117  0.59452972  0.29054867  1  0  -0.611467  0  1.948542  0  0  -0.546716  0  2.184127  0  0  -0.576501  0  2.177614  0  0  -0.297578  -0.525758  0  2.187856  0
O  O54  1  0.19563620  0.09455447  0.79051021  1  0  -0.611627  0  1.948503  0  0  -0.546814  0  2.184077  0  0  -0.576579  0  2.177512  0  0  -0.297571  -0.525853  0  2.187803  0
O  O55  1  0.69563556  0.40547290  0.70948593  1  0  -0.611657  0  1.948616  0  0  -0.546822  0  2.184131  0  0  -0.576608  0  2.177607  0  0  -0.29762  -0.525863  0  2.187872  0
O  O56  1  0.96651619  0.06634099  0.12006893  1  0  -0.695522  0  2.034864  0  0  -0.626507  0  2.274017  0  0  -0.656055  0  2.266266  0  0  -0.315848  -0.605461  0  2.278624  0
O  O57  1  0.46642490  0.43368263  0.37999703  1  0  -0.695918  0  2.03444  0  0  -0.626628  0  2.273405  0  0  -0.656161  0  2.265644  0  0  -0.316022  -0.605589  0  2.278008  0
O  O58  1  0.03363257  0.93370717  0.88000676  1  0  -0.695941  0  2.034988  0  0  -0.626783  0  2.273973  0  0  -0.656316  0  2.266207  0  0  -0.316043  -0.605751  0  2.278575  0
O  O59  1  0.53358142  0.56632851  0.62002405  1  0  -0.695837  0  2.034681  0  0  -0.626639  0  2.273711  0  0  -0.656175  0  2.265951  0  0  -0.31595  -0.605606  0  2.278323  0
O  O60  1  0.53277594  0.85777607  0.90832446  1  0  -0.69484  0  2.042037  0  0  -0.625949  0  2.283097  0  0  -0.655425  0  2.27519  0  0  -0.31534  -0.604954  0  2.287777  0
O  O61  1  0.03276517  0.64225426  0.59166958  1  0  -0.69472  0  2.042034  0  0  -0.625719  0  2.283159  0  0  -0.655187  0  2.275258  0  0  -0.315194  -0.604728  0  2.287841  0
O  O62  1  0.46729869  0.14229185  0.09170302  1  0  -0.694508  0  2.04229  0  0  -0.625562  0  2.283342  0  0  -0.655038  0  2.275441  0  0  -0.31515  -0.604561  0  2.288026  0
O  O63  1  0.96729929  0.35773817  0.40833684  1  0  -0.694783  0  2.041425  0  0  -0.625853  0  2.282782  0  0  -0.655327  0  2.274895  0  0  -0.31529  -0.604837  0  2.287412  0
O  O64  1  0.69513634  0.64926438  0.94964707  1  0  -0.604103  0  1.96032  0  0  -0.537736  0  2.193855  0  0  -0.567424  0  2.187193  0  0  -0.293916  -0.516879  0  2.197711  0
O  O65  1  0.19522758  0.85067827  0.55029078  1  0  -0.60401  0  1.96005  0  0  -0.537772  0  2.193949  0  0  -0.567467  0  2.187297  0  0  -0.294068  -0.51691  0  2.197794  0
O  O66  1  0.30484673  0.35073996  0.05035548  1  0  -0.60397  0  1.960622  0  0  -0.537595  0  2.194346  0  0  -0.567282  0  2.187683  0  0  -0.293963  -0.516736  0  2.198204  0
O  O67  1  0.80483107  0.14928731  0.44969074  1  0  -0.604359  0  1.960165  0  0  -0.537837  0  2.193903  0  0  -0.567525  0  2.187244  0  0  -0.294055  -0.516977  0  2.197749  0
