# generated using pymatgen
data_ZnH9C9NO3
_symmetry_space_group_name_H-M   'P 1'
_cell_length_a   8.10126857
_cell_length_b   10.45259012
_cell_length_c   10.71782321
_cell_angle_alpha   95.84893103
_cell_angle_beta   90.00644947
_cell_angle_gamma   112.80911070
_symmetry_Int_Tables_number   1
_chemical_formula_structural   ZnH9C9NO3
_chemical_formula_sum   'Zn4 H36 C36 N4 O12'
_cell_volume   831.47356152
_cell_formula_units_Z   4
loop_
 _symmetry_equiv_pos_site_id
 _symmetry_equiv_pos_as_xyz
  1  'x, y, z'
loop_
 _atom_site_type_symbol
 _atom_site_label
 _atom_site_symmetry_multiplicity
 _atom_site_fract_x
 _atom_site_fract_y
 _atom_site_fract_z
 _atom_site_occupancy
 _atom_site_pbe_bader_spin_density
 _atom_site_pbe_cm5_charge
 _atom_site_pbe_ddec_charge
 _atom_site_pbe_ddec_spin_density
 _atom_site_pbe_ddec_sum_bond_order
 _atom_site_pbe_magmom
Zn  Zn0  1  0.96470180  0.99996256  0.49992720  1  0  0.666208  0.861343  0  2.251393  0
Zn  Zn1  1  0.34630530  0.00001519  0.50001998  1  0  0.698055  0.932737  0  2.324295  0
Zn  Zn2  1  0.00551535  0.00004690  0.99998820  1  0  0.693148  0.937007  0  2.268421  0
Zn  Zn3  1  0.39028657  0.99998936  0.00001473  1  0  0.668406  0.855097  0  2.248159  0
H  H4  1  0.70273504  0.74296365  0.48254151  1  0  0.299017  0.287904  0  0.949395  0
H  H5  1  0.95976822  0.25693382  0.51741610  1  0  0.299221  0.288089  0  0.949034  0
H  H6  1  0.61359608  0.85955101  0.50015818  1  0  0.291766  0.284564  0  0.98539  0
H  H7  1  0.75398575  0.14036187  0.49970078  1  0  0.292076  0.284887  0  0.98549  0
H  H8  1  0.56382328  0.80318450  0.69951025  1  0  0.109707  0.077262  0  0.981435  0
H  H9  1  0.76073796  0.19690823  0.30038024  1  0  0.109972  0.07741  0  0.981859  0
H  H10  1  0.42816243  0.75351015  0.97423721  1  0  0.296747  0.282623  0  0.962073  0
H  H11  1  0.67474837  0.24644192  0.02583099  1  0  0.296805  0.282353  0  0.962148  0
H  H12  1  0.61248909  0.87691265  0.03980504  1  0  0.292153  0.284556  0  0.97326  0
H  H13  1  0.73560988  0.12304316  0.96023663  1  0  0.291943  0.284686  0  0.972762  0
H  H14  1  0.26450699  0.74619315  0.15493361  1  0  0.122626  0.09658  0  0.969106  0
H  H15  1  0.51838004  0.25379633  0.84513042  1  0  0.122467  0.095985  0  0.969026  0
H  H16  1  0.13070172  0.31998656  0.93062880  1  0  0.095585  0.106225  0  1.031389  0
H  H17  1  0.81063609  0.67999362  0.06940836  1  0  0.095606  0.106222  0  1.030986  0
H  H18  1  0.53267951  0.28879212  0.39986180  1  0  0.097155  0.108265  0  1.030351  0
H  H19  1  0.24400702  0.71114506  0.60011450  1  0  0.097038  0.108404  0  1.030092  0
H  H20  1  0.22397732  0.56242840  0.02326880  1  0  0.090435  0.081421  0  1.086949  0
H  H21  1  0.66147581  0.43752294  0.97679288  1  0  0.090353  0.08144  0  1.087733  0
H  H22  1  0.49716414  0.25826927  0.18423698  1  0  0.09831  0.113914  0  1.059394  0
H  H23  1  0.23877996  0.74184674  0.81580257  1  0  0.098575  0.114552  0  1.058779  0
H  H24  1  0.60422130  0.50692146  0.27070739  1  0  0.093502  0.089978  0  1.042668  0
H  H25  1  0.09728590  0.49316676  0.72944915  1  0  0.093599  0.089938  0  1.042372  0
H  H26  1  0.20608753  0.28426544  0.71586908  1  0  0.097567  0.114647  0  1.034574  0
H  H27  1  0.92185385  0.71566676  0.28409085  1  0  0.09728  0.113965  0  1.035819  0
H  H28  1  0.41822668  0.52341489  0.79670139  1  0  0.09263  0.092356  0  1.026719  0
H  H29  1  0.89473585  0.47652127  0.20322854  1  0  0.093057  0.09371  0  1.026593  0
H  H30  1  0.75040403  0.52457412  0.48312695  1  0  0.08876  0.083715  0  1.083545  0
H  H31  1  0.22574352  0.47535003  0.51686582  1  0  0.08847  0.083219  0  1.08381  0
H  H32  1  0.86687165  0.69794117  0.66285369  1  0  0.098527  0.115521  0  0.990894  0
H  H33  1  0.16903862  0.30210239  0.33726489  1  0  0.098695  0.115452  0  0.990427  0
H  H34  1  0.74342990  0.68864390  0.79928367  1  0  0.09312  0.1009  0  1.041044  0
H  H35  1  0.05507065  0.31134787  0.20072248  1  0  0.093054  0.100733  0  1.040922  0
H  H36  1  0.63266841  0.75220598  0.22839025  1  0  0.092037  0.09821  0  1.007922  0
H  H37  1  0.88055875  0.24787764  0.77167153  1  0  0.091825  0.098212  0  1.007805  0
H  H38  1  0.43965926  0.69288255  0.31715557  1  0  0.098215  0.108564  0  1.012959  0
H  H39  1  0.74680064  0.30715434  0.68293233  1  0  0.097786  0.108071  0  1.013147  0
C  C40  1  0.31013451  0.27216681  0.04854227  1  0  0.064051  0.321552  0  4.132133  0
C  C41  1  0.03784880  0.72789131  0.95147580  1  0  0.064125  0.320792  0  4.130217  0
C  C42  1  0.35268678  0.27199544  0.55031045  1  0  0.06239  0.318073  0  4.138569  0
C  C43  1  0.08079360  0.72797255  0.44961898  1  0  0.062093  0.31764  0  4.138743  0
C  C44  1  0.83450476  0.94069368  0.74953941  1  0  0.219988  0.588047  0  4.099903  0
C  C45  1  0.89378685  0.05933687  0.25035439  1  0  0.220335  0.58817  0  4.097532  0
C  C46  1  0.44213482  0.93205832  0.25222828  1  0  0.22414  0.590187  0  4.100296  0
C  C47  1  0.50997321  0.06798414  0.74782692  1  0  0.224449  0.588102  0  4.102838  0
C  C48  1  0.69766113  0.81412768  0.66837672  1  0  9.8e-05  0.053462  0  3.840369  0
C  C49  1  0.88358329  0.18587850  0.33152886  1  0  -0.000358  0.053497  0  3.839464  0
C  C50  1  0.41203105  0.79847300  0.16483110  1  0  0.000388  0.045027  0  3.862261  0
C  C51  1  0.61357928  0.20150328  0.83522137  1  0  -0.000169  0.046116  0  3.861498  0
C  C52  1  0.23603624  0.36139950  0.00473444  1  0  -0.116517  -0.219191  0  4.006793  0
C  C53  1  0.87452464  0.63861808  0.99527175  1  0  -0.116729  -0.218861  0  4.004907  0
C  C54  1  0.50755578  0.34246114  0.48593070  1  0  -0.117072  -0.216415  0  4.007756  0
C  C55  1  0.16518661  0.65750580  0.51402931  1  0  -0.116745  -0.216923  0  4.008006  0
C  C56  1  0.29206839  0.50012473  0.05731803  1  0  -0.104418  -0.134894  0  4.020708  0
C  C57  1  0.79186343  0.49986590  0.94272066  1  0  -0.104195  -0.135307  0  4.020692  0
C  C58  1  0.44481230  0.32781510  0.14508316  1  0  -0.118915  -0.232498  0  4.002358  0
C  C59  1  0.11691388  0.67228212  0.85495453  1  0  -0.118936  -0.232552  0  4.000846  0
C  C60  1  0.50156545  0.46700504  0.19471563  1  0  -0.096172  -0.110622  0  3.999958  0
C  C61  1  0.03453143  0.53307247  0.80538893  1  0  -0.096315  -0.111186  0  4.000256  0
C  C62  1  0.32171457  0.34035674  0.66259862  1  0  -0.117362  -0.223968  0  3.98185  0
C  C63  1  0.98141485  0.65956937  0.33733174  1  0  -0.117059  -0.222904  0  3.983049  0
C  C64  1  0.44244855  0.47462956  0.70734008  1  0  -0.098207  -0.117086  0  3.991962  0
C  C65  1  0.96782624  0.52529739  0.29257905  1  0  -0.098639  -0.119313  0  3.994012  0
C  C66  1  0.62756495  0.47548431  0.53236630  1  0  -0.104722  -0.134295  0  4.025251  0
C  C67  1  0.15208701  0.52448342  0.46759460  1  0  -0.104452  -0.133564  0  4.02549  0
C  C68  1  0.59727007  0.54500767  0.64346265  1  0  -0.030028  0.087554  0  3.987613  0
C  C69  1  0.05226672  0.45493587  0.35647905  1  0  -0.030294  0.087782  0  3.987993  0
C  C70  1  0.73384832  0.68508677  0.69687975  1  0  -0.162535  -0.24471  0  3.914631  0
C  C71  1  0.04887605  0.31490820  0.30311113  1  0  -0.162565  -0.244262  0  3.914329  0
C  C72  1  0.42634701  0.55600916  0.15302004  1  0  -0.028837  0.089172  0  3.977672  0
C  C73  1  0.87033962  0.44401203  0.84706720  1  0  -0.029332  0.089789  0  3.977027  0
C  C74  1  0.48500608  0.70164865  0.22042148  1  0  -0.16591  -0.244678  0  3.957666  0
C  C75  1  0.78339043  0.29836860  0.77966042  1  0  -0.16484  -0.244509  0  3.956845  0
N  N76  1  0.71397300  0.83415975  0.53388836  1  0  -0.616297  -0.587633  0  3.343773  0
N  N77  1  0.87977933  0.16577729  0.46601161  1  0  -0.616815  -0.588173  0  3.343185  0
N  N78  1  0.47536654  0.83855626  0.04003140  1  0  -0.622063  -0.588051  0  3.369945  0
N  N79  1  0.63686266  0.16140590  0.96001770  1  0  -0.621911  -0.588186  0  3.369257  0
O  O80  1  0.25266398  0.13677743  0.00021355  1  0  -0.364606  -0.586695  0  2.495509  0
O  O81  1  0.11580539  0.86328393  0.99985704  1  0  -0.364844  -0.586368  0  2.495664  0
O  O82  1  0.96104723  0.03217171  0.70110797  1  0  -0.294634  -0.51054  0  2.282482  0
O  O83  1  0.92889870  0.96786750  0.29876373  1  0  -0.2945  -0.510514  0  2.28111  0
O  O84  1  0.24296619  0.14039142  0.50554900  1  0  -0.369375  -0.593919  0  2.482966  0
O  O85  1  0.10263108  0.85953838  0.49438211  1  0  -0.36926  -0.593246  0  2.481522  0
O  O86  1  0.43302725  0.03511535  0.20630238  1  0  -0.296558  -0.522316  0  2.282851  0
O  O87  1  0.39760864  0.96498921  0.79372043  1  0  -0.297079  -0.521883  0  2.283491  0
O  O88  1  0.47051832  0.92919796  0.37003477  1  0  -0.326065  -0.568105  0  2.381594  0
O  O89  1  0.54127240  0.07084834  0.63004481  1  0  -0.325567  -0.566596  0  2.382421  0
O  O90  1  0.81016313  0.94165391  0.86879785  1  0  -0.331214  -0.577917  0  2.348541  0
O  O91  1  0.86844815  0.05838067  0.13109798  1  0  -0.331443  -0.577801  0  2.347996  0
