# generated using pymatgen
data_NiH5C5N5O3
_symmetry_space_group_name_H-M   'P 1'
_cell_length_a   8.01903406
_cell_length_b   8.01903985
_cell_length_c   13.99867240
_cell_angle_alpha   97.40316216
_cell_angle_beta   97.40323177
_cell_angle_gamma   116.71566751
_symmetry_Int_Tables_number   1
_chemical_formula_structural   NiH5C5N5O3
_chemical_formula_sum   'Ni4 H20 C20 N20 O12'
_cell_volume   779.45741782
_cell_formula_units_Z   4
loop_
 _symmetry_equiv_pos_site_id
 _symmetry_equiv_pos_as_xyz
  1  'x, y, z'
loop_
 _atom_site_type_symbol
 _atom_site_label
 _atom_site_symmetry_multiplicity
 _atom_site_fract_x
 _atom_site_fract_y
 _atom_site_fract_z
 _atom_site_occupancy
 _atom_site_hle17_ddec_charge
 _atom_site_hle17_ddec_spin_density
 _atom_site_hle17_ddec_sum_bond_order
 _atom_site_hle17_magmom
 _atom_site_hse06_10hf_bader_charge
 _atom_site_hse06_10hf_bader_spin_density
 _atom_site_hse06_10hf_ddec_charge
 _atom_site_hse06_10hf_ddec_spin_density
 _atom_site_hse06_10hf_ddec_sum_bond_order
 _atom_site_hse06_10hf_magmom
 _atom_site_hse06_ddec_charge
 _atom_site_hse06_ddec_spin_density
 _atom_site_hse06_ddec_sum_bond_order
 _atom_site_hse06_magmom
 _atom_site_pbe_cm5_charge
 _atom_site_pbe_ddec_charge
 _atom_site_pbe_ddec_spin_density
 _atom_site_pbe_ddec_sum_bond_order
 _atom_site_pbe_magmom
Ni  Ni0  1  0.91047153  0.69695896  0.73555110  1  0.769578  -1.718096  2.171515  -1.439  1.197389  -1.589274  0.789587  -1.785686  2.570102  -1.571  0.87988  -1.851646  2.495195  -1.67  0.665867  0.728765  -1.726587  2.621926  -1.484
Ni  Ni1  1  0.30304283  0.08953034  0.76445124  1  0.769597  -1.718104  2.171531  -1.439  1.197408  -1.58928  0.789622  -1.785696  2.570097  -1.571  0.879862  -1.851651  2.495271  -1.67  0.665875  0.728778  -1.726595  2.621949  -1.484
Ni  Ni2  1  0.08952212  0.30303883  0.26445005  1  0.769647  -1.718114  2.171627  -1.439  1.197227  -1.589284  0.789732  -1.785692  2.570174  -1.571  0.880075  -1.851649  2.495169  -1.67  0.665918  0.728888  -1.7266  2.62203  -1.484
Ni  Ni3  1  0.69695796  0.91047462  0.23555027  1  0.769648  -1.718121  2.17155  -1.439  1.197308  -1.589292  0.78978  -1.785699  2.570094  -1.571  0.880051  -1.851651  2.495216  -1.67  0.665907  0.728933  -1.726606  2.621946  -1.484
H  H4  1  0.71178201  0.52481165  0.55253801  1  0.440345  -2.2e-05  0.856008  0.0  0.658876  -0.000427  0.413221  -0.000516  0.914942  -0.001  0.424656  -0.000303  0.898371  0.0  0.2988  0.405204  -0.000722  0.926489  -0.001
H  H5  1  0.47519023  0.28821956  0.94746215  1  0.440337  -2.2e-05  0.856008  0.0  0.658877  -0.000427  0.41321  -0.000516  0.914948  -0.001  0.424646  -0.000303  0.898376  0.0  0.29879  0.405191  -0.000723  0.926499  -0.001
H  H6  1  0.28821795  0.47518619  0.44746147  1  0.440338  -2.2e-05  0.855993  0.0  0.659115  -0.000428  0.413216  -0.000516  0.914923  -0.001  0.42465  -0.000303  0.898355  0.0  0.29881  0.405198  -0.000723  0.926477  -0.001
H  H7  1  0.52481300  0.71178256  0.05253861  1  0.44036  -2.2e-05  0.855957  0.0  0.659124  -0.000428  0.413244  -0.000517  0.914877  -0.001  0.424678  -0.000303  0.898308  0.0  0.298827  0.405224  -0.000723  0.926431  -0.001
H  H8  1  0.62499662  0.38527281  0.62452543  1  0.417591  0.000138  0.883561  0.001  0.663434  -0.000287  0.391624  -0.000357  0.944792  0.0  0.403227  -9.5e-05  0.928117  0.0  0.293284  0.383559  -0.000623  0.956304  0.0
H  H9  1  0.61473069  0.37500660  0.87547643  1  0.41758  0.000138  0.883535  0.001  0.663383  -0.000287  0.391625  -0.000358  0.944772  0.0  0.403229  -9.6e-05  0.928097  0.0  0.293299  0.383564  -0.000623  0.956277  0.0
H  H10  1  0.37500535  0.61472930  0.37547596  1  0.417603  0.000138  0.883548  0.001  0.663405  -0.000287  0.391638  -0.000358  0.944774  0.0  0.403242  -9.5e-05  0.928098  0.0  0.293299  0.383572  -0.000623  0.956288  0.0
H  H11  1  0.38527002  0.62499552  0.12452414  1  0.417586  0.000138  0.883557  0.001  0.663435  -0.000286  0.391631  -0.000357  0.944779  0.0  0.403235  -9.5e-05  0.928102  0.0  0.293296  0.383561  -0.000623  0.956298  0.0
H  H12  1  0.13643667  0.55429516  0.62575157  1  0.110791  -0.001199  0.927976  -0.002  0.162458  -0.002547  0.114532  -0.001108  0.994375  -0.002  0.117718  -0.000756  0.991715  -0.001  0.131524  0.111869  -0.001488  0.996862  -0.002
H  H13  1  0.44570829  0.86356444  0.87424921  1  0.110786  -0.0012  0.927976  -0.002  0.162484  -0.002547  0.114507  -0.001108  0.99438  -0.002  0.117694  -0.000756  0.991719  -0.001  0.131508  0.111847  -0.001489  0.996863  -0.002
H  H14  1  0.86356395  0.44570409  0.37425093  1  0.110826  -0.001202  0.927953  -0.002  0.162507  -0.002548  0.114569  -0.001108  0.994352  -0.002  0.117755  -0.000757  0.991693  -0.001  0.13154  0.111903  -0.001489  0.996842  -0.002
H  H15  1  0.55429488  0.13643485  0.12574848  1  0.110851  -0.0012  0.927921  -0.002  0.162504  -0.002547  0.11455  -0.001108  0.994348  -0.002  0.117736  -0.000756  0.991688  -0.001  0.131539  0.111884  -0.001489  0.996835  -0.002
H  H16  1  0.07065807  0.22357379  0.89806724  1  0.105784  -0.001319  0.952988  -0.002  0.169555  -0.002681  0.105397  -0.001207  1.026161  -0.002  0.109044  -0.000893  1.023134  -0.001  0.12334  0.102366  -0.001533  1.029112  -0.002
H  H17  1  0.77642957  0.92934354  0.60193294  1  0.105878  -0.001318  0.952851  -0.002  0.169741  -0.002681  0.105479  -0.001206  1.026049  -0.002  0.109126  -0.000893  1.023022  -0.001  0.123356  0.102439  -0.001533  1.029006  -0.002
H  H18  1  0.92934157  0.77643404  0.10193154  1  0.105942  -0.001319  0.952789  -0.002  0.169695  -0.002681  0.10553  -0.001206  1.026001  -0.002  0.10918  -0.000893  1.02297  -0.001  0.123353  0.102475  -0.001533  1.028956  -0.002
H  H19  1  0.22356610  0.07065855  0.39806654  1  0.105888  -0.00132  0.952818  -0.002  0.169745  -0.002681  0.105493  -0.001207  1.026018  -0.002  0.109142  -0.000893  1.022989  -0.001  0.123349  0.102448  -0.001533  1.028974  -0.002
H  H20  1  0.94829084  0.46136136  0.88744774  1  0.11004  -0.001152  0.944959  -0.002  0.170424  -0.002223  0.114839  -0.001103  1.009492  -0.002  0.118526  -0.000786  1.005898  -0.001  0.129782  0.111848  -0.001441  1.01265  -0.002
H  H21  1  0.53863826  0.05170863  0.61255362  1  0.110005  -0.001153  0.945008  -0.002  0.169653  -0.002225  0.114832  -0.001103  1.009513  -0.002  0.118515  -0.000786  1.005917  -0.001  0.129775  0.11184  -0.00144  1.012675  -0.002
H  H22  1  0.05170349  0.53863787  0.11255142  1  0.110093  -0.001153  0.944942  -0.002  0.170478  -0.002224  0.114887  -0.001103  1.009454  -0.002  0.118582  -0.000786  1.005849  -0.001  0.129783  0.111862  -0.001441  1.012649  -0.002
H  H23  1  0.46136253  0.94829633  0.38744789  1  0.110093  -0.001152  0.944844  -0.002  0.170452  -0.002223  0.114882  -0.001103  1.009385  -0.002  0.118574  -0.000787  1.005781  -0.001  0.12978  0.111859  -0.001441  1.012581  -0.002
C  C24  1  0.31762935  0.33138063  0.62731337  1  0.61402  0.003524  3.931087  0.002  1.662253  -0.000436  0.563879  0.000172  4.232192  0.0  0.598019  8.9e-05  4.225986  0.0  0.211847  0.540467  0.000426  4.235827  0.0
C  C25  1  0.66861943  0.68236904  0.87268779  1  0.613942  0.003525  3.931131  0.002  1.662222  -0.000436  0.563798  0.000172  4.232234  0.0  0.597937  8.9e-05  4.226027  0.0  0.211832  0.540386  0.000426  4.235868  0.0
C  C26  1  0.68236549  0.66861435  0.37268409  1  0.613793  0.003522  3.931047  0.002  1.662175  -0.000436  0.563659  0.000171  4.232137  0.0  0.597802  8.9e-05  4.225928  0.0  0.211699  0.540235  0.000426  4.235779  0.0
C  C27  1  0.33137976  0.31762450  0.12731345  1  0.613798  0.003523  3.930902  0.002  1.66201  -0.000435  0.563655  0.000172  4.23204  0.0  0.597799  8.9e-05  4.225835  0.0  0.211758  0.540231  0.000426  4.235679  0.0
C  C28  1  0.19986350  0.35981336  0.69640050  1  0.047171  0.004097  3.723244  0.001  0.519431  0.000425  0.051446  0.001677  3.973883  0.0  0.050263  0.001488  3.991015  0.0  0.116966  0.050532  0.002525  3.965055  0.0
C  C29  1  0.64018828  0.80013807  0.80360240  1  0.047212  0.004085  3.723252  0.001  0.5192  0.000425  0.051501  0.001678  3.973857  0.0  0.050321  0.001488  3.990989  0.0  0.11698  0.050584  0.002525  3.965037  0.0
C  C30  1  0.80013576  0.64018302  0.30360240  1  0.047043  0.004095  3.723307  0.001  0.519188  0.000424  0.051412  0.001676  3.973983  0.0  0.05023  0.001486  3.991114  0.0  0.116985  0.050498  0.002524  3.965157  0.0
C  C31  1  0.35981554  0.19986262  0.19639901  1  0.047105  0.00411  3.723347  0.001  0.519304  0.000424  0.051433  0.001676  3.973966  0.0  0.050249  0.001486  3.9911  0.0  0.116956  0.050516  0.002523  3.965148  0.0
C  C32  1  0.12439459  0.48456618  0.68808519  1  0.096058  0.005061  3.635219  0.003  0.553565  0.000968  0.060384  0.002359  3.894126  0.001  0.066701  0.002494  3.908968  0.001  0.068607  0.055415  0.002371  3.886542  0.001
C  C33  1  0.51543318  0.87560436  0.81191300  1  0.09605  0.005079  3.635264  0.003  0.55357  0.000971  0.060416  0.00236  3.894116  0.001  0.066733  0.002494  3.908953  0.001  0.068633  0.055446  0.002371  3.88653  0.001
C  C34  1  0.87560091  0.51543021  0.31191457  1  0.096092  0.005074  3.635284  0.003  0.553673  0.000969  0.060419  0.00236  3.8941  0.001  0.066734  0.002493  3.908942  0.001  0.068576  0.055455  0.00237  3.886525  0.001
C  C35  1  0.48456890  0.12440063  0.18808504  1  0.095994  0.005051  3.635298  0.003  0.553254  0.00097  0.060416  0.00236  3.89411  0.001  0.066736  0.002494  3.90895  0.001  0.068558  0.055442  0.00237  3.886529  0.001
C  C36  1  0.08938293  0.30086137  0.83848629  1  0.103849  0.004637  3.615594  0.001  0.536678  -0.000126  0.078669  0.001066  3.872675  -0.001  0.083735  0.001132  3.885322  0.0  0.065672  0.074014  0.001347  3.866936  -0.001
C  C37  1  0.69913904  0.91061608  0.66151416  1  0.103749  0.004624  3.615475  0.001  0.536289  -0.000126  0.078594  0.001066  3.872578  -0.001  0.083653  0.001131  3.885229  0.0  0.065665  0.07395  0.001346  3.866834  -0.001
C  C38  1  0.91061207  0.69913928  0.16151446  1  0.103681  0.004642  3.615146  0.001  0.536439  -0.000125  0.078632  0.001067  3.872253  -0.001  0.083699  0.001132  3.884904  0.0  0.065707  0.074002  0.001347  3.866489  -0.001
C  C39  1  0.30085975  0.08938461  0.33848473  1  0.103753  0.004663  3.615308  0.001  0.536332  -0.000125  0.078618  0.001067  3.872427  -0.001  0.083681  0.001132  3.885079  0.0  0.065713  0.073975  0.001348  3.866681  -0.001
C  C40  1  0.02021146  0.43148544  0.83211598  1  0.098818  0.002829  3.584167  0.0  0.477678  -0.00123  0.070456  -0.000169  3.834886  -0.001  0.077095  4.8e-05  3.847374  -0.001  0.066247  0.064874  0.000293  3.82932  -0.002
C  C41  1  0.56851573  0.97978975  0.66788392  1  0.09887  0.002845  3.584106  0.0  0.47853  -0.001228  0.070454  -0.00017  3.834879  -0.001  0.077103  4.7e-05  3.847353  -0.001  0.066239  0.064871  0.000292  3.829311  -0.002
C  C42  1  0.97979300  0.56851666  0.16788916  1  0.098864  0.002833  3.584051  0.0  0.477945  -0.001229  0.070513  -0.000168  3.834687  -0.001  0.077146  4.9e-05  3.847166  -0.001  0.06632  0.064958  0.000295  3.829137  -0.002
C  C43  1  0.43148434  0.02021096  0.33211221  1  0.098806  0.002813  3.584071  0.0  0.47777  -0.001228  0.070474  -0.000168  3.83479  -0.001  0.077113  4.9e-05  3.847276  -0.001  0.066284  0.064908  0.000295  3.829242  -0.002
N  N44  1  0.18024783  0.26634540  0.77090836  1  -0.236853  -0.039857  3.300763  -0.064  -1.240716  -0.051982  -0.20315  -0.029724  3.5767  -0.049  -0.221972  -0.023579  3.593954  -0.041  -0.300884  -0.191881  -0.034004  3.567517  -0.053
N  N45  1  0.73365397  0.81975180  0.72909282  1  -0.236872  -0.039853  3.300824  -0.064  -1.240687  -0.051984  -0.203194  -0.029725  3.576793  -0.049  -0.222024  -0.023578  3.594044  -0.041  -0.300888  -0.191928  -0.034005  3.567609  -0.053
N  N46  1  0.81974791  0.73365953  0.22909420  1  -0.236706  -0.03986  3.300536  -0.064  -1.240652  -0.051983  -0.203335  -0.029724  3.576778  -0.049  -0.222162  -0.023578  3.594026  -0.041  -0.300963  -0.192069  -0.034002  3.567591  -0.053
N  N47  1  0.26633917  0.18025027  0.27090861  1  -0.236756  -0.039865  3.300574  -0.064  -1.240664  -0.051981  -0.203216  -0.029724  3.576671  -0.049  -0.222052  -0.023578  3.593917  -0.041  -0.300943  -0.191949  -0.034001  3.567492  -0.053
N  N48  1  0.03668091  0.52282701  0.75663185  1  -0.221602  -0.038844  3.254266  -0.062  -1.217264  -0.0505  -0.179335  -0.029292  3.534198  -0.047  -0.200327  -0.023144  3.551087  -0.04  -0.300696  -0.166765  -0.033948  3.525242  -0.053
N  N49  1  0.47717603  0.96332252  0.74336833  1  -0.22159  -0.038851  3.254277  -0.062  -1.217336  -0.0505  -0.179306  -0.029292  3.53419  -0.047  -0.20029  -0.023144  3.551071  -0.04  -0.300679  -0.16673  -0.033948  3.525229  -0.053
N  N50  1  0.96331961  0.47716938  0.24337185  1  -0.221725  -0.038846  3.254451  -0.062  -1.217374  -0.050498  -0.179424  -0.029292  3.534324  -0.047  -0.200415  -0.023144  3.551203  -0.04  -0.300757  -0.166875  -0.033947  3.52539  -0.053
N  N51  1  0.52282656  0.03667820  0.25662871  1  -0.221633  -0.038837  3.254382  -0.062  -1.217271  -0.050499  -0.179426  -0.029292  3.534316  -0.047  -0.200423  -0.023145  3.551212  -0.04  -0.300723  -0.16685  -0.033947  3.525352  -0.053
N  N52  1  0.08024546  0.87441910  0.65278996  1  -0.53143  -0.065127  2.891617  -0.107  -0.350785  -0.054943  -0.588257  -0.033721  3.270248  -0.059  -0.64034  -0.015189  3.285922  -0.037  -0.315838  -0.550377  -0.049962  3.257832  -0.076
N  N53  1  0.12558237  0.91975430  0.84721259  1  -0.531393  -0.065115  2.891497  -0.107  -0.350125  -0.05495  -0.58822  -0.033719  3.270119  -0.059  -0.640301  -0.015185  3.285791  -0.037  -0.315798  -0.550362  -0.049961  3.25775  -0.076
N  N54  1  0.91975780  0.12558304  0.34720795  1  -0.531791  -0.065201  2.891386  -0.107  -0.350859  -0.054994  -0.588686  -0.033754  3.270008  -0.059  -0.640797  -0.015219  3.285669  -0.037  -0.31599  -0.550791  -0.049993  3.257598  -0.076
N  N55  1  0.87441449  0.08024495  0.15278605  1  -0.531469  -0.065122  2.891488  -0.107  -0.349974  -0.054956  -0.588281  -0.033722  3.27004  -0.059  -0.640372  -0.015187  3.285702  -0.037  -0.3158  -0.550402  -0.049962  3.257638  -0.076
N  N56  1  0.11056878  0.84579539  0.57142619  1  0.391895  0.050115  4.142286  0.046  -0.342647  -0.004173  0.444068  0.007895  4.455792  0.007  0.465178  0.013855  4.490672  0.011  0.090079  0.429107  0.001964  4.429879  0.003
N  N57  1  0.15420466  0.88943339  0.92857503  1  0.391875  0.050138  4.142093  0.046  -0.3427  -0.004169  0.444051  0.0079  4.455592  0.007  0.465162  0.013859  4.490474  0.011  0.090055  0.429085  0.00197  4.42968  0.003
N  N58  1  0.88943063  0.15420667  0.42858072  1  0.392152  0.050069  4.142486  0.046  -0.342926  -0.0042  0.444405  0.007875  4.455872  0.007  0.465516  0.013832  4.490746  0.011  0.090227  0.429443  0.001947  4.429974  0.003
N  N59  1  0.84579481  0.11056873  0.07142331  1  0.391848  0.05014  4.14224  0.046  -0.342809  -0.004174  0.44403  0.007899  4.45575  0.007  0.465139  0.013859  4.490636  0.011  0.090003  0.42907  0.001968  4.429841  0.003
N  N60  1  0.14415699  0.82519454  0.49349577  1  -0.323317  -0.115769  2.370819  -0.158  0.029032  -0.119435  -0.348951  -0.064013  2.610609  -0.087  -0.35944  -0.054106  2.621914  -0.077  -0.164261  -0.339037  -0.07533  2.601477  -0.098
N  N61  1  0.17480584  0.85583967  0.00650610  1  -0.32331  -0.115801  2.370693  -0.158  0.028967  -0.11945  -0.348944  -0.064021  2.610474  -0.087  -0.359438  -0.054113  2.621778  -0.077  -0.164259  -0.339018  -0.07534  2.601336  -0.098
N  N62  1  0.85584434  0.17480618  0.50650046  1  -0.323224  -0.11568  2.371436  -0.158  0.029473  -0.119369  -0.348893  -0.063979  2.611176  -0.087  -0.359369  -0.054073  2.62247  -0.077  -0.164215  -0.339002  -0.075294  2.602066  -0.098
N  N63  1  0.82519346  0.14415676  0.99349108  1  -0.323216  -0.115806  2.370929  -0.158  0.029004  -0.119449  -0.348862  -0.064022  2.610697  -0.087  -0.359357  -0.054114  2.622003  -0.077  -0.164183  -0.338956  -0.075342  2.601574  -0.098
O  O64  1  0.41168927  0.24580599  0.65737504  1  -0.609462  -0.04456  2.098199  -0.074  -1.184082  -0.05778  -0.568257  -0.031884  2.352661  -0.055  -0.607421  -0.023478  2.345488  -0.043  -0.304595  -0.53949  -0.04  2.356262  -0.065
O  O65  1  0.75419637  0.58831062  0.84262503  1  -0.609481  -0.04456  2.09823  -0.074  -1.184008  -0.05778  -0.568271  -0.031884  2.352692  -0.055  -0.607444  -0.023478  2.34552  -0.043  -0.304614  -0.539507  -0.04  2.35629  -0.065
O  O66  1  0.58831891  0.75419330  0.34262731  1  -0.609308  -0.04455  2.098472  -0.074  -1.183939  -0.057766  -0.568098  -0.031879  2.352904  -0.055  -0.607271  -0.023475  2.345734  -0.043  -0.304481  -0.539318  -0.039993  2.356494  -0.065
O  O67  1  0.24581033  0.41168014  0.15737300  1  -0.609291  -0.044547  2.098414  -0.074  -1.183825  -0.057762  -0.568136  -0.031877  2.352902  -0.055  -0.607329  -0.023473  2.345742  -0.043  -0.30451  -0.53934  -0.039991  2.356476  -0.065
O  O68  1  0.32776583  0.39702612  0.55119272  1  -0.578694  -0.004039  1.989144  -0.007  -1.200869  -0.005565  -0.531175  -0.002458  2.211973  -0.005  -0.554149  -0.001053  2.202999  -0.002  -0.298852  -0.514767  -0.004308  2.217643  -0.007
O  O69  1  0.60298036  0.67223912  0.94881011  1  -0.578642  -0.004039  1.98918  -0.007  -1.200823  -0.005565  -0.531122  -0.002458  2.211996  -0.005  -0.554101  -0.001053  2.203035  -0.002  -0.298856  -0.514714  -0.004308  2.217662  -0.007
O  O70  1  0.67223525  0.60296881  0.44881521  1  -0.578727  -0.004039  1.98875  -0.007  -1.200763  -0.005565  -0.531196  -0.002458  2.211563  -0.005  -0.554176  -0.001053  2.202592  -0.002  -0.298893  -0.514787  -0.004309  2.217234  -0.007
O  O71  1  0.39703251  0.32776738  0.05118242  1  -0.578733  -0.004038  1.988657  -0.007  -1.200779  -0.005565  -0.531181  -0.002458  2.211457  -0.005  -0.55416  -0.001053  2.202482  -0.002  -0.298903  -0.514774  -0.004309  2.21713  -0.007
O  O72  1  0.74636800  0.48357465  0.61231609  1  -0.804603  -0.040407  1.976353  -0.066  -1.264598  -0.057771  -0.779023  -0.03192  2.181834  -0.053  -0.81041  -0.02407  2.147782  -0.043  -0.576906  -0.755712  -0.038968  2.204882  -0.061
O  O73  1  0.51642366  0.25363024  0.88768287  1  -0.804591  -0.04041  1.976353  -0.066  -1.264558  -0.057773  -0.779021  -0.031921  2.181876  -0.053  -0.810399  -0.024071  2.147829  -0.043  -0.576912  -0.755705  -0.03897  2.204924  -0.061
O  O74  1  0.25362869  0.51641890  0.38768212  1  -0.804608  -0.040408  1.976443  -0.066  -1.264794  -0.057771  -0.779025  -0.031922  2.181902  -0.053  -0.810419  -0.024071  2.147839  -0.043  -0.576908  -0.755715  -0.038968  2.204954  -0.061
O  O75  1  0.48357949  0.74636904  0.11231767  1  -0.804594  -0.040405  1.976412  -0.066  -1.264832  -0.057766  -0.779029  -0.031919  2.181882  -0.053  -0.810409  -0.024069  2.147828  -0.043  -0.576905  -0.75572  -0.038966  2.20494  -0.061
