# generated using pymatgen
data_CuH10C12N6O
_symmetry_space_group_name_H-M   'P 1'
_cell_length_a   6.82127075
_cell_length_b   13.36195279
_cell_length_c   14.63975450
_cell_angle_alpha   73.79364693
_cell_angle_beta   76.74610178
_cell_angle_gamma   75.26275519
_symmetry_Int_Tables_number   1
_chemical_formula_structural   CuH10C12N6O
_chemical_formula_sum   'Cu4 H40 C48 N24 O4'
_cell_volume   1221.04412098
_cell_formula_units_Z   4
loop_
 _symmetry_equiv_pos_site_id
 _symmetry_equiv_pos_as_xyz
  1  'x, y, z'
loop_
 _atom_site_type_symbol
 _atom_site_label
 _atom_site_symmetry_multiplicity
 _atom_site_fract_x
 _atom_site_fract_y
 _atom_site_fract_z
 _atom_site_occupancy
 _atom_site_hle17_ddec_charge
 _atom_site_hle17_ddec_spin_density
 _atom_site_hle17_ddec_sum_bond_order
 _atom_site_hle17_magmom
 _atom_site_hse06_10hf_ddec_charge
 _atom_site_hse06_10hf_ddec_spin_density
 _atom_site_hse06_10hf_ddec_sum_bond_order
 _atom_site_hse06_10hf_magmom
 _atom_site_hse06_ddec_charge
 _atom_site_hse06_ddec_spin_density
 _atom_site_hse06_ddec_sum_bond_order
 _atom_site_hse06_magmom
 _atom_site_pbe_bader_charge
 _atom_site_pbe_bader_spin_density
 _atom_site_pbe_cm5_charge
 _atom_site_pbe_ddec_charge
 _atom_site_pbe_ddec_spin_density
 _atom_site_pbe_ddec_sum_bond_order
 _atom_site_pbe_magmom
Cu  Cu0  1  0.02550662  0.75224214  0.75933018  1  0.731064  0.715904  1.993865  0.519  0.681999  0.787017  2.394282  0.619  0.753374  0.863677  2.341486  0.696  1.064089  0.553726  0.808576  0.638597  0.711243  2.430157  0.551
Cu  Cu1  1  0.53701643  0.74748571  0.74069049  1  0.730678  -0.715561  1.9945  -0.519  0.682338  -0.786696  2.394033  -0.619  0.7535  -0.863352  2.341561  -0.697  1.064051  -0.553995  0.809051  0.63892  -0.710992  2.429966  -0.551
Cu  Cu2  1  0.97450389  0.24775846  0.24066780  1  0.730929  -0.715907  1.993943  -0.519  0.681893  -0.787005  2.394197  -0.619  0.753249  -0.863672  2.341536  -0.696  1.06399  -0.553743  0.808528  0.63852  -0.711253  2.430108  -0.551
Cu  Cu3  1  0.46299555  0.25250931  0.25931241  1  0.730815  0.715558  1.994333  0.519  0.682545  0.786691  2.393931  0.619  0.75367  0.86334  2.341399  0.697  1.064011  0.55396  0.809109  0.639097  0.710956  2.42986  0.551
H  H4  1  0.24245547  0.95435005  0.67650223  1  0.407757  3.8e-05  0.875759  0.0  0.385473  1.1e-05  0.942918  0.0  0.394617  1.1e-05  0.930021  0.0  0.630587  -1e-06  0.29272  0.379259  9e-06  0.951728  0.0
H  H5  1  0.87310213  0.54542397  0.82348677  1  0.407441  -4e-05  0.876472  0.0  0.385357  -1.1e-05  0.943279  0.0  0.394472  -1.2e-05  0.930412  0.0  0.631909  2e-06  0.292649  0.379162  -1e-05  0.95207  0.0
H  H6  1  0.75754239  0.04564657  0.32350327  1  0.407736  -3.8e-05  0.87581  0.0  0.385464  -1.1e-05  0.942943  0.0  0.394607  -1.1e-05  0.930046  0.0  0.630579  1e-06  0.292728  0.379248  -9e-06  0.951756  0.0
H  H7  1  0.12689899  0.45457822  0.17651210  1  0.407416  3.9e-05  0.876492  0.0  0.385333  1.1e-05  0.943305  0.0  0.394449  1.2e-05  0.930437  0.0  0.631782  -2e-06  0.292643  0.379138  1e-05  0.952095  0.0
H  H8  1  0.21285020  0.88799811  0.60802483  1  0.402826  -7.9e-05  0.889753  0.0  0.370809  -4.7e-05  0.969935  0.0  0.382239  -4.4e-05  0.953128  0.0  0.637513  4.6e-05  0.291791  0.362932  -4.7e-05  0.981559  0.0
H  H9  1  0.71023363  0.61160954  0.89205969  1  0.403511  7.4e-05  0.88744  0.0  0.371699  4.4e-05  0.968349  0.0  0.383088  4.2e-05  0.951601  0.0  0.629165  -4.9e-05  0.292608  0.363837  4.5e-05  0.97995  0.0
H  H10  1  0.78715398  0.11200488  0.39197351  1  0.402821  7.8e-05  0.889783  0.0  0.370791  4.6e-05  0.969977  0.0  0.38222  4.4e-05  0.95317  0.0  0.637506  -4.6e-05  0.291778  0.362916  4.7e-05  0.981596  0.0
H  H11  1  0.28977300  0.38838708  0.10794459  1  0.403526  -7.4e-05  0.887458  0.0  0.37166  -4.4e-05  0.968453  0.0  0.383054  -4.2e-05  0.951699  0.0  0.62919  4.8e-05  0.292564  0.363798  -4.5e-05  0.980052  0.0
H  H12  1  0.44187626  0.78711251  0.51228214  1  0.108044  -0.000104  0.97996  0.0  0.11153  -0.000117  1.052489  0.0  0.11475  -6.9e-05  1.050704  0.0  0.091516  -0.000263  0.10319  0.109206  -0.00015  1.053825  0.0
H  H13  1  0.74314688  0.71301098  0.98736252  1  0.108494  0.000102  0.978193  0.0  0.111509  0.000117  1.05144  0.0  0.114641  6.9e-05  1.049824  0.0  0.095881  0.00026  0.103337  0.109199  0.000149  1.052755  0.0
H  H14  1  0.55812532  0.21288490  0.48772369  1  0.108079  0.0001  0.979892  0.0  0.111546  0.000117  1.052451  0.0  0.114771  6.9e-05  1.050652  0.0  0.091517  0.000263  0.103201  0.109223  0.00015  1.053786  0.0
H  H15  1  0.25684907  0.28698564  0.01263585  1  0.108481  -0.000101  0.97816  0.0  0.111526  -0.000116  1.051387  0.0  0.114626  -6.9e-05  1.049797  0.0  0.095938  -0.00026  0.103334  0.109214  -0.000149  1.052702  0.0
H  H16  1  0.52620201  0.83612639  0.33223836  1  0.088127  0.0001  0.955435  0.0  0.099524  5.6e-05  1.016581  0.0  0.102  4e-05  1.016263  0.0  0.091991  0.000137  0.098717  0.097737  6.7e-05  1.016952  0.0
H  H17  1  0.69830750  0.66391988  0.16737553  1  0.089197  -0.0001  0.953852  0.0  0.100248  -5.5e-05  1.015363  0.0  0.102734  -4e-05  1.014996  0.0  0.095328  -0.000138  0.098793  0.09844  -6.6e-05  1.015774  0.0
H  H18  1  0.47378467  0.16386784  0.66776921  1  0.088158  -9.8e-05  0.955371  0.0  0.099505  -5.6e-05  1.01658  0.0  0.10198  -4.1e-05  1.016263  0.0  0.092025  -0.000137  0.098729  0.097718  -6.7e-05  1.01695  0.0
H  H19  1  0.30167250  0.33608470  0.83262339  1  0.089245  0.000104  0.953851  0.0  0.100291  5.5e-05  1.015339  0.0  0.102781  4e-05  1.014977  0.0  0.095448  0.000137  0.098799  0.098483  6.6e-05  1.01575  0.0
H  H20  1  0.86063499  0.88174828  0.24877582  1  0.091447  0.000106  0.978644  0.0  0.100937  2.4e-05  1.043395  0.0  0.10318  2.2e-05  1.043529  0.0  0.051297  9.7e-05  0.098759  0.0993  2.5e-05  1.043477  0.0
H  H21  1  0.99556143  0.61811331  0.25121351  1  0.091032  -0.00011  0.978506  0.0  0.100013  -2.7e-05  1.043965  0.0  0.102269  -2.4e-05  1.044086  0.0  0.097901  -0.000104  0.098406  0.098389  -2.7e-05  1.044015  0.0
H  H22  1  0.13934406  0.11824675  0.75122533  1  0.091425  -0.000105  0.978727  0.0  0.10092  -2.4e-05  1.043469  0.0  0.103167  -2.2e-05  1.043606  0.0  0.051779  -9.7e-05  0.098766  0.099283  -2.5e-05  1.043551  0.0
H  H23  1  0.00441043  0.38189127  0.74879054  1  0.09111  0.000108  0.978518  0.0  0.100061  2.7e-05  1.044026  0.0  0.102329  2.4e-05  1.044115  0.0  0.097922  0.000104  0.098402  0.098436  2.7e-05  1.044076  0.0
H  H24  1  0.12220103  0.88778954  0.33910718  1  0.111355  -0.000302  0.943049  0.0  0.122789  -0.000222  0.999116  0.0  0.125466  -0.000155  0.998636  0.0  0.120088  -0.000517  0.107067  0.120872  -0.000265  0.999596  0.0
H  H25  1  0.35238804  0.61183562  0.16121814  1  0.112371  0.000304  0.941921  0.0  0.123893  0.000222  0.997784  0.0  0.126563  0.000155  0.997307  0.0  0.104791  0.000522  0.107438  0.121969  0.000265  0.998284  0.0
H  H26  1  0.87779205  0.11220947  0.66088355  1  0.111355  0.000305  0.943033  0.0  0.122774  0.000222  0.999112  0.0  0.125448  0.000154  0.998633  0.0  0.120052  0.000518  0.107063  0.12086  0.000265  0.999589  0.0
H  H27  1  0.64759047  0.38816896  0.83879133  1  0.11241  -0.000304  0.941941  0.0  0.123901  -0.000222  0.997837  0.0  0.126569  -0.000155  0.997364  0.0  0.104877  -0.000522  0.107451  0.121977  -0.000265  0.998336  0.0
H  H28  1  0.07123715  0.94186792  0.86931252  1  0.110453  8.9e-05  0.974466  0.0  0.109798  0.000109  1.053831  0.0  0.113335  6.1e-05  1.051886  0.0  0.120086  0.00024  0.100895  0.107176  0.000135  1.055425  0.0
H  H29  1  0.88119190  0.55878734  0.63067473  1  0.109239  -8.6e-05  0.974078  0.0  0.10818  -0.000105  1.054257  0.0  0.111793  -5.9e-05  1.052237  0.0  0.115449  -0.000236  0.100298  0.105483  -0.000133  1.055918  0.0
H  H30  1  0.92877413  0.05813746  0.13068783  1  0.110586  -8.3e-05  0.974354  0.0  0.109887  -0.000109  1.053789  0.0  0.113432  -6e-05  1.051837  0.0  0.12017  -0.00024  0.100926  0.107236  -0.000135  1.055413  0.0
H  H31  1  0.11881783  0.44120848  0.36932241  1  0.10931  8.3e-05  0.974011  0.0  0.108226  0.000105  1.054204  0.0  0.111847  5.9e-05  1.052176  0.0  0.115772  0.000236  0.100328  0.10553  0.000132  1.055866  0.0
H  H32  1  0.93430208  0.10270537  0.93706926  1  0.086254  -0.000143  0.957823  0.0  0.098333  -7.1e-05  1.017863  0.0  0.100396  -5.3e-05  1.018092  0.0  0.083574  -0.000164  0.096611  0.096826  -8.3e-05  1.017863  0.0
H  H33  1  0.97272027  0.39803844  0.56279219  1  0.085255  0.00014  0.957358  0.0  0.097604  7e-05  1.017119  0.0  0.099632  5.3e-05  1.017401  0.0  0.095794  0.000161  0.096483  0.096068  8.2e-05  1.017138  0.0
H  H34  1  0.06570723  0.89730160  0.06293060  1  0.086284  0.00014  0.957838  0.0  0.098318  7.1e-05  1.01791  0.0  0.10038  5.3e-05  1.018139  0.0  0.083731  0.000163  0.096626  0.096812  8.3e-05  1.017909  0.0
H  H35  1  0.02727580  0.60196136  0.43720261  1  0.08526  -0.00014  0.957358  0.0  0.097654  -7.1e-05  1.017076  0.0  0.099646  -5.3e-05  1.017401  0.0  0.095772  -0.000161  0.096513  0.0961  -8.2e-05  1.017115  0.0
H  H36  1  0.56910083  0.19109131  0.94856432  1  0.085981  -0.000127  0.980048  0.0  0.093475  -4.5e-05  1.048583  0.0  0.095725  -2.2e-05  1.048307  0.0  0.076997  -0.000135  0.094505  0.091884  -6.2e-05  1.048803  0.0
H  H37  1  0.70809560  0.30890023  0.55134121  1  0.084942  0.000123  0.980323  0.0  0.092381  4.3e-05  1.049189  0.0  0.0946  2e-05  1.048972  0.0  0.036779  0.000134  0.094173  0.090792  6.1e-05  1.049418  0.0
H  H38  1  0.43090718  0.80891565  0.05143231  1  0.085972  0.000126  0.980153  0.0  0.093436  4.5e-05  1.048709  0.0  0.095679  2.2e-05  1.048455  0.0  0.077197  0.000134  0.094517  0.091844  6.2e-05  1.048929  0.0
H  H39  1  0.29189211  0.69110196  0.44865446  1  0.084904  -0.000124  0.980388  0.0  0.092288  -4.3e-05  1.049334  0.0  0.094507  -2e-05  1.049119  0.0  0.0372  -0.000134  0.094103  0.0907  -6e-05  1.049561  0.0
H  H40  1  0.31863422  0.12370450  0.89331543  1  0.099839  0.000284  0.964147  0.0  0.110085  0.000222  1.026746  0.0  0.112244  0.000154  1.026755  0.0  0.082314  0.000517  0.100599  0.108504  0.000264  1.026932  0.0
H  H41  1  0.33568965  0.37552283  0.60672473  1  0.100086  -0.000283  0.96506  0.0  0.110688  -0.00022  1.027037  0.0  0.112903  -0.000152  1.026966  0.0  0.075673  -0.000516  0.100763  0.109087  -0.000262  1.027228  0.0
H  H42  1  0.68137863  0.87629531  0.10668220  1  0.0999  -0.000284  0.964206  0.0  0.110149  -0.000222  1.026788  0.0  0.112309  -0.000154  1.026796  0.0  0.082203  -0.000517  0.100625  0.108566  -0.000264  1.026974  0.0
H  H43  1  0.66429998  0.62447776  0.39327604  1  0.100128  0.000284  0.965084  0.0  0.110705  0.00022  1.027082  0.0  0.112918  0.000152  1.027017  0.0  0.07572  0.000516  0.10077  0.109104  0.000262  1.027272  0.0
C  C44  1  0.73950413  0.80843086  0.52648850  1  0.134472  0.000778  3.805832  0.001  0.136785  -0.000184  4.04573  0.0  0.140793  0.000189  4.068684  0.0  0.384643  -0.000384  0.095003  0.134578  -0.000408  4.030305  0.0
C  C45  1  0.07613039  0.69149680  0.97346230  1  0.136832  -0.000781  3.80589  -0.001  0.13875  0.00017  4.045381  0.0  0.142822  -0.000198  4.068336  0.0  0.359564  0.000314  0.095451  0.13651  0.000398  4.029964  0.0
C  C46  1  0.26049921  0.19156576  0.47351002  1  0.134557  -0.000781  3.805872  -0.001  0.136858  0.000184  4.045759  0.0  0.140864  -0.00019  4.068714  0.0  0.384909  0.000383  0.0951  0.13465  0.000408  4.030338  0.001
C  C47  1  0.92386490  0.30850300  0.02654083  1  0.136804  0.000798  3.805999  0.001  0.138691  -0.00017  4.045538  0.0  0.142765  0.000197  4.068484  0.0  0.359573  -0.00031  0.095466  0.136451  -0.000395  4.030117  0.0
C  C48  1  0.58876717  0.80811641  0.47530081  1  -0.132148  -0.001803  3.729647  -0.001  -0.151118  -0.00034  3.978281  0.0  -0.154018  -0.000501  3.997725  0.0  0.045377  -0.000476  -0.089925  -0.149224  -0.000228  3.965246  0.0
C  C49  1  0.87442944  0.69195692  0.02443649  1  -0.133572  0.001834  3.727741  0.002  -0.152017  0.000348  3.976493  0.0  -0.154934  0.000503  3.995997  0.0  -0.015999  0.000487  -0.090712  -0.15011  0.00025  3.963438  0.0
C  C50  1  0.41123144  0.19188020  0.52469942  1  -0.132261  0.001844  3.729666  0.002  -0.151219  0.000341  3.978295  0.0  -0.154119  0.000501  3.997744  0.0  0.04519  0.000474  -0.090047  -0.149327  0.000227  3.965267  0.0
C  C51  1  0.12556355  0.30804367  0.97556392  1  -0.133501  -0.001846  3.727714  -0.002  -0.151974  -0.000348  3.976464  0.0  -0.15486  -0.0005  3.995994  0.0  -0.015977  -0.000487  -0.090692  -0.150067  -0.00025  3.963407  0.0
C  C52  1  0.63700324  0.83578966  0.37554857  1  -0.065176  0.000478  3.76977  0.001  -0.082084  5.9e-05  4.022113  0.0  -0.083455  0.000119  4.043109  0.0  -0.109356  6.2e-05  -0.094492  -0.081127  2.7e-05  4.007925  0.0
C  C53  1  0.85153551  0.66422318  0.12419503  1  -0.066799  -0.000457  3.768479  -0.001  -0.083495  -6e-05  4.020847  0.0  -0.084836  -0.000119  4.041791  0.0  -0.02201  -3.4e-05  -0.094519  -0.082539  -1.8e-05  4.006674  0.0
C  C54  1  0.36298869  0.16420855  0.62445134  1  -0.065122  -0.00051  3.769578  -0.001  -0.081989  -6e-05  4.02193  0.0  -0.083362  -0.000119  4.042935  0.0  -0.109283  -6.1e-05  -0.094389  -0.081031  -2.6e-05  4.007744  0.0
C  C55  1  0.14845112  0.33577822  0.87580524  1  -0.066966  0.000455  3.76847  0.001  -0.083647  6e-05  4.020829  0.0  -0.084996  0.000116  4.041776  0.0  -0.021852  3.4e-05  -0.094553  -0.082693  1.9e-05  4.006658  0.0
C  C56  1  0.82873322  0.86298129  0.32729441  1  -0.096527  -0.002641  3.802876  -0.002  -0.110079  -0.000872  4.052527  -0.001  -0.112827  -0.001052  4.074472  -0.001  0.028275  -0.001133  -0.097628  -0.1082  -0.000731  4.037715  -0.001
C  C57  1  0.02255962  0.63689224  0.17267091  1  -0.096403  0.002645  3.799575  0.002  -0.109267  0.000863  4.048869  0.001  -0.112082  0.00104  4.070874  0.001  -0.038815  0.001111  -0.098361  -0.10734  0.000715  4.03399  0.001
C  C58  1  0.17124896  0.13701612  0.67270367  1  -0.096654  0.002657  3.802707  0.002  -0.110213  0.000872  4.052375  0.001  -0.112969  0.001053  4.074325  0.001  0.027898  0.001133  -0.097738  -0.108334  0.000731  4.037567  0.001
C  C59  1  0.97741298  0.36311394  0.82733144  1  -0.096257  -0.002639  3.79956  -0.002  -0.109099  -0.000863  4.048784  -0.001  -0.111914  -0.001039  4.0708  -0.001  -0.038737  -0.00111  -0.098266  -0.10717  -0.000715  4.033905  -0.001
C  C60  1  0.97610120  0.86636851  0.37726318  1  -0.136451  0.000616  3.744213  0.001  -0.151224  0.000258  3.986293  0.001  -0.15308  0.000403  4.005573  0.001  -0.121584  0.000192  -0.088651  -0.149962  9.9e-05  3.97329  0.0
C  C61  1  0.22268436  0.63332273  0.12291935  1  -0.136497  -0.000582  3.743233  -0.001  -0.151631  -0.000247  3.985051  -0.001  -0.153468  -0.000394  4.00438  -0.001  -0.09973  -0.000206  -0.087755  -0.150389  -0.000105  3.972005  0.0
C  C62  1  0.02389081  0.13362970  0.62273062  1  -0.136222  -0.000643  3.744036  -0.001  -0.151029  -0.000256  3.986093  -0.001  -0.152878  -0.000404  4.005373  -0.001  -0.121587  -0.000192  -0.088538  -0.149766  -0.0001  3.973092  0.0
C  C63  1  0.77729514  0.36667946  0.87708756  1  -0.136646  0.000588  3.74337  0.001  -0.151764  0.000247  3.985199  0.001  -0.153602  0.000393  4.004532  0.001  -0.099961  0.000206  -0.087817  -0.150527  0.000105  3.972152  0.0
C  C64  1  0.92921720  0.83897945  0.47884793  1  0.117729  -0.000981  3.82478  0.0  0.119473  -0.000155  4.069414  0.0  0.12042  -0.000429  4.090602  0.0  0.39858  -0.000484  0.089258  0.118739  0.0001  4.055023  0.001
C  C65  1  0.24904613  0.66076193  0.02132296  1  0.115916  0.000926  3.827561  0.0  0.118297  0.000128  4.071637  0.0  0.119189  0.000412  4.092844  0.0  0.393753  0.000423  0.088632  0.117616  -0.000111  4.057211  -0.001
C  C66  1  0.07078558  0.16101876  0.52114566  1  0.117604  0.000983  3.824827  0.0  0.119483  0.000155  4.069284  0.0  0.120423  0.000431  4.090482  0.0  0.398466  0.000485  0.089248  0.118748  -0.0001  4.054897  -0.001
C  C67  1  0.75094507  0.33923787  0.97868426  1  0.115913  -0.000941  3.827517  0.0  0.118307  -0.000129  4.071581  0.0  0.119198  -0.00041  4.092791  0.0  0.393701  -0.000424  0.088631  0.117632  0.000111  4.057146  0.001
C  C68  1  0.76654488  0.94197538  0.84404998  1  0.129013  -0.000212  3.82062  0.0  0.128188  0.000522  4.06625  0.001  0.133158  0.000172  4.088864  0.0  0.382238  0.000675  0.089969  0.125404  0.000706  4.050979  0.001
C  C69  1  0.55201587  0.55799765  0.65588100  1  0.125954  0.000231  3.821851  0.0  0.124554  -0.000508  4.06871  -0.001  0.129436  -0.000166  4.091426  0.0  0.344582  -0.00064  0.088327  0.121846  -0.000687  4.053349  -0.001
C  C70  1  0.23346630  0.05802522  0.15594885  1  0.128844  0.000228  3.820634  0.0  0.12802  -0.000522  4.066322  -0.001  0.132992  -0.000173  4.088942  0.0  0.381337  -0.000675  0.089848  0.125239  -0.000705  4.05104  -0.001
C  C71  1  0.44798718  0.44200135  0.34411938  1  0.126039  -0.000242  3.821765  0.0  0.124682  0.00051  4.06858  0.001  0.129556  0.000164  4.091295  0.0  0.345797  0.000641  0.088384  0.121972  0.000687  4.053223  0.001
C  C72  1  0.90856048  0.97997266  0.87503019  1  -0.147892  0.002104  3.736562  0.002  -0.165283  0.000201  3.991455  0.0  -0.169386  0.000292  4.011154  0.0  -0.093956  0.000392  -0.094106  -0.162579  0.000167  3.978248  0.0
C  C73  1  0.76255164  0.52045015  0.62487967  1  -0.145908  -0.002146  3.736817  -0.002  -0.16294  -0.000197  3.992272  0.0  -0.167061  -0.000286  4.011877  0.0  -0.032963  -0.000382  -0.092966  -0.160196  -0.000162  3.979118  0.0
C  C74  1  0.09144944  0.02003112  0.12496796  1  -0.147948  -0.002161  3.736534  -0.002  -0.16527  -0.000201  3.991325  0.0  -0.169381  -0.000292  4.011016  0.0  -0.093916  -0.000392  -0.094089  -0.162541  -0.000168  3.97813  0.0
C  C75  1  0.23745340  0.47954727  0.37511969  1  -0.146012  0.002167  3.736872  0.002  -0.163039  0.000196  3.992362  0.0  -0.167165  0.000287  4.011952  0.0  -0.03356  0.00038  -0.093003  -0.160295  0.00016  3.979207  0.0
C  C76  1  0.83112531  0.07032426  0.91137854  1  -0.065961  -3.4e-05  3.759935  0.0  -0.080601  0.000111  4.011082  0.0  -0.081412  0.000126  4.032652  0.0  -0.025603  0.000157  -0.094455  -0.079872  9.4e-05  3.996297  0.0
C  C77  1  0.81183650  0.43012342  0.58844402  1  -0.063704  1.2e-05  3.759542  0.0  -0.078491  -0.000125  4.010698  0.0  -0.079256  -0.000137  4.032225  0.0  -0.043014  -0.000162  -0.093705  -0.077758  -0.000109  3.995992  0.0
C  C78  1  0.16888526  0.92967793  0.08861842  1  -0.065967  7.8e-05  3.759827  0.0  -0.080569  -0.000111  4.01098  0.0  -0.081376  -0.000127  4.032546  0.0  -0.025884  -0.000156  -0.094457  -0.07984  -9.4e-05  3.996191  0.0
C  C79  1  0.18815921  0.56987558  0.41155163  1  -0.063675  -2.5e-05  3.759593  0.0  -0.078507  0.000126  4.010734  0.0  -0.079246  0.000137  4.032273  0.0  -0.042939  0.000163  -0.093703  -0.077759  0.00011  3.996026  0.0
C  C80  1  0.62083873  0.12196671  0.91720266  1  -0.076171  0.002643  3.780601  0.002  -0.094848  0.00074  4.039397  0.001  -0.097964  0.000883  4.062692  0.001  -0.01719  0.000991  -0.099187  -0.09267  0.000631  4.023449  0.001
C  C81  1  0.65934318  0.37804633  0.58267955  1  -0.075823  -0.002634  3.778974  -0.002  -0.094669  -0.000737  4.038379  -0.001  -0.097804  -0.000879  4.061715  -0.001  -0.051074  -0.000984  -0.098933  -0.092488  -0.000625  4.022416  -0.001
C  C82  1  0.37917428  0.87803787  0.08279192  1  -0.07619  -0.00266  3.780653  -0.002  -0.094856  -0.000741  4.039494  -0.001  -0.097973  -0.000883  4.06278  -0.001  -0.017173  -0.00099  -0.099215  -0.092679  -0.00063  4.023548  -0.001
C  C83  1  0.34065054  0.62195427  0.41731713  1  -0.075777  0.002655  3.778986  0.002  -0.094578  0.000737  4.03837  0.001  -0.097711  0.000879  4.061693  0.001  -0.05132  0.000984  -0.098911  -0.092395  0.000625  4.022398  0.001
C  C84  1  0.48063646  0.08509505  0.88672895  1  -0.132717  0.000222  3.756001  0.0  -0.150771  -0.000154  4.00177  0.0  -0.152506  -0.000289  4.022866  -0.001  -0.012171  -3.7e-05  -0.092529  -0.149507  -1.7e-05  3.987427  0.0
C  C85  1  0.45222154  0.41446344  0.61325597  1  -0.132644  -0.000144  3.754077  0.0  -0.15052  0.00017  3.999478  0.0  -0.152332  0.000297  4.020532  0.001  0.005361  6.4e-05  -0.091867  -0.149198  3.4e-05  3.985194  0.0
C  C86  1  0.51937987  0.91490793  0.11326630  1  -0.132795  -0.000197  3.756115  0.0  -0.15084  0.000154  4.00187  0.0  -0.152573  0.00029  4.022966  0.001  -0.012243  3.6e-05  -0.092528  -0.149574  1.7e-05  3.987525  0.0
C  C87  1  0.54777416  0.58553716  0.38674325  1  -0.132741  0.00012  3.754156  0.0  -0.150588  -0.00017  3.999553  0.0  -0.152408  -0.000297  4.020597  -0.001  0.005194  -6.4e-05  -0.091876  -0.149265  -3.4e-05  3.985269  0.0
C  C88  1  0.55571899  0.99350877  0.84983230  1  0.105005  0.000273  3.848329  -0.001  0.112117  -3.9e-05  4.090216  -0.001  0.112387  0.000276  4.111274  0.0  0.356278  0.000111  0.088548  0.11181  -0.000337  4.075812  -0.001
C  C89  1  0.39881835  0.50609489  0.65012661  1  0.105739  -0.000279  3.846311  0.001  0.112266  5.8e-05  4.089236  0.001  0.112596  -0.000257  4.110218  0.0  0.401212  -4e-05  0.087477  0.111884  0.000359  4.074935  0.001
C  C90  1  0.44429689  0.00649183  0.15016634  1  0.105182  -0.000279  3.848212  0.001  0.112295  3.9e-05  4.0901  0.001  0.112558  -0.000277  4.111176  0.0  0.356658  -0.000113  0.088616  0.111988  0.000336  4.075694  0.001
C  C91  1  0.60118204  0.49390571  0.34987395  1  0.105769  0.000299  3.846295  -0.001  0.112261  -6e-05  4.089257  -0.001  0.112614  0.00026  4.110209  0.0  0.401176  4e-05  0.087494  0.111879  -0.000359  4.074957  -0.001
N  N92  1  0.92693711  0.79518690  0.63186382  1  -0.034991  0.077537  3.335985  0.098  -0.012293  0.055312  3.661486  0.075  -0.02428  0.048475  3.683099  0.068  -0.177131  0.082272  -0.134582  -0.005452  0.057045  3.648632  0.075
N  N93  1  0.35472873  0.70444861  0.86836911  1  -0.035673  -0.077578  3.333849  -0.098  -0.01329  -0.055467  3.65884  -0.075  -0.025149  -0.048553  3.680503  -0.069  -0.149121  -0.082443  -0.133824  -0.006464  -0.05721  3.645956  -0.076
N  N94  1  0.07307206  0.20481370  0.36813400  1  -0.034917  -0.077542  3.335714  -0.098  -0.012183  -0.055318  3.661196  -0.075  -0.024171  -0.048477  3.682834  -0.068  -0.177197  -0.082273  -0.1345  -0.005352  -0.057044  3.648356  -0.075
N  N95  1  0.64527793  0.29554960  0.13163568  1  -0.035834  0.077594  3.33391  0.098  -0.013488  0.055469  3.658935  0.075  -0.025335  0.048557  3.680572  0.069  -0.149312  0.08245  -0.133944  -0.006652  0.057215  3.646043  0.076
N  N96  1  0.74690094  0.78136659  0.62295470  1  -0.254882  -0.07393  3.239761  -0.095  -0.22958  -0.052085  3.554075  -0.071  -0.253146  -0.045755  3.575267  -0.065  -0.68598  -0.078378  -0.255901  -0.215213  -0.053529  3.541593  -0.071
N  N97  1  0.15214049  0.71844723  0.87705709  1  -0.256637  0.073875  3.242737  0.094  -0.230688  0.051941  3.557346  0.07  -0.254446  0.045654  3.578473  0.064  -0.697877  0.078209  -0.257161  -0.216254  0.053353  3.544862  0.07
N  N98  1  0.25310917  0.21863162  0.37704363  1  -0.254918  0.073914  3.239814  0.095  -0.229715  0.052081  3.554251  0.071  -0.253266  0.045752  3.575413  0.065  -0.686119  0.078377  -0.255993  -0.215337  0.053529  3.541758  0.071
N  N99  1  0.84786586  0.28155018  0.12294396  1  -0.256599  -0.073897  3.243018  -0.095  -0.230626  -0.051936  3.557594  -0.07  -0.254383  -0.045654  3.578747  -0.064  -0.697884  -0.078192  -0.257131  -0.216204  -0.053341  3.545126  -0.07
N  N100  1  0.04198572  0.83004055  0.54836594  1  -0.277186  -0.002819  2.945576  -0.004  -0.251915  -0.000317  3.218392  -0.001  -0.259011  -0.000224  3.232316  -0.001  -0.640902  -0.000416  -0.212158  -0.246602  -0.000459  3.209135  -0.001
N  N101  1  0.42173367  0.66953923  0.95199876  1  -0.275628  0.002899  2.9489  0.004  -0.250807  0.000325  3.2218  0.001  -0.25786  0.000248  3.23571  0.001  -0.647691  0.000418  -0.211497  -0.245517  0.00046  3.212513  0.001
N  N102  1  0.95802178  0.16995925  0.45162951  1  -0.277272  0.002827  2.945501  0.004  -0.252048  0.000315  3.218308  0.001  -0.259141  0.000224  3.232232  0.001  -0.640791  0.000418  -0.212236  -0.246733  0.000459  3.209052  0.001
N  N103  1  0.57825953  0.33046057  0.04800947  1  -0.275546  -0.002879  2.948746  -0.004  -0.250692  -0.000326  3.22165  -0.001  -0.25775  -0.000247  3.235555  -0.001  -0.647725  -0.000419  -0.211464  -0.245407  -0.000461  3.212361  -0.001
N  N104  1  0.59901659  0.85786585  0.79139307  1  -0.037258  -0.079638  3.333775  -0.101  -0.012907  -0.055712  3.664862  -0.076  -0.026463  -0.048706  3.687865  -0.069  -0.191539  -0.083199  -0.140063  -0.00502  -0.057427  3.651003  -0.076
N  N105  1  0.24828417  0.64162478  0.70863286  1  -0.039361  0.079761  3.33063  0.101  -0.015183  0.055946  3.661985  0.076  -0.028765  0.04889  3.684901  0.069  -0.18952  0.083478  -0.139918  -0.007295  0.057713  3.648134  0.076
N  N106  1  0.40099455  0.14213475  0.20860882  1  -0.03714  0.079637  3.333628  0.101  -0.012817  0.055711  3.664786  0.076  -0.026358  0.048708  3.68776  0.069  -0.191542  0.083202  -0.139992  -0.004919  0.05743  3.650917  0.076
N  N107  1  0.75172417  0.35837263  0.29137074  1  -0.039289  -0.079772  3.330448  -0.101  -0.015065  -0.055948  3.661723  -0.076  -0.028646  -0.048885  3.684665  -0.069  -0.18911  -0.083469  -0.139852  -0.007189  -0.057705  3.647889  -0.076
N  N108  1  0.78579909  0.85643534  0.80643909  1  -0.277182  0.076434  3.243339  0.098  -0.252902  0.05282  3.562665  0.071  -0.278492  0.04628  3.585442  0.065  -0.701111  0.079895  -0.268498  -0.237183  0.054333  3.548939  0.071
N  N109  1  0.44831906  0.64341272  0.69351305  1  -0.2745  -0.076203  3.245554  -0.097  -0.250178  -0.052441  3.565306  -0.071  -0.275759  -0.04596  3.588249  -0.065  -0.704898  -0.079465  -0.267699  -0.234457  -0.053903  3.551551  -0.071
N  N110  1  0.21421343  0.14356526  0.19355991  1  -0.277146  -0.076443  3.243424  -0.098  -0.252914  -0.052826  3.562783  -0.071  -0.278503  -0.04628  3.585585  -0.065  -0.700362  -0.079887  -0.268493  -0.237205  -0.054328  3.549073  -0.071
N  N111  1  0.55169059  0.35658310  0.30649020  1  -0.274621  0.07622  3.245415  0.097  -0.250349  0.052445  3.56521  0.071  -0.27592  0.045958  3.588126  0.065  -0.705852  0.079471  -0.267788  -0.234619  0.053909  3.551451  0.071
N  N112  1  0.45629499  0.93739011  0.81641326  1  -0.246548  0.004525  2.912329  0.006  -0.233204  0.000438  3.195021  0.001  -0.238616  0.00043  3.210714  0.001  -0.591151  0.000497  -0.210989  -0.228783  0.000544  3.184376  0.001
N  N113  1  0.21020599  0.56190469  0.68358619  1  -0.246679  -0.004568  2.909496  -0.006  -0.23258  -0.000448  3.19167  -0.001  -0.23797  -0.000437  3.207348  -0.001  -0.584849  -0.000485  -0.21086  -0.228178  -0.000534  3.181074  -0.001
N  N114  1  0.54371811  0.06260890  0.18358913  1  -0.246739  -0.004531  2.912298  -0.006  -0.233369  -0.000439  3.194996  -0.001  -0.238783  -0.000431  3.210689  -0.001  -0.591447  -0.000498  -0.211104  -0.228949  -0.000545  3.184346  -0.001
N  N115  1  0.78979843  0.43809591  0.31641487  1  -0.246716  0.004565  2.90941  0.006  -0.232634  0.000447  3.191597  0.001  -0.238029  0.00044  3.207266  0.001  -0.585273  0.000491  -0.210896  -0.228228  0.000538  3.181001  0.001
O  O116  1  0.26258753  0.88228243  0.66778731  1  -0.827895  -0.000137  1.94098  0.0  -0.802406  -0.000259  2.161248  0.0  -0.819143  -0.000223  2.122275  0.0  -1.27779  -0.000414  -0.583561  -0.791358  -0.000276  2.188671  0.0
O  O117  1  0.81293243  0.61747169  0.83227341  1  -0.827236  0.000127  1.939386  0.0  -0.802078  0.000246  2.159556  0.0  -0.818753  0.000211  2.120714  0.0  -1.269622  0.000385  -0.58358  -0.791051  0.000261  2.186901  0.0
O  O118  1  0.73741483  0.11771657  0.33221376  1  -0.827882  0.000138  1.941043  0.0  -0.802413  0.00026  2.161235  0.0  -0.819144  0.000223  2.122263  0.0  -1.277756  0.000412  -0.58356  -0.79136  0.000276  2.188662  0.0
O  O119  1  0.18706594  0.38252891  0.16772767  1  -0.827209  -0.000127  1.939241  0.0  -0.802018  -0.000246  2.159405  0.0  -0.818693  -0.00021  2.120548  0.0  -1.269473  -0.000385  -0.583527  -0.790991  -0.000261  2.186755  0.0
