# generated using pymatgen
data_CdFe2H44C52(N2O3)2
_symmetry_space_group_name_H-M   'P 1'
_cell_length_a   11.68054997
_cell_length_b   13.11531326
_cell_length_c   17.53458124
_cell_angle_alpha   106.58105537
_cell_angle_beta   103.98426324
_cell_angle_gamma   101.82041955
_symmetry_Int_Tables_number   1
_chemical_formula_structural   CdFe2H44C52(N2O3)2
_chemical_formula_sum   'Cd2 Fe4 H88 C104 N8 O12'
_cell_volume   2387.46809029
_cell_formula_units_Z   2
loop_
 _symmetry_equiv_pos_site_id
 _symmetry_equiv_pos_as_xyz
  1  'x, y, z'
loop_
 _atom_site_type_symbol
 _atom_site_label
 _atom_site_symmetry_multiplicity
 _atom_site_fract_x
 _atom_site_fract_y
 _atom_site_fract_z
 _atom_site_occupancy
 _atom_site_pbe_bader_charge
 _atom_site_pbe_bader_spin_density
 _atom_site_pbe_cm5_charge
 _atom_site_pbe_ddec_charge
 _atom_site_pbe_ddec_spin_density
 _atom_site_pbe_ddec_sum_bond_order
 _atom_site_pbe_magmom
Cd  Cd0  1  0.58526224  0.66672658  0.52994657  1  1.280041  0  0.788341  0.889716  0  2.250308  0
Cd  Cd1  1  0.41473838  0.33327633  0.47005485  1  1.280055  0  0.78832  0.889651  0  2.250324  0
Fe  Fe2  1  0.30112444  0.80105110  0.92518870  1  0.744834  0  0.529068  0.222509  0  4.000557  0
Fe  Fe3  1  0.69886811  0.19894107  0.07480847  1  0.744907  0  0.52906  0.222618  0  4.000512  0
Fe  Fe4  1  0.31849704  0.08112846  0.66080501  1  0.736267  0  0.523854  0.215184  0  3.975215  0
Fe  Fe5  1  0.68150678  0.91887613  0.33919557  1  0.736331  0  0.523971  0.215347  0  3.975057  0
H  H6  1  0.05416235  0.37475699  0.75440883  1  0.529458  0  0.297947  0.260156  0  1.025624  0
H  H7  1  0.94583888  0.62524261  0.24559023  1  0.52947  0  0.29796  0.260164  0  1.025657  0
H  H8  1  0.29817506  0.21895476  0.96419020  1  0.537913  0  0.300353  0.267086  0  1.007753  0
H  H9  1  0.70182705  0.78104727  0.03581240  1  0.537888  0  0.300355  0.267087  0  1.007845  0
H  H10  1  0.20751032  0.65898720  0.00204014  1  0.053165  0  0.103354  0.116273  0  1.019957  0
H  H11  1  0.79247906  0.34100080  0.99795674  1  0.053427  0  0.103391  0.116269  0  1.020007  0
H  H12  1  0.13258414  0.84275704  0.01169966  1  0.09555  0  0.111191  0.128601  0  0.979581  0
H  H13  1  0.86739912  0.15722853  0.98829515  1  0.095719  0  0.111225  0.128569  0  0.979826  0
H  H14  1  0.33085582  0.01294861  0.03771225  1  0.066993  0  0.109956  0.124204  0  1.000024  0
H  H15  1  0.66912802  0.98703858  0.96228530  1  0.066869  0  0.109899  0.124075  0  1.000052  0
H  H16  1  0.53001056  0.93457410  0.04751488  1  0.1097  0  0.112244  0.132053  0  1.010191  0
H  H17  1  0.46997964  0.06542131  0.95248836  1  0.109746  0  0.112316  0.132151  0  1.010328  0
H  H18  1  0.45514265  0.71734790  0.02582510  1  0.064463  0  0.103578  0.117926  0  1.028875  0
H  H19  1  0.54484755  0.28264750  0.97417814  1  0.064333  0  0.103567  0.117915  0  1.028811  0
H  H20  1  0.39073865  0.65213969  0.82044791  1  0.124219  0  0.103275  0.126536  0  1.034197  0
H  H21  1  0.60926000  0.34785495  0.17954849  1  0.124304  0  0.103279  0.126549  0  1.034249  0
H  H22  1  0.46995029  0.87263363  0.84668642  1  0.088905  0  0.108697  0.128096  0  1.003365  0
H  H23  1  0.53005073  0.12736252  0.15331696  1  0.088895  0  0.108668  0.128043  0  1.003373  0
H  H24  1  0.27296439  0.95452328  0.84275486  1  0.169637  0  0.108297  0.137916  0  1.046126  0
H  H25  1  0.72703600  0.04547382  0.15724407  1  0.169593  0  0.108278  0.137909  0  1.046163  0
H  H26  1  0.07471279  0.78567928  0.81641691  1  0.077339  0  0.111566  0.135153  0  0.982427  0
H  H27  1  0.92528438  0.21431388  0.18357151  1  0.077065  0  0.111597  0.135121  0  0.982533  0
H  H28  1  0.98444466  0.62217930  0.83670217  1  0.040189  0  0.095566  0.128127  0  1.03592  0
H  H29  1  0.01556007  0.37782033  0.16329402  1  0.040084  0  0.09555  0.128132  0  1.035881  0
H  H30  1  0.73833930  0.37257644  0.74997989  1  0.069251  0  0.10264  0.151365  0  0.990167  0
H  H31  1  0.26166163  0.62742481  0.25002063  1  0.069219  0  0.102632  0.151363  0  0.990158  0
H  H32  1  0.79125557  0.51212309  0.82319074  1  0.082196  0  0.094134  0.139718  0  1.025541  0
H  H33  1  0.20874800  0.48787813  0.17681019  1  0.082261  0  0.094118  0.139724  0  1.025539  0
H  H34  1  0.80443647  0.39800514  0.85720828  1  0.053205  0  0.097809  0.140308  0  1.004033  0
H  H35  1  0.19556766  0.60199776  0.14279254  1  0.05335  0  0.097804  0.140309  0  1.004005  0
H  H36  1  0.92561646  0.21305984  0.61486313  1  0.069403  0  0.09746  0.099652  0  1.030058  0
H  H37  1  0.07438419  0.78694057  0.38513773  1  0.069397  0  0.097447  0.099649  0  1.030083  0
H  H38  1  0.80393995  0.01266268  0.55753425  1  0.142063  0  0.106576  0.107484  0  1.042083  0
H  H39  1  0.19605718  0.98733777  0.44246607  1  0.142018  0  0.106566  0.107428  0  1.04222  0
H  H40  1  0.74873383  0.03939113  0.79463377  1  0.096771  0  0.101874  0.105671  0  1.009089  0
H  H41  1  0.25126592  0.96061179  0.20536809  1  0.096796  0  0.101883  0.105629  0  1.00909  0
H  H42  1  0.86509834  0.24126636  0.85208478  1  0.032232  0  0.09891  0.105543  0  1.01883  0
H  H43  1  0.13490727  0.75873565  0.14791778  1  0.031916  0  0.098887  0.105494  0  1.018852  0
H  H44  1  0.50661118  0.26504582  0.67748568  1  0.081528  0  0.099129  0.118927  0  1.043697  0
H  H45  1  0.49339412  0.73495784  0.32251835  1  0.081578  0  0.099174  0.118956  0  1.043708  0
H  H46  1  0.42269552  0.08888929  0.53386531  1  0.140648  0  0.105674  0.137325  0  1.028312  0
H  H47  1  0.57730997  0.91112035  0.46613382  1  0.140259  0  0.105648  0.137358  0  1.028305  0
H  H48  1  0.38828051  0.90125466  0.57246783  1  0.086137  0  0.101559  0.118516  0  1.012041  0
H  H49  1  0.61172324  0.09875255  0.42752820  1  0.086095  0  0.10157  0.118554  0  1.012022  0
H  H50  1  0.44895270  0.96291728  0.74204845  1  0.071805  0  0.10387  0.123965  0  1.011628  0
H  H51  1  0.55104915  0.03707902  0.25794768  1  0.07187  0  0.103812  0.123901  0  1.011651  0
H  H52  1  0.52311669  0.18770000  0.80766596  1  0.102681  0  0.101742  0.125061  0  1.009154  0
H  H53  1  0.47688574  0.81229791  0.19233348  1  0.102812  0  0.101756  0.125064  0  1.009155  0
H  H54  1  0.23581556  0.27027889  0.68193730  1  0.07166  0  0.105957  0.127637  0  1.010516  0
H  H55  1  0.76418912  0.72972811  0.31806795  1  0.071756  0  0.105984  0.127641  0  1.010501  0
H  H56  1  0.15902450  0.11407613  0.52789634  1  0.096308  0  0.108186  0.131336  0  1.00697  0
H  H57  1  0.84098103  0.88593340  0.47210790  1  0.096225  0  0.108207  0.131344  0  1.00693  0
H  H58  1  0.10656218  0.91091641  0.54380917  1  0.065276  0  0.103076  0.120305  0  1.005405  0
H  H59  1  0.89344162  0.08908825  0.45618801  1  0.065181  0  0.10306  0.120277  0  1.005464  0
H  H60  1  0.15507278  0.94328809  0.70982353  1  0.086812  0  0.104857  0.128732  0  1.013228  0
H  H61  1  0.84493192  0.05671405  0.29017379  1  0.086803  0  0.104844  0.128723  0  1.013254  0
H  H62  1  0.24824108  0.34164849  0.81104110  1  0.073291  0  0.098358  0.133006  0  1.058012  0
H  H63  1  0.75176014  0.65835357  0.18896080  1  0.073262  0  0.098355  0.132985  0  1.05799  0
H  H64  1  0.26531946  0.49728000  0.01883966  1  0.033151  0  0.095733  0.13723  0  1.001917  0
H  H65  1  0.73468208  0.50272038  0.98116247  1  0.032939  0  0.095732  0.137229  0  1.001924  0
H  H66  1  0.24839299  0.49332319  0.91330065  1  0.084285  0  0.1013  0.15425  0  1.013426  0
H  H67  1  0.75160911  0.50667886  0.08670138  1  0.084242  0  0.101305  0.154234  0  1.013489  0
H  H68  1  0.39617120  0.53470497  0.98812525  1  0.031008  0  0.094922  0.132008  0  1.026796  0
H  H69  1  0.60382946  0.46529540  0.01187732  1  0.031031  0  0.094906  0.131993  0  1.026771  0
H  H70  1  0.25593578  0.20438233  0.09484339  1  0.042762  0  0.105912  0.115214  0  0.989658  0
H  H71  1  0.74406955  0.79561886  0.90515837  1  0.042701  0  0.105881  0.115161  0  0.989653  0
H  H72  1  0.31894134  0.28547417  0.25089259  1  0.142537  0  0.103807  0.121233  0  1.037468  0
H  H73  1  0.68106104  0.71452872  0.74910967  1  0.142394  0  0.103827  0.121278  0  1.037417  0
H  H74  1  0.54368480  0.58691970  0.24712056  1  0.073194  0  0.107857  0.109715  0  1.015456  0
H  H75  1  0.45631846  0.41308316  0.75288240  1  0.073238  0  0.107858  0.109742  0  1.015456  0
H  H76  1  0.48719757  0.50605721  0.09358643  1  0.064084  0  0.099867  0.103379  0  1.04996  0
H  H77  1  0.51280569  0.49394569  0.90641483  1  0.063776  0  0.099824  0.103348  0  1.050054  0
H  H78  1  0.32590556  0.62225840  0.40369659  1  0.106247  0  0.118483  0.090801  0  1.006351  0
H  H79  1  0.67409245  0.37774209  0.59630159  1  0.106236  0  0.118496  0.09083  0  1.00628  0
H  H80  1  0.10891505  0.60736297  0.39552237  1  0.095876  0  0.108168  0.112148  0  1.029022  0
H  H81  1  0.89108264  0.39263919  0.60447614  1  0.095799  0  0.108164  0.112109  0  1.029095  0
H  H82  1  0.22875938  0.70943419  0.66747311  1  0.085547  0  0.108035  0.123389  0  1.036406  0
H  H83  1  0.77123810  0.29056211  0.33252519  1  0.085517  0  0.108019  0.123372  0  1.036353  0
H  H84  1  0.44010831  0.71693909  0.66260846  1  0.119217  0  0.123238  0.102136  0  0.987601  0
H  H85  1  0.55988684  0.28305556  0.33738911  1  0.119128  0  0.123214  0.1021  0  0.987645  0
H  H86  1  0.93881665  0.60383109  0.39366308  1  0.122081  0  0.105722  0.111446  0  1.040518  0
H  H87  1  0.06117791  0.39616438  0.60633515  1  0.122063  0  0.105725  0.111487  0  1.04045  0
H  H88  1  0.72887052  0.59768987  0.39842060  1  0.141676  0  0.120539  0.09742  0  1.008636  0
H  H89  1  0.27112492  0.40230559  0.60157833  1  0.14171  0  0.120545  0.097451  0  1.008633  0
H  H90  1  0.83653626  0.67549187  0.65572854  1  0.120387  0  0.12141  0.093559  0  0.984804  0
H  H91  1  0.16346492  0.32451275  0.34427164  1  0.120378  0  0.121389  0.09353  0  0.984848  0
H  H92  1  0.05475775  0.68981005  0.66461957  1  0.08947  0  0.105162  0.114484  0  1.050746  0
H  H93  1  0.94524170  0.31019209  0.33537922  1  0.089511  0  0.10514  0.114474  0  1.050764  0
C  C94  1  0.26679945  0.74172136  0.01550713  1  -0.109334  0  -0.155408  -0.146899  0  4.002104  0
C  C95  1  0.73318990  0.25826916  0.98448974  1  -0.109607  0  -0.155467  -0.146951  0  4.002155  0
C  C96  1  0.22653625  0.83877216  0.01961434  1  -0.167967  0  -0.150933  -0.134356  0  3.994258  0
C  C97  1  0.77345284  0.16121501  0.98038174  1  -0.167839  0  -0.151027  -0.134384  0  3.994625  0
C  C98  1  0.33159558  0.92886316  0.03358696  1  -0.123792  0  -0.150562  -0.139149  0  3.987968  0
C  C99  1  0.66838850  0.07112738  0.96641081  1  -0.124404  0  -0.150505  -0.138986  0  3.988019  0
C  C100  1  0.43661725  0.88741193  0.03808567  1  -0.17332  0  -0.146355  -0.128019  0  3.958585  0
C  C101  1  0.56336741  0.11258024  0.96191427  1  -0.172596  0  -0.146264  -0.127956  0  3.958582  0
C  C102  1  0.39657837  0.77177369  0.02685060  1  -0.13522  0  -0.151774  -0.135298  0  3.99031  0
C  C103  1  0.60341074  0.22821342  0.97314831  1  -0.135611  0  -0.15184  -0.135425  0  3.990487  0
C  C104  1  0.33492135  0.70900388  0.82185105  1  -0.173648  0  -0.150682  -0.16781  0  3.959408  0
C  C105  1  0.66508051  0.29099239  0.17814678  1  -0.173649  0  -0.150727  -0.167882  0  3.959567  0
C  C106  1  0.37581078  0.82509482  0.83525424  1  -0.145356  0  -0.151418  -0.141889  0  4.002002  0
C  C107  1  0.62419198  0.17490137  0.16474657  1  -0.145256  0  -0.151408  -0.141828  0  4.001964  0
C  C108  1  0.27233685  0.86858889  0.83343713  1  -0.168911  0  -0.153826  -0.146523  0  3.986198  0
C  C109  1  0.72766270  0.13140571  0.16656111  1  -0.169357  0  -0.153793  -0.146565  0  3.986176  0
C  C110  1  0.16695376  0.77908778  0.81987404  1  -0.204843  0  -0.160311  -0.195029  0  4.001033  0
C  C111  1  0.83304604  0.22090776  0.18011988  1  -0.204348  0  -0.160363  -0.194955  0  4.00107  0
C  C112  1  0.20483059  0.67902056  0.81148704  1  -0.141789  0  -0.086128  -0.061983  0  4.021828  0
C  C113  1  0.79516833  0.32097500  0.18850618  1  -0.141681  0  -0.086091  -0.062071  0  4.022037  0
C  C114  1  0.12899072  0.56540340  0.79500854  1  0.817502  0  0.114309  0.385569  0  4.089873  0
C  C115  1  0.87100881  0.43459128  0.20498628  1  0.817658  0  0.114326  0.385661  0  4.089795  0
C  C116  1  0.01375368  0.54970963  0.81138161  1  -0.021747  0  -0.155673  -0.442459  0  3.980246  0
C  C117  1  0.98624521  0.45028839  0.18861388  1  -0.021714  0  -0.155688  -0.442498  0  3.980216  0
C  C118  1  0.93503014  0.44501880  0.79539519  1  0.438608  0  0.126894  0.360392  0  3.991353  0
C  C119  1  0.06497138  0.55498163  0.20460410  1  0.438596  0  0.12694  0.360421  0  3.991493  0
C  C120  1  0.81097772  0.43201811  0.80744856  1  -0.089555  0  -0.234352  -0.452617  0  3.925488  0
C  C121  1  0.18902497  0.56798313  0.19255224  1  -0.089791  0  -0.234334  -0.452623  0  3.925447  0
C  C122  1  0.90015864  0.24053613  0.73621821  1  0.293583  0  0.091523  0.223682  0  4.040345  0
C  C123  1  0.09984405  0.75946509  0.26378315  1  0.29356  0  0.091482  0.223646  0  4.040179  0
C  C124  1  0.88550260  0.17509856  0.65385290  1  -0.020719  0  -0.09676  -0.174948  0  3.987295  0
C  C125  1  0.11449717  0.82490187  0.34614726  1  -0.020743  0  -0.096768  -0.175039  0  3.987207  0
C  C126  1  0.81916853  0.06328263  0.62215725  1  -0.081846  0  -0.080013  -0.067044  0  3.956461  0
C  C127  1  0.18083033  0.93672030  0.37784390  1  -0.081795  0  -0.080004  -0.066951  0  3.956443  0
C  C128  1  0.76936392  0.01370330  0.67255318  1  0.021347  0  -0.016451  -0.027523  0  3.951822  0
C  C129  1  0.23063322  0.98629713  0.32744828  1  0.021355  0  -0.016514  -0.027521  0  3.951912  0
C  C130  1  0.78652703  0.07859044  0.75542066  1  -0.050959  0  -0.077176  -0.064753  0  3.966858  0
C  C131  1  0.21347244  0.92141163  0.24458154  1  -0.05108  0  -0.077126  -0.064642  0  3.966935  0
C  C132  1  0.85092092  0.19161387  0.78721509  1  0.0081  0  -0.095939  -0.179076  0  3.977938  0
C  C133  1  0.14908234  0.80838901  0.21278673  1  0.008549  0  -0.095935  -0.17903  0  3.977926  0
C  C134  1  0.70038069  0.89206788  0.63646842  1  1.557958  0  0.188356  0.55544  0  4.252915  0
C  C135  1  0.29961729  0.10793509  0.36353146  1  1.558051  0  0.188263  0.55522  0  4.253188  0
C  C136  1  0.48803046  0.17867257  0.67339465  1  -0.117717  0  -0.156098  -0.14148  0  3.978924  0
C  C137  1  0.51197686  0.82133439  0.32661101  1  -0.117438  0  -0.156196  -0.141531  0  3.978917  0
C  C138  1  0.44363226  0.08479801  0.59657414  1  -0.136933  0  -0.14875  -0.120783  0  3.938306  0
C  C139  1  0.55637331  0.91520657  0.40342615  1  -0.136608  0  -0.148802  -0.120913  0  3.938596  0
C  C140  1  0.42353257  0.98596881  0.61724225  1  -0.186634  0  -0.153551  -0.133922  0  3.991646  0
C  C141  1  0.57647153  0.01403419  0.38275403  1  -0.186545  0  -0.153543  -0.13403  0  3.99178  0
C  C142  1  0.45543075  0.01852326  0.70679865  1  -0.065135  0  -0.152642  -0.135343  0  3.987172  0
C  C143  1  0.54457222  0.98147640  0.29319727  1  -0.065378  0  -0.152528  -0.1352  0  3.987253  0
C  C144  1  0.49564150  0.13778823  0.74143579  1  -0.245204  0  -0.152957  -0.129135  0  3.979057  0
C  C145  1  0.50436319  0.86221635  0.25856493  1  -0.245511  0  -0.153009  -0.129163  0  3.979083  0
C  C146  1  0.20649944  0.18102397  0.66779763  1  -0.145634  0  -0.157169  -0.183555  0  3.978714  0
C  C147  1  0.79350322  0.81897975  0.33220429  1  -0.145432  0  -0.157164  -0.183482  0  3.978846  0
C  C148  1  0.16454210  0.09792099  0.58589763  1  -0.154268  0  -0.152998  -0.134667  0  3.993083  0
C  C149  1  0.83546312  0.90208779  0.41410298  1  -0.154294  0  -0.153053  -0.134786  0  3.993018  0
C  C150  1  0.13831905  0.99087190  0.59471183  1  -0.120113  0  -0.153393  -0.134173  0  4.003726  0
C  C151  1  0.86168589  0.00913607  0.40528741  1  -0.120266  0  -0.153445  -0.134176  0  4.003928  0
C  C152  1  0.16435471  0.00732823  0.68205217  1  -0.132376  0  -0.153153  -0.163569  0  3.960594  0
C  C153  1  0.83565144  0.99267795  0.31795142  1  -0.132379  0  -0.153137  -0.163617  0  3.960573  0
C  C154  1  0.20559089  0.12559441  0.72824349  1  -0.097131  0  -0.083255  -0.050139  0  4.000563  0
C  C155  1  0.79441127  0.87440264  0.27175684  1  -0.097067  0  -0.083186  -0.050004  0  4.000466  0
C  C156  1  0.24670912  0.17863115  0.82008398  1  0.817658  0  0.127656  0.404951  0  4.060501  0
C  C157  1  0.75329181  0.82137009  0.17991712  1  0.818019  0  0.127609  0.404851  0  4.060588  0
C  C158  1  0.26783639  0.29705367  0.85382753  1  -0.000577  0  -0.144063  -0.412787  0  3.942603  0
C  C159  1  0.73216543  0.70294755  0.14617426  1  -0.001  0  -0.144103  -0.412785  0  3.942651  0
C  C160  1  0.30038759  0.35743990  0.93843967  1  0.381592  0  0.116561  0.341183  0  3.994157  0
C  C161  1  0.69961627  0.64256213  0.06156263  1  0.381837  0  0.116605  0.341246  0  3.994031  0
C  C162  1  0.30265611  0.47714671  0.96643253  1  -0.043279  0  -0.234708  -0.45181  0  3.926367  0
C  C163  1  0.69734599  0.52285534  0.03356949  1  -0.043084  0  -0.234687  -0.451754  0  3.926364  0
C  C164  1  0.36107068  0.35170965  0.08250174  1  0.363484  0  0.098977  0.232646  0  4.056191  0
C  C165  1  0.63893377  0.64829155  0.91749990  1  0.36352  0  0.09901  0.232751  0  4.056225  0
C  C166  1  0.31838609  0.28869447  0.12848654  1  -0.043187  0  -0.099164  -0.191445  0  3.97515  0
C  C167  1  0.68161748  0.71130675  0.87151439  1  -0.043153  0  -0.099075  -0.191327  0  3.97504  0
C  C168  1  0.35244539  0.33438574  0.21554054  1  -0.043462  0  -0.083924  -0.079303  0  3.974339  0
C  C169  1  0.64755787  0.66561715  0.78446128  1  -0.04324  0  -0.084001  -0.07939  0  3.974197  0
C  C170  1  0.43042741  0.44384878  0.25878811  1  -0.027302  0  -0.030913  -0.071533  0  4.0143  0
C  C171  1  0.56957496  0.55615412  0.74121358  1  -0.027246  0  -0.030921  -0.07152  0  4.014219  0
C  C172  1  0.47902753  0.50382510  0.21345309  1  0.031147  0  -0.083059  -0.07623  0  3.995225  0
C  C173  1  0.52097545  0.49617696  0.78654850  1  0.031035  0  -0.083049  -0.076227  0  3.995052  0
C  C174  1  0.44569474  0.45856808  0.12668771  1  -0.075309  0  -0.098482  -0.187846  0  3.982457  0
C  C175  1  0.55430852  0.54143479  0.87331468  1  -0.075065  0  -0.09848  -0.187901  0  3.982552  0
C  C176  1  0.45850833  0.49758347  0.35117817  1  1.571878  0  0.19869  0.56522  0  4.249232  0
C  C177  1  0.54149229  0.50241946  0.64882269  1  1.571874  0  0.198577  0.564928  0  4.249569  0
C  C178  1  0.29936223  0.64015758  0.46039925  1  0.477597  0  0.053527  0.10727  0  3.954521  0
C  C179  1  0.70063577  0.35984290  0.53959950  1  0.479133  0  0.053484  0.107177  0  3.954489  0
C  C180  1  0.17801546  0.63289349  0.45678829  1  -0.047014  0  -0.080097  -0.170635  0  3.947289  0
C  C181  1  0.82198254  0.36710699  0.54321047  1  -0.048359  0  -0.080078  -0.170578  0  3.947326  0
C  C182  1  0.14743456  0.65691582  0.53128999  1  0.011824  0  0.013421  0.099238  0  3.975077  0
C  C183  1  0.85256316  0.34308382  0.46870854  1  0.011769  0  0.013475  0.099298  0  3.974957  0
C  C184  1  0.24403307  0.68848203  0.60685088  1  -0.002817  0  -0.073349  -0.154902  0  3.89079  0
C  C185  1  0.75596438  0.31151677  0.39314798  1  -0.002714  0  -0.073353  -0.15489  0  3.890694  0
C  C186  1  0.36307267  0.69276216  0.60507064  1  0.507438  0  0.05726  0.105498  0  3.925485  0
C  C187  1  0.63692477  0.30723665  0.39492765  1  0.507438  0  0.057255  0.105471  0  3.925554  0
C  C188  1  0.01889103  0.64936196  0.52979890  1  -0.026201  0  0.013343  0.100495  0  3.978214  0
C  C189  1  0.98110728  0.35063685  0.47019895  1  -0.026196  0  0.013364  0.100545  0  3.978156  0
C  C190  1  0.92372484  0.62213318  0.45438765  1  -0.088524  0  -0.079746  -0.169977  0  3.931992  0
C  C191  1  0.07627264  0.37786312  0.54561065  1  -0.088482  0  -0.079791  -0.17009  0  3.931962  0
C  C192  1  0.80443837  0.61721154  0.45580278  1  0.499761  0  0.052192  0.104295  0  3.933148  0
C  C193  1  0.19556056  0.38278637  0.54419782  1  0.49973  0  0.052233  0.104314  0  3.933105  0
C  C194  1  0.86480272  0.66131968  0.59954971  1  0.500046  0  0.051948  0.101717  0  3.948974  0
C  C195  1  0.13519586  0.33868243  0.40045064  1  0.500056  0  0.05194  0.101685  0  3.949112  0
C  C196  1  0.98657126  0.66885403  0.60368828  1  -0.051586  0  -0.081859  -0.168267  0  3.922379  0
C  C197  1  0.01342703  0.33114728  0.39631071  1  -0.051638  0  -0.081868  -0.16829  0  3.922456  0
N  N198  1  0.96964699  0.35368435  0.76504408  1  -1.297672  0  -0.39511  -0.332168  0  3.596212  0
N  N199  1  0.03035397  0.64631440  0.23495589  1  -1.29763  0  -0.395093  -0.332153  0  3.59632  0
N  N200  1  0.32131240  0.30511055  0.99517461  1  -1.348672  0  -0.393825  -0.331679  0  3.596684  0
N  N201  1  0.67869145  0.69489148  0.00482768  1  -1.348824  0  -0.393872  -0.3318  0  3.596668  0
N  N202  1  0.39020312  0.66828391  0.53296463  1  -1.230925  0  -0.327903  -0.236572  0  3.534438  0
N  N203  1  0.60979548  0.33171573  0.46703403  1  -1.230954  0  -0.32788  -0.236492  0  3.534452  0
N  N204  1  0.77498608  0.63637644  0.52696695  1  -1.220009  0  -0.324252  -0.227348  0  3.493407  0
N  N205  1  0.22501194  0.36362399  0.47303407  1  -1.220024  0  -0.32423  -0.227259  0  3.493366  0
O  O206  1  0.16983291  0.48450268  0.76525503  1  -1.142121  0  -0.306852  -0.479526  0  2.112459  0
O  O207  1  0.83016690  0.51549282  0.23474003  1  -1.142102  0  -0.306825  -0.479527  0  2.112253  0
O  O208  1  0.67590649  0.84622473  0.55635515  1  -1.157917  0  -0.336674  -0.562946  0  2.268314  0
O  O209  1  0.32409177  0.15377908  0.44364497  1  -1.157943  0  -0.336614  -0.56286  0  2.268388  0
O  O210  1  0.67094021  0.83999928  0.68259856  1  -1.190491  0  -0.343174  -0.583785  0  2.131022  0
O  O211  1  0.32906013  0.16000281  0.31740206  1  -1.190581  0  -0.343121  -0.583672  0  2.131169  0
O  O212  1  0.25758237  0.12023583  0.86687641  1  -1.1574  0  -0.300476  -0.472374  0  2.106913  0
O  O213  1  0.74241621  0.87976630  0.13312337  1  -1.157435  0  -0.300437  -0.472339  0  2.106855  0
O  O214  1  0.40770393  0.44444455  0.39034273  1  -1.208443  0  -0.343375  -0.605559  0  2.391005  0
O  O215  1  0.59229788  0.55555668  0.60965850  1  -1.208448  0  -0.343297  -0.605435  0  2.391115  0
O  O216  1  0.52912834  0.59812252  0.38562255  1  -1.177901  0  -0.325147  -0.551221  0  2.266944  0
O  O217  1  0.47087052  0.40188041  0.61437860  1  -1.177844  0  -0.325111  -0.551087  0  2.267043  0
