# generated using pymatgen
data_CuH9C8(NO2)2
_symmetry_space_group_name_H-M   'P 1'
_cell_length_a   7.26010420
_cell_length_b   8.04875777
_cell_length_c   10.91060908
_cell_angle_alpha   77.10428589
_cell_angle_beta   81.96513037
_cell_angle_gamma   64.25348655
_symmetry_Int_Tables_number   1
_chemical_formula_structural   CuH9C8(NO2)2
_chemical_formula_sum   'Cu2 H18 C16 N4 O8'
_cell_volume   559.11495563
_cell_formula_units_Z   2
loop_
 _symmetry_equiv_pos_site_id
 _symmetry_equiv_pos_as_xyz
  1  'x, y, z'
loop_
 _atom_site_type_symbol
 _atom_site_label
 _atom_site_symmetry_multiplicity
 _atom_site_fract_x
 _atom_site_fract_y
 _atom_site_fract_z
 _atom_site_occupancy
 _atom_site_pbe_cm5_charge
 _atom_site_pbe_ddec_charge
 _atom_site_pbe_ddec_spin_density
 _atom_site_pbe_ddec_sum_bond_order
 _atom_site_pbe_magmom
Cu  Cu0  1  0.08227065  0.49547423  0.10024312  1  0.658825  0.706926  0.017545  2.395036  0.011
Cu  Cu1  1  0.91772930  0.50455145  0.89975951  1  0.658861  0.706685  -0.017487  2.39566  -0.011
H  H2  1  0.51411064  0.41372761  0.14863702  1  0.127733  0.110673  2.2e-05  1.005766  0.0
H  H3  1  0.48588923  0.58621765  0.85136626  1  0.12769  0.110841  -2.2e-05  1.005539  0.0
H  H4  1  0.71645577  0.41719904  0.31523861  1  0.1181  0.132212  5e-06  1.021369  0.0
H  H5  1  0.28355234  0.58272243  0.68477706  1  0.118135  0.132295  -5e-06  1.021277  0.0
H  H6  1  0.15011292  0.54139787  0.54689677  1  0.120421  0.091934  -3e-06  1.049736  0.0
H  H7  1  0.84981929  0.45872569  0.45308463  1  0.120492  0.092079  3e-06  1.049661  0.0
H  H8  1  0.97277592  0.92940029  0.13268700  1  0.103285  0.172004  0.000193  1.022994  0.0
H  H9  1  0.02725854  0.07057507  0.86732825  1  0.103335  0.172069  -0.000193  1.023  0.0
H  H10  1  0.72674174  0.08020839  0.18145331  1  0.101812  0.159628  0.000184  0.995688  0.0
H  H11  1  0.27330258  0.91974586  0.81855726  1  0.101879  0.159721  -0.000184  0.995828  0.0
H  H12  1  0.93595451  0.00236992  0.28146164  1  0.096032  0.152938  -0.000425  0.985338  0.0
H  H13  1  0.06408041  0.99767025  0.71854180  1  0.096064  0.153012  0.000425  0.985471  0.0
H  H14  1  0.32296214  0.85612959  0.08638048  1  0.098061  0.161954  -0.000271  1.012291  0.0
H  H15  1  0.67705695  0.14386968  0.91364500  1  0.098044  0.161955  0.000271  1.012103  0.0
H  H16  1  0.43934662  0.00015566  0.11153790  1  0.103453  0.170607  4.7e-05  1.010472  0.0
H  H17  1  0.56064301  0.99984448  0.88846078  1  0.103421  0.170531  -4.7e-05  1.010524  0.0
H  H18  1  0.42567432  0.82223440  0.23534746  1  0.095594  0.15059  0.0003  0.99851  0.0
H  H19  1  0.57434797  0.17773110  0.76468430  1  0.095647  0.150663  -0.000301  0.998804  0.0
C  C20  1  0.44519049  0.44210934  0.24131899  1  0.057388  0.068642  -9e-05  3.907532  0.0
C  C21  1  0.55482219  0.55785018  0.75868715  1  0.057494  0.068586  9.1e-05  3.907574  0.0
C  C22  1  0.55550562  0.44515688  0.33492511  1  -0.056938  -0.119884  -4.8e-05  3.88409  0.0
C  C23  1  0.44449765  0.55481385  0.66508275  1  -0.057062  -0.120192  4.9e-05  3.884387  0.0
C  C24  1  0.45121616  0.49060791  0.44859684  1  0.015614  0.059972  3e-06  3.970356  0.0
C  C25  1  0.54875455  0.50940896  0.55140076  1  0.015623  0.060133  -4e-06  3.970552  0.0
C  C26  1  0.24459031  0.51707269  0.45993715  1  0.059281  0.01121  -5.5e-05  3.899472  0.0
C  C27  1  0.75535106  0.48300728  0.54004980  1  0.05915  0.010837  5.8e-05  3.899455  0.0
C  C28  1  0.93143723  0.21379343  0.11784854  1  0.211253  0.666829  -8.1e-05  4.115432  0.0
C  C29  1  0.06858546  0.78619851  0.88214118  1  0.211328  0.666966  7.9e-05  4.115008  0.0
C  C30  1  0.89003903  0.04584629  0.18398797  1  -0.241749  -0.513641  0.000315  3.851346  0.0
C  C31  1  0.10999934  0.95414169  0.81601474  1  -0.241959  -0.513956  -0.000322  3.85172  0.0
C  C32  1  0.65201043  0.72337199  0.08666183  1  0.211404  0.663613  1.5e-05  4.12899  0.0
C  C33  1  0.34797511  0.27662804  0.91332900  1  0.211442  0.663725  -1.5e-05  4.128686  0.0
C  C34  1  0.44589518  0.85782881  0.13303802  1  -0.245963  -0.513843  0.000498  3.845541  0.0
C  C35  1  0.55411601  0.14215764  0.86698207  1  -0.245982  -0.51391  -0.000503  3.845727  0.0
N  N36  1  0.24635626  0.47729045  0.25707565  1  -0.202078  -0.104064  -0.000429  3.468129  0.0
N  N37  1  0.75364274  0.52272244  0.74291729  1  -0.202051  -0.103952  0.000451  3.468215  0.0
N  N38  1  0.14647573  0.51030289  0.36767869  1  -0.178337  -0.10736  -0.000137  3.261114  0.0
N  N39  1  0.85348421  0.48977014  0.63229948  1  -0.178335  -0.107236  0.000141  3.260839  0.0
O  O40  1  0.01536923  0.27609091  0.18041118  1  -0.314454  -0.525338  0.019753  2.311098  0.02
O  O41  1  0.98460646  0.72395127  0.81956982  1  -0.314504  -0.525317  -0.019777  2.310861  -0.02
O  O42  1  0.87693492  0.28016982  0.00450038  1  -0.312525  -0.534584  -0.018271  2.344874  -0.019
O  O43  1  0.12306629  0.71982048  0.99548881  1  -0.312506  -0.534689  0.018254  2.345033  0.019
O  O44  1  0.80202305  0.66845707  0.15611651  1  -0.31247  -0.520552  -0.015469  2.332571  -0.016
O  O45  1  0.19792633  0.33159064  0.84388336  1  -0.312503  -0.520523  0.015449  2.332478  0.016
O  O46  1  0.65824364  0.67800942  0.98073593  1  -0.313714  -0.540368  0.017752  2.357628  0.018
O  O47  1  0.34179197  0.32194589  0.01924591  1  -0.313728  -0.540423  -0.017766  2.357281  -0.018
