# generated using pymatgen
data_DyH8C8NO9
_symmetry_space_group_name_H-M   'P 1'
_cell_length_a   9.44995558
_cell_length_b   9.94493509
_cell_length_c   14.19000000
_cell_angle_alpha   90.00000000
_cell_angle_beta   90.00000000
_cell_angle_gamma   92.94209434
_symmetry_Int_Tables_number   1
_chemical_formula_structural   DyH8C8NO9
_chemical_formula_sum   'Dy4 H32 C32 N4 O36'
_cell_volume   1331.80702576
_cell_formula_units_Z   4
loop_
 _symmetry_equiv_pos_site_id
 _symmetry_equiv_pos_as_xyz
  1  'x, y, z'
loop_
 _atom_site_type_symbol
 _atom_site_label
 _atom_site_symmetry_multiplicity
 _atom_site_fract_x
 _atom_site_fract_y
 _atom_site_fract_z
 _atom_site_occupancy
 _atom_site_hle17_bader_spin_density
 _atom_site_hle17_ddec_charge
 _atom_site_hle17_ddec_spin_density
 _atom_site_hle17_ddec_sum_bond_order
 _atom_site_hle17_magmom
 _atom_site_hse06_10hf_bader_spin_density
 _atom_site_hse06_10hf_ddec_charge
 _atom_site_hse06_10hf_ddec_spin_density
 _atom_site_hse06_10hf_ddec_sum_bond_order
 _atom_site_hse06_10hf_magmom
 _atom_site_hse06_bader_spin_density
 _atom_site_hse06_ddec_charge
 _atom_site_hse06_ddec_spin_density
 _atom_site_hse06_ddec_sum_bond_order
 _atom_site_hse06_magmom
 _atom_site_pbe_bader_charge
 _atom_site_pbe_bader_spin_density
 _atom_site_pbe_cm5_charge
 _atom_site_pbe_ddec_charge
 _atom_site_pbe_ddec_spin_density
 _atom_site_pbe_ddec_sum_bond_order
 _atom_site_pbe_magmom
Dy  Dy0  1  0.38252399  0.41596376  0.85613108  1  0  2.238839  0  1.648698  0  0  2.076462  0  2.138102  0  0  2.207207  0  1.939717  0  2.164384  0  1.521029  2.042835  0  2.169284  0
Dy  Dy1  1  0.61748245  0.08402885  0.35613178  1  0  2.238896  0  1.648733  0  0  2.076619  0  2.137989  0  0  2.20727  0  1.939746  0  2.164465  0  1.521034  2.042988  0  2.169178  0
Dy  Dy2  1  0.61748612  0.58403757  0.14386822  1  0  2.238865  0  1.64872  0  0  2.076572  0  2.137969  0  0  2.207234  0  1.939721  0  2.164553  0  1.521067  2.042945  0  2.169149  0
Dy  Dy3  1  0.38251686  0.91596845  0.64386822  1  0  2.238871  0  1.64869  0  0  2.076529  0  2.138035  0  0  2.207232  0  1.939712  0  2.16454  0  1.521036  2.0429  0  2.169222  0
H  H4  1  0.57940075  0.18964286  0.90570190  1  0  0.45402  0  0.791516  0  0  0.438998  0  0.836644  0  0  0.44765  0  0.824271  0  0.633616  0  0.339816  0.433013  0  0.845471  0
H  H5  1  0.42059521  0.31035177  0.40569908  1  0  0.454002  0  0.791614  0  0  0.438977  0  0.836687  0  0  0.447628  0  0.824314  0  0.633613  0  0.339801  0.432992  0  0.845513  0
H  H6  1  0.42059337  0.81035646  0.09430092  1  0  0.453935  0  0.791629  0  0  0.438918  0  0.836753  0  0  0.447569  0  0.824381  0  0.633545  0  0.33977  0.432933  0  0.845579  0
H  H7  1  0.57939981  0.68964452  0.59430021  1  0  0.454009  0  0.791575  0  0  0.438986  0  0.836667  0  0  0.447638  0  0.824293  0  0.63361  0  0.339811  0.433001  0  0.845493  0
H  H8  1  0.55951830  0.27135995  0.00119803  1  0  0.447477  0  0.839547  0  0  0.413603  0  0.906934  0  0  0.425297  0  0.889676  0  0.648243  0  0.30796  0.405553  0  0.919026  0
H  H9  1  0.44047777  0.22863669  0.50119732  1  0  0.44749  0  0.839563  0  0  0.41361  0  0.90696  0  0  0.425305  0  0.889702  0  0.648224  0  0.307977  0.40556  0  0.919053  0
H  H10  1  0.44048462  0.72864541  0.99880338  1  0  0.447516  0  0.839468  0  0  0.413656  0  0.90683  0  0  0.42535  0  0.889575  0  0.64828  0  0.307987  0.405606  0  0.918922  0
H  H11  1  0.55952259  0.77136061  0.49880338  1  0  0.447519  0  0.83952  0  0  0.413643  0  0.906906  0  0  0.425338  0  0.889649  0  0.648234  0  0.308008  0.405594  0  0.918998  0
H  H12  1  0.46012883  0.23968904  0.68840874  1  0  0.443146  0  0.85069  0  0  0.411415  0  0.914288  0  0  0.422819  0  0.898012  0  0.655154  0  0.306408  0.403265  0  0.926308  0
H  H13  1  0.53986847  0.26031062  0.18841015  1  0  0.443115  0  0.850736  0  0  0.411378  0  0.914348  0  0  0.422781  0  0.898074  0  0.655185  0  0.306361  0.403228  0  0.926368  0
H  H14  1  0.53987037  0.76030625  0.31159126  1  0  0.443085  0  0.850783  0  0  0.411341  0  0.914399  0  0  0.422743  0  0.898126  0  0.654935  0  0.306382  0.403192  0  0.926418  0
H  H15  1  0.46012910  0.73969373  0.81158915  1  0  0.443126  0  0.850735  0  0  0.411375  0  0.914365  0  0  0.42278  0  0.898086  0  0.654959  0  0.306383  0.403225  0  0.926385  0
H  H16  1  0.58192455  0.34960235  0.71439887  1  0  0.440049  0  0.806085  0  0  0.424841  0  0.854258  0  0  0.433486  0  0.845621  0  0.628788  0  0.334127  0.418736  0  0.861367  0
H  H17  1  0.41808189  0.15039026  0.21439887  1  0  0.440017  0  0.806126  0  0  0.424806  0  0.854307  0  0  0.433451  0  0.845667  0  0.628831  0  0.334122  0.418701  0  0.861416  0
H  H18  1  0.41808289  0.65038891  0.28559760  1  0  0.440071  0  0.806104  0  0  0.424856  0  0.854288  0  0  0.433502  0  0.845649  0  0.628863  0  0.334144  0.418752  0  0.861398  0
H  H19  1  0.58191775  0.84961308  0.78559901  1  0  0.44  0  0.806237  0  0  0.424808  0  0.854369  0  0  0.433449  0  0.845742  0  0.628842  0  0.334129  0.418707  0  0.861477  0
H  H20  1  0.28963276  0.58828956  0.69514165  1  0  0.44703  0  0.850388  0  0  0.416304  0  0.911883  0  0  0.428671  0  0.894312  0  0.653491  0  0.297177  0.407785  0  0.924144  0
H  H21  1  0.71036676  0.91171142  0.19514024  1  0  0.447014  0  0.850424  0  0  0.416295  0  0.911903  0  0  0.428658  0  0.894343  0  0.653518  0  0.297185  0.407778  0  0.924161  0
H  H22  1  0.71036755  0.41170673  0.30485694  1  0  0.447047  0  0.850367  0  0  0.416337  0  0.911834  0  0  0.428703  0  0.894266  0  0.653473  0  0.297187  0.407819  0  0.924095  0
H  H23  1  0.28963298  0.08829393  0.80485694  1  0  0.447058  0  0.850355  0  0  0.416329  0  0.911844  0  0  0.428695  0  0.894275  0  0.653463  0  0.297194  0.40781  0  0.924105  0
H  H24  1  0.29386570  0.43785298  0.65731290  1  0  0.438139  0  0.857906  0  0  0.408836  0  0.91841  0  0  0.420451  0  0.901389  0  0.633587  0  0.296771  0.400661  0  0.93059  0
H  H25  1  0.70613705  0.06214969  0.15731572  1  0  0.43822  0  0.857832  0  0  0.408913  0  0.918345  0  0  0.420531  0  0.901317  0  0.633598  0  0.296759  0.400737  0  0.930527  0
H  H26  1  0.70613672  0.56214331  0.34268358  1  0  0.43805  0  0.858013  0  0  0.408747  0  0.918525  0  0  0.420363  0  0.901501  0  0.633704  0  0.2967  0.400572  0  0.930706  0
H  H27  1  0.29386375  0.93785566  0.84268499  1  0  0.43808  0  0.857959  0  0  0.408774  0  0.918481  0  0  0.42039  0  0.901457  0  0.633697  0  0.296717  0.400599  0  0.930661  0
H  H28  1  0.93420164  0.72918206  0.92625581  1  0  0.135163  0  0.904478  0  0  0.146525  0  0.95691  0  0  0.150712  0  0.954319  0  0.145948  0  0.127193  0.143253  0  0.958877  0
H  H29  1  0.06580635  0.77081892  0.42625018  1  0  0.135189  0  0.90448  0  0  0.146574  0  0.95688  0  0  0.150761  0  0.954285  0  0.14598  0  0.127246  0.143303  0  0.958847  0
H  H30  1  0.06580752  0.27082127  0.07375053  1  0  0.13518  0  0.904498  0  0  0.146589  0  0.956867  0  0  0.150778  0  0.954273  0  0.146004  0  0.127219  0.143316  0  0.958838  0
H  H31  1  0.93418994  0.22918140  0.57375123  1  0  0.135191  0  0.904449  0  0  0.146572  0  0.956857  0  0  0.150757  0  0.954265  0  0.145973  0  0.12722  0.1433  0  0.958824  0
H  H32  1  0.81388559  0.31851441  0.84297604  1  0  0.121456  0  0.93356  0  0  0.127684  0  0.997879  0  0  0.132622  0  0.993878  0  0.108462  0  0.118074  0.123846  0  1.00106  0
H  H33  1  0.18611594  0.18148524  0.34297393  1  0  0.121397  0  0.933448  0  0  0.127633  0  0.997789  0  0  0.132573  0  0.993788  0  0.108494  0  0.118043  0.123795  0  1.000971  0
H  H34  1  0.18612056  0.68149195  0.15702607  1  0  0.121417  0  0.933497  0  0  0.127652  0  0.997831  0  0  0.132591  0  0.993831  0  0.108422  0  0.118037  0.123814  0  1.001012  0
H  H35  1  0.81387601  0.81851306  0.65702537  1  0  0.121415  0  0.933516  0  0  0.127673  0  0.997829  0  0  0.132613  0  0.993826  0  0.10841  0  0.118049  0.123834  0  1.001012  0
C  C36  1  0.09987117  0.59712781  0.89024524  1  0  0.121444  0  3.74697  0  0  0.126394  0  3.999121  0  0  0.126655  0  4.021364  0  0.496991  0  0.122332  0.125744  0  3.986697  0
C  C37  1  0.90013660  0.90286914  0.39024031  1  0  0.12111  0  3.747454  0  0  0.126074  0  3.999653  0  0  0.126333  0  4.021893  0  0.496509  0  0.122235  0.125426  0  3.987231  0
C  C38  1  0.90013787  0.40287352  0.10975828  1  0  0.121301  0  3.747231  0  0  0.126246  0  3.999444  0  0  0.126506  0  4.021686  0  0.497016  0  0.122282  0.125597  0  3.98702  0
C  C39  1  0.09986271  0.09712815  0.60975617  1  0  0.121209  0  3.747181  0  0  0.126135  0  3.999363  0  0  0.126395  0  4.021606  0  0.496933  0  0.122184  0.125488  0  3.98694  0
C  C40  1  0.95896705  0.62805767  0.90424454  1  0  -0.078426  0  3.598962  0  0  -0.11761  0  3.852147  0  0  -0.118406  0  3.867745  0  0.029072  0  -0.052609  -0.116187  0  3.841071  0
C  C41  1  0.04104084  0.87194130  0.40423820  1  0  -0.078331  0  3.599196  0  0  -0.117586  0  3.852322  0  0  -0.118379  0  3.86791  0  0.029117  0  -0.052674  -0.116165  0  3.841248  0
C  C42  1  0.04104100  0.37194466  0.09575617  1  0  -0.078387  0  3.599222  0  0  -0.117641  0  3.85234  0  0  -0.118438  0  3.867934  0  0.028732  0  -0.052643  -0.116218  0  3.841265  0
C  C43  1  0.95895741  0.12805600  0.59575828  1  0  -0.078407  0  3.599071  0  0  -0.117636  0  3.852239  0  0  -0.118434  0  3.86784  0  0.028731  0  -0.052645  -0.116215  0  3.841166  0
C  C44  1  0.85352047  0.52685977  0.88754616  1  0  0.009351  0  3.667115  0  0  0.026872  0  3.908557  0  0  0.025433  0  3.923407  0  -0.000556  0  0.016954  0.028089  0  3.896737  0
C  C45  1  0.14648541  0.97314121  0.38754123  1  0  0.009051  0  3.667188  0  0  0.026785  0  3.90843  0  0  0.02535  0  3.923275  0  -0.000288  0  0.016931  0.028  0  3.896615  0
C  C46  1  0.14648630  0.47313853  0.11245948  1  0  0.009178  0  3.667326  0  0  0.026866  0  3.90856  0  0  0.025432  0  3.923409  0  -5.9e-05  0  0.016987  0.02808  0  3.896746  0
C  C47  1  0.85351216  0.02686313  0.61246089  1  0  0.009178  0  3.667062  0  0  0.026834  0  3.908424  0  0  0.025398  0  3.923271  0  -1.3e-05  0  0.016955  0.028049  0  3.896609  0
C  C48  1  0.89229872  0.39975929  0.85796195  1  0  -0.087925  0  3.62638  0  0  -0.122185  0  3.873804  0  0  -0.123775  0  3.889273  0  0.003623  0  -0.055152  -0.120986  0  3.8627  0
C  C49  1  0.10770164  0.10023836  0.35795560  1  0  -0.087704  0  3.626117  0  0  -0.122046  0  3.873523  0  0  -0.123642  0  3.888996  0  0.003524  0  -0.055122  -0.120847  0  3.86242  0
C  C50  1  0.10770381  0.60023902  0.14204158  1  0  -0.087764  0  3.626224  0  0  -0.122086  0  3.873662  0  0  -0.123682  0  3.889131  0  0.003292  0  -0.055114  -0.120888  0  3.862562  0
C  C51  1  0.89229042  0.89976196  0.64204510  1  0  -0.087792  0  3.626284  0  0  -0.122144  0  3.8737  0  0  -0.123741  0  3.889174  0  0.003194  0  -0.055136  -0.120943  0  3.862596  0
C  C52  1  0.03554069  0.37543647  0.85113531  1  0  0.128806  0  3.750035  0  0  0.132044  0  3.998534  0  0  0.133304  0  4.019579  0  0.524962  0  0.125484  0.130815  0  3.987191  0
C  C53  1  0.96446179  0.12456117  0.35113249  1  0  0.128778  0  3.749947  0  0  0.132037  0  3.998475  0  0  0.133296  0  4.019514  0  0.525127  0  0.125506  0.13081  0  3.987134  0
C  C54  1  0.96446312  0.62456586  0.14886610  1  0  0.128849  0  3.749781  0  0  0.132043  0  3.998369  0  0  0.133316  0  4.019386  0  0.525145  0  0.125558  0.130817  0  3.987028  0
C  C55  1  0.03553445  0.87543814  0.64886328  1  0  0.128757  0  3.749859  0  0  0.132063  0  3.998344  0  0  0.133329  0  4.019383  0  0.525647  0  0.125515  0.130836  0  3.987002  0
C  C56  1  0.22323918  0.69898520  0.89863777  1  0  0.630874  0  3.887885  0  0  0.57429  0  4.195592  0  0  0.606434  0  4.190926  0  1.560706  0  0.22269  0.55273  0  4.19923  0
C  C57  1  0.77676676  0.80101678  0.39863354  1  0  0.630906  0  3.887857  0  0  0.574279  0  4.195629  0  0  0.60642  0  4.190963  0  1.562106  0  0.222631  0.552717  0  4.199269  0
C  C58  1  0.77676781  0.30101713  0.10136786  1  0  0.630811  0  3.887893  0  0  0.57419  0  4.195666  0  0  0.606331  0  4.190998  0  1.562038  0  0.222615  0.552628  0  4.199306  0
C  C59  1  0.22323166  0.19898353  0.60136011  1  0  0.630732  0  3.887965  0  0  0.57422  0  4.19556  0  0  0.606364  0  4.19089  0  1.562092  0  0.222712  0.552658  0  4.1992  0
C  C60  1  0.69882185  0.54548071  0.90408598  1  0  0.717919  0  3.870493  0  0  0.670599  0  4.162422  0  0  0.706736  0  4.155027  0  1.638611  0  0.238629  0.646527  0  4.170303  0
C  C61  1  0.30117936  0.95451221  0.40408386  1  0  0.718385  0  3.870423  0  0  0.670932  0  4.162453  0  0  0.70707  0  4.155048  0  1.639145  0  0.238772  0.646861  0  4.170336  0
C  C62  1  0.30117735  0.45451457  0.09591543  1  0  0.718125  0  3.870619  0  0  0.670759  0  4.162527  0  0  0.706893  0  4.155128  0  1.639035  0  0.238704  0.646689  0  4.170407  0
C  C63  1  0.69881438  0.04548005  0.59592107  1  0  0.718314  0  3.87022  0  0  0.670869  0  4.162306  0  0  0.707007  0  4.154904  0  1.639085  0  0.238622  0.646799  0  4.170188  0
C  C64  1  0.08831212  0.23843247  0.82745877  1  0  0.628144  0  3.904477  0  0  0.579881  0  4.203367  0  0  0.61156  0  4.199002  0  1.576063  0  0.21603  0.558438  0  4.207372  0
C  C65  1  0.91168792  0.26155913  0.32745595  1  0  0.628112  0  3.904386  0  0  0.579833  0  4.203313  0  0  0.611515  0  4.198945  0  1.57566  0  0.215991  0.558388  0  4.207319  0
C  C66  1  0.91168613  0.76156483  0.17254052  1  0  0.627946  0  3.904447  0  0  0.579704  0  4.203328  0  0  0.61138  0  4.198967  0  1.575279  0  0.215945  0.55826  0  4.207332  0
C  C67  1  0.08830599  0.73843615  0.67253982  1  0  0.62801  0  3.904489  0  0  0.579661  0  4.203495  0  0  0.611339  0  4.199135  0  1.575982  0  0.21586  0.558217  0  4.2075  0
N  N68  1  0.13573844  0.47283144  0.86684567  1  0  -0.448772  0  3.379261  0  0  -0.407258  0  3.637424  0  0  -0.428668  0  3.659119  0  -1.259879  0  -0.408312  -0.39968  0  3.624874  0
N  N69  1  0.86426292  0.02716519  0.36684637  1  0  -0.448722  0  3.379373  0  0  -0.407229  0  3.637535  0  0  -0.428623  0  3.659224  0  -1.259835  0  -0.408341  -0.399654  0  3.62499  0
N  N70  1  0.86426214  0.52716988  0.13315645  1  0  -0.448822  0  3.379183  0  0  -0.407315  0  3.637381  0  0  -0.428716  0  3.659067  0  -1.259769  0  -0.408432  -0.399743  0  3.624836  0
N  N71  1  0.13573421  0.97283110  0.63315504  1  0  -0.448702  0  3.379228  0  0  -0.407214  0  3.637391  0  0  -0.428622  0  3.659087  0  -1.260044  0  -0.408334  -0.399641  0  3.624845  0
O  O72  1  0.34894995  0.64997106  0.89052572  1  0  -0.771198  0  2.074773  0  0  -0.701994  0  2.314406  0  0  -0.73901  0  2.301485  0  -1.187261  0  -0.379028  -0.68323  0  2.322192  0
O  O73  1  0.65105577  0.85002690  0.39053066  1  0  -0.771155  0  2.074855  0  0  -0.701916  0  2.314457  0  0  -0.738925  0  2.301558  0  -1.188567  0  -0.378993  -0.683153  0  2.322236  0
O  O74  1  0.65105715  0.35003329  0.10946723  1  0  -0.771166  0  2.074846  0  0  -0.701922  0  2.314411  0  0  -0.738944  0  2.301544  0  -1.188554  0  -0.378995  -0.683152  0  2.32218  0
O  O75  1  0.34894015  0.14996637  0.60947005  1  0  -0.771168  0  2.074859  0  0  -0.701984  0  2.314419  0  0  -0.73901  0  2.30154  0  -1.188542  0  -0.379026  -0.683212  0  2.322185  0
O  O76  1  0.20165329  0.81985018  0.91195208  1  0  -0.555033  0  1.914734  0  0  -0.50908  0  2.119317  0  0  -0.529495  0  2.108769  0  -1.151662  0  -0.292928  -0.494602  0  2.125818  0
O  O77  1  0.79835432  0.68014375  0.41194996  1  0  -0.555039  0  1.914561  0  0  -0.509081  0  2.119168  0  0  -0.529499  0  2.108624  0  -1.151672  0  -0.292919  -0.494601  0  2.12567  0
O  O78  1  0.79835225  0.18014511  0.08804792  1  0  -0.555018  0  1.914619  0  0  -0.509059  0  2.119221  0  0  -0.529475  0  2.108678  0  -1.151656  0  -0.292902  -0.49458  0  2.125722  0
O  O79  1  0.20164699  0.31985153  0.58804087  1  0  -0.554886  0  1.914743  0  0  -0.508956  0  2.119271  0  0  -0.529369  0  2.108727  0  -1.151614  0  -0.292898  -0.494478  0  2.125772  0
O  O80  1  0.66166108  0.58995692  0.98354757  1  0  -0.737402  0  2.061165  0  0  -0.688384  0  2.325578  0  0  -0.728945  0  2.313131  0  -1.205728  0  -0.390693  -0.669541  0  2.333643  0
O  O81  1  0.33834561  0.91005916  0.48354052  1  0  -0.737394  0  2.06133  0  0  -0.688377  0  2.325887  0  0  -0.728942  0  2.313443  0  -1.206166  0  -0.390689  -0.669537  0  2.333951  0
O  O82  1  0.33835117  0.41006454  0.01645807  1  0  -0.737372  0  2.061325  0  0  -0.688392  0  2.325864  0  0  -0.728964  0  2.313422  0  -1.206101  0  -0.390695  -0.66955  0  2.333925  0
O  O83  1  0.66164439  0.08994216  0.51645595  1  0  -0.737552  0  2.061037  0  0  -0.688524  0  2.325564  0  0  -0.729083  0  2.313115  0  -1.206052  0  -0.390708  -0.66968  0  2.333628  0
O  O84  1  0.61423658  0.50891040  0.83849965  1  0  -0.719408  0  2.016728  0  0  -0.668504  0  2.264734  0  0  -0.704474  0  2.247912  0  -1.193713  0  -0.389372  -0.650531  0  2.273126  0
O  O85  1  0.38577043  0.99107245  0.33848978  1  0  -0.719698  0  2.016417  0  0  -0.668783  0  2.264488  0  0  -0.704739  0  2.247663  0  -1.193896  0  -0.389435  -0.650805  0  2.272882  0
O  O86  1  0.38576462  0.49108287  0.16150810  1  0  -0.719559  0  2.016454  0  0  -0.668671  0  2.264468  0  0  -0.704625  0  2.247649  0  -1.193887  0  -0.389418  -0.650695  0  2.272859  0
O  O87  1  0.61422815  0.00893088  0.66150810  1  0  -0.719495  0  2.016669  0  0  -0.668568  0  2.264737  0  0  -0.704525  0  2.247909  0  -1.19408  0  -0.38927  -0.650594  0  2.273133  0
O  O88  1  0.00402419  0.14148253  0.81449542  1  0  -0.535179  0  1.871595  0  0  -0.501227  0  2.07133  0  0  -0.520586  0  2.064991  0  -1.150269  0  -0.305259  -0.487062  0  2.074854  0
O  O89  1  0.99597957  0.35851914  0.31449542  1  0  -0.535253  0  1.871253  0  0  -0.501292  0  2.070993  0  0  -0.520655  0  2.064654  0  -1.150059  0  -0.305275  -0.487127  0  2.074516  0
O  O90  1  0.99597878  0.85852383  0.18550106  1  0  -0.53517  0  1.871305  0  0  -0.501216  0  2.071016  0  0  -0.520579  0  2.064683  0  -1.149725  0  -0.305269  -0.487052  0  2.074538  0
O  O91  1  0.00401578  0.64148319  0.68550669  1  0  -0.535075  0  1.871553  0  0  -0.501089  0  2.071315  0  0  -0.52045  0  2.064979  0  -1.150352  0  -0.305127  -0.486924  0  2.074838  0
O  O92  1  0.22733808  0.23678524  0.82307259  1  0  -0.763124  0  2.048897  0  0  -0.698073  0  2.292088  0  0  -0.73786  0  2.278236  0  -1.168703  0  -0.415235  -0.678745  0  2.298745  0
O  O93  1  0.77266413  0.26320737  0.32307400  1  0  -0.763031  0  2.049085  0  0  -0.69801  0  2.292285  0  0  -0.737781  0  2.278434  0  -1.168648  0  -0.41519  -0.678673  0  2.298932  0
O  O94  1  0.77266345  0.76321407  0.17692600  1  0  -0.762966  0  2.049047  0  0  -0.697923  0  2.29221  0  0  -0.737698  0  2.278364  0  -1.168702  0  -0.415195  -0.678587  0  2.298851  0
O  O95  1  0.22733089  0.73678892  0.67692741  1  0  -0.763114  0  2.048885  0  0  -0.698034  0  2.292099  0  0  -0.737815  0  2.278251  0  -1.168826  0  -0.415195  -0.678698  0  2.298745  0
O  O96  1  0.51987624  0.25177745  0.93796547  1  0  -0.890528  0  1.850255  0  0  -0.842628  0  2.035145  0  0  -0.86973  0  1.996035  0  -1.250261  0  -0.621385  -0.83087  0  2.05765  0
O  O97  1  0.48011416  0.24821214  0.43796195  1  0  -0.89054  0  1.850372  0  0  -0.842645  0  2.035219  0  0  -0.869737  0  1.996115  0  -1.250233  0  -0.621391  -0.830891  0  2.057728  0
O  O98  1  0.48011783  0.74822086  0.06203946  1  0  -0.890475  0  1.850313  0  0  -0.842589  0  2.035181  0  0  -0.869685  0  1.99607  0  -1.250246  0  -0.621358  -0.830834  0  2.057691  0
O  O99  1  0.51988308  0.75178616  0.56203735  1  0  -0.890558  0  1.850279  0  0  -0.842663  0  2.035163  0  0  -0.869763  0  1.996054  0  -1.25026  0  -0.621419  -0.830908  0  2.05767  0
O  O100  1  0.51157312  0.28595545  0.74157153  1  0  -0.870414  0  1.849464  0  0  -0.822215  0  2.03985  0  0  -0.850322  0  2.006758  0  -1.25625  0  -0.619379  -0.808922  0  2.059651  0
O  O101  1  0.48842413  0.21404320  0.24157294  1  0  -0.870351  0  1.84946  0  0  -0.822161  0  2.039822  0  0  -0.850256  0  2.00674  0  -1.256329  0  -0.619331  -0.808868  0  2.059622  0
O  O102  1  0.48842831  0.71404185  0.25842706  1  0  -0.870404  0  1.849529  0  0  -0.822202  0  2.039928  0  0  -0.8503  0  2.006843  0  -1.256128  0  -0.619385  -0.808908  0  2.059728  0
O  O103  1  0.51157434  0.78595812  0.75842636  1  0  -0.870381  0  1.849567  0  0  -0.822181  0  2.039974  0  0  -0.850282  0  2.006885  0  -1.256131  0  -0.619381  -0.808893  0  2.059775  0
O  O104  1  0.33690131  0.50078803  0.70522763  1  0  -0.944374  0  1.842409  0  0  -0.895528  0  2.03647  0  0  -0.927687  0  1.995056  0  -1.277445  0  -0.66127  -0.880876  0  2.060041  0
O  O105  1  0.66310139  0.99921295  0.20522903  1  0  -0.944451  0  1.842427  0  0  -0.895631  0  2.036508  0  0  -0.927775  0  1.995083  0  -1.277425  0  -0.661273  -0.880977  0  2.060083  0
O  O106  1  0.66310000  0.49920725  0.29477026  1  0  -0.944325  0  1.842519  0  0  -0.89548  0  2.036513  0  0  -0.927628  0  1.995109  0  -1.277478  0  -0.661216  -0.880829  0  2.060084  0
O  O107  1  0.33689830  0.00079140  0.79476956  1  0  -0.944375  0  1.84248  0  0  -0.895506  0  2.036514  0  0  -0.927655  0  1.995098  0  -1.277443  0  -0.661231  -0.880855  0  2.060082  0
