# generated using pymatgen
data_CuH8C12(N2Cl)2
_symmetry_space_group_name_H-M   'P 1'
_cell_length_a   3.77143795
_cell_length_b   6.88045185
_cell_length_c   25.82385045
_cell_angle_alpha   90.00017800
_cell_angle_beta   90.00117767
_cell_angle_gamma   97.74970060
_symmetry_Int_Tables_number   1
_chemical_formula_structural   CuH8C12(N2Cl)2
_chemical_formula_sum   'Cu2 H16 C24 N8 Cl4'
_cell_volume   663.98782356
_cell_formula_units_Z   2
loop_
 _symmetry_equiv_pos_site_id
 _symmetry_equiv_pos_as_xyz
  1  'x, y, z'
loop_
 _atom_site_type_symbol
 _atom_site_label
 _atom_site_symmetry_multiplicity
 _atom_site_fract_x
 _atom_site_fract_y
 _atom_site_fract_z
 _atom_site_occupancy
 _atom_site_hse06_10hf_bader_spin_density
 _atom_site_hse06_10hf_ddec_charge
 _atom_site_hse06_10hf_ddec_spin_density
 _atom_site_hse06_10hf_ddec_sum_bond_order
 _atom_site_hse06_10hf_magmom
 _atom_site_hse06_bader_spin_density
 _atom_site_hse06_ddec_charge
 _atom_site_hse06_ddec_spin_density
 _atom_site_hse06_ddec_sum_bond_order
 _atom_site_hse06_magmom
 _atom_site_pbe_bader_spin_density
 _atom_site_pbe_cm5_charge
 _atom_site_pbe_ddec_charge
 _atom_site_pbe_ddec_spin_density
 _atom_site_pbe_ddec_sum_bond_order
 _atom_site_pbe_magmom
Cu  Cu0  1  0.00001621  0.49999585  0.00000047  1  0  0.633809  0  2.355035  0  0  0.657586  0  2.312661  0  0  0.576461  0.619722  0  2.383511  0
Cu  Cu1  1  0.50001987  0.00000310  0.50000089  1  0  0.63494  0  2.35435  0  0  0.657591  0  2.312671  0  0  0.576473  0.619757  0  2.383466  0
H  H2  1  0.28729311  0.60841984  0.19093447  1  0  0.13771  0  1.027784  0  0  0.141471  0  1.025779  0  0  0.113513  0.135073  0  1.029276  0
H  H3  1  0.21266912  0.89154750  0.69093228  1  0  0.137733  0  1.027705  0  0  0.141496  0  1.025711  0  0  0.113521  0.135093  0  1.029202  0
H  H4  1  0.71268167  0.39158157  0.80906593  1  0  0.137763  0  1.027726  0  0  0.141521  0  1.025723  0  0  0.113541  0.135122  0  1.029214  0
H  H5  1  0.78730344  0.10844364  0.30906619  1  0  0.13769  0  1.027698  0  0  0.14145  0  1.025709  0  0  0.113518  0.135043  0  1.029195  0
H  H6  1  0.22165746  0.42534440  0.10619408  1  0  0.093783  0  1.034611  0  0  0.096508  0  1.031982  0  0  0.105359  0.091507  0  1.036949  0
H  H7  1  0.27835725  0.07464129  0.60619273  1  0  0.093723  0  1.034471  0  0  0.096512  0  1.031766  0  0  0.10535  0.091447  0  1.03681  0
H  H8  1  0.77836270  0.57467059  0.89380632  1  0  0.093773  0  1.034449  0  0  0.096553  0  1.031755  0  0  0.105353  0.091497  0  1.036791  0
H  H9  1  0.72163847  0.92535884  0.39380806  1  0  0.093725  0  1.034471  0  0  0.096511  0  1.031766  0  0  0.105355  0.091449  0  1.036804  0
H  H10  1  0.86087250  0.89415850  0.03131970  1  0  0.097361  0  1.040804  0  0  0.100056  0  1.038072  0  0  0.103674  0.095199  0  1.04308  0
H  H11  1  0.63919889  0.60583485  0.53132107  1  0  0.097385  0  1.041018  0  0  0.100082  0  1.038284  0  0  0.103663  0.095233  0  1.043296  0
H  H12  1  0.13914396  0.10582718  0.96867450  1  0  0.097422  0  1.040828  0  0  0.100119  0  1.038092  0  0  0.103682  0.09526  0  1.043103  0
H  H13  1  0.36086049  0.39417756  0.46868126  1  0  0.097549  0  1.040945  0  0  0.100248  0  1.038206  0  0  0.103751  0.095392  0  1.043219  0
H  H14  1  0.90725704  0.09599726  0.11097158  1  0  0.128506  0  1.023513  0  0  0.131829  0  1.022344  0  0  0.103049  0.126013  0  1.024734  0
H  H15  1  0.59279658  0.40399216  0.61097176  1  0  0.128554  0  1.023528  0  0  0.131873  0  1.022372  0  0  0.103016  0.126049  0  1.024769  0
H  H16  1  0.09268003  0.90398917  0.88902534  1  0  0.128501  0  1.023568  0  0  0.13183  0  1.022392  0  0  0.103016  0.126007  0  1.024795  0
H  H17  1  0.40724622  0.59601718  0.38902787  1  0  0.1286  0  1.023488  0  0  0.131927  0  1.022319  0  0  0.103081  0.126098  0  1.024727  0
C  C18  1  0.13894245  0.98081095  0.20397769  1  0  0.266463  0  3.978267  0  0  0.276601  0  3.99421  0  0  0.19962  0.2597  0  3.967383  0
C  C19  1  0.36104893  0.51917166  0.70397346  1  0  0.266353  0  3.978363  0  0  0.276532  0  3.994277  0  0  0.199587  0.259643  0  3.967458  0
C  C20  1  0.86098610  0.01919736  0.79602697  1  0  0.26606  0  3.977523  0  0  0.276199  0  3.993461  0  0  0.19941  0.259299  0  3.966645  0
C  C21  1  0.63892799  0.48081513  0.29602694  1  0  0.26619  0  3.978366  0  0  0.276368  0  3.994282  0  0  0.199422  0.259484  0  3.967457  0
C  C22  1  0.10228284  0.86702637  0.15762048  1  0  0.092074  0  4.082507  0  0  0.095233  0  4.10165  0  0  0.023846  0.09035  0  4.069372  0
C  C23  1  0.39773866  0.63296836  0.65761716  1  0  0.0923  0  4.082827  0  0  0.09546  0  4.101967  0  0  0.023883  0.090564  0  4.069701  0
C  C24  1  0.89768695  0.13297645  0.84237760  1  0  0.092304  0  4.082816  0  0  0.095466  0  4.101951  0  0  0.023903  0.090581  0  4.069684  0
C  C25  1  0.60227535  0.36703048  0.34238285  1  0  0.092206  0  4.082965  0  0  0.095374  0  4.102101  0  0  0.02387  0.090475  0  4.069835  0
C  C26  1  0.18917946  0.67495987  0.15645188  1  0  -0.142291  0  3.90504  0  0  -0.148552  0  3.924824  0  0  -0.0655  -0.138229  0  3.89175  0
C  C27  1  0.31081020  0.82501112  0.65644800  1  0  -0.142522  0  3.905292  0  0  -0.148795  0  3.925119  0  0  -0.06555  -0.138479  0  3.892035  0
C  C28  1  0.81082222  0.32504324  0.84354930  1  0  -0.142439  0  3.905207  0  0  -0.1487  0  3.924991  0  0  -0.065559  -0.138373  0  3.891914  0
C  C29  1  0.68918255  0.17498752  0.34355395  1  0  -0.142397  0  3.905363  0  0  -0.14868  0  3.925193  0  0  -0.065559  -0.138356  0  3.892092  0
C  C30  1  0.15232699  0.57339728  0.10992854  1  0  0.097352  0  3.921852  0  0  0.103533  0  3.939806  0  0  0.045257  0.093572  0  3.910062  0
C  C31  1  0.34768011  0.92658864  0.60992596  1  0  0.097612  0  3.92149  0  0  0.103745  0  3.939389  0  0  0.045353  0.093806  0  3.909691  0
C  C32  1  0.84771018  0.42661054  0.89006954  1  0  0.097429  0  3.921628  0  0  0.10357  0  3.93956  0  0  0.04527  0.093632  0  3.90984  0
C  C33  1  0.65232687  0.07341452  0.39007444  1  0  0.097536  0  3.921396  0  0  0.103666  0  3.939301  0  0  0.045331  0.093744  0  3.909587  0
C  C34  1  0.95644142  0.83691529  0.06727419  1  0  0.112657  0  3.904563  0  0  0.119326  0  3.922261  0  0  0.049733  0.108403  0  3.892962  0
C  C35  1  0.54360309  0.66307592  0.56727144  1  0  0.112488  0  3.904812  0  0  0.119148  0  3.922496  0  0  0.049683  0.108214  0  3.893196  0
C  C36  1  0.04357790  0.16308359  0.93272312  1  0  0.112367  0  3.904726  0  0  0.119032  0  3.922424  0  0  0.049581  0.108105  0  3.893113  0
C  C37  1  0.45645236  0.33693060  0.43273051  1  0  0.11238  0  3.905115  0  0  0.119038  0  3.922797  0  0  0.049638  0.108124  0  3.893492  0
C  C38  1  0.98210375  0.94869238  0.11226947  1  0  -0.147221  0  3.91323  0  0  -0.154079  0  3.934356  0  0  -0.071453  -0.142964  0  3.899404  0
C  C39  1  0.51793625  0.55129569  0.61226970  1  0  -0.147246  0  3.912909  0  0  -0.154116  0  3.934056  0  0  -0.07138  -0.142988  0  3.899119  0
C  C40  1  0.01788210  0.05129888  0.88772784  1  0  -0.147201  0  3.913031  0  0  -0.154063  0  3.934144  0  0  -0.07139  -0.142946  0  3.899219  0
C  C41  1  0.48209922  0.44871651  0.38773186  1  0  -0.147147  0  3.912707  0  0  -0.154018  0  3.933842  0  0  -0.071346  -0.142893  0  3.898907  0
N  N42  1  0.17092898  0.07910782  0.24093799  1  0  -0.354137  0  2.802193  0  0  -0.36463  0  2.815551  0  0  -0.283904  -0.346974  0  2.793214  0
N  N43  1  0.32902772  0.42085925  0.74093110  1  0  -0.354135  0  2.802188  0  0  -0.364671  0  2.81553  0  0  -0.283947  -0.347037  0  2.793198  0
N  N44  1  0.82893305  0.92087501  0.75906048  1  0  -0.353855  0  2.800717  0  0  -0.364352  0  2.814081  0  0  -0.28373  -0.346688  0  2.791736  0
N  N45  1  0.67093135  0.57911860  0.25906504  1  0  -0.353992  0  2.801935  0  0  -0.36453  0  2.815281  0  0  -0.283813  -0.346898  0  2.792944  0
N  N46  1  0.04025072  0.65324605  0.06622693  1  0  -0.198352  0  3.628518  0  0  -0.213945  0  3.644516  0  0  -0.338878  -0.188689  0  3.618334  0
N  N47  1  0.45978407  0.84673886  0.56622581  1  0  -0.198377  0  3.628764  0  0  -0.213979  0  3.644782  0  0  -0.338873  -0.18866  0  3.618506  0
N  N48  1  0.95977626  0.34675143  0.93377231  1  0  -0.198214  0  3.628469  0  0  -0.213811  0  3.644482  0  0  -0.338762  -0.188522  0  3.618244  0
N  N49  1  0.54025171  0.15327480  0.43377653  1  0  -0.198432  0  3.628847  0  0  -0.214029  0  3.644866  0  0  -0.338967  -0.188752  0  3.618635  0
Cl  Cl50  1  0.42592908  0.72838818  0.96243427  1  0  -0.501024  0  1.335417  0  0  -0.512115  0  1.31391  0  0  -0.272533  -0.492793  0  1.35103  0
Cl  Cl51  1  0.07407310  0.77162387  0.46243515  1  0  -0.501112  0  1.335338  0  0  -0.512115  0  1.313923  0  0  -0.272522  -0.492778  0  1.351033  0
Cl  Cl52  1  0.57407132  0.27160907  0.03756303  1  0  -0.501057  0  1.33543  0  0  -0.51214  0  1.313905  0  0  -0.272553  -0.492827  0  1.351035  0
Cl  Cl53  1  0.92595578  0.22838241  0.53756912  1  0  -0.501148  0  1.335336  0  0  -0.512137  0  1.313902  0  0  -0.272544  -0.492808  0  1.351024  0
