# generated using pymatgen
data_NiH6C8(NO2)2
_symmetry_space_group_name_H-M   'P 1'
_cell_length_a   6.87427414
_cell_length_b   7.15598385
_cell_length_c   8.62115101
_cell_angle_alpha   90.00092485
_cell_angle_beta   112.84209950
_cell_angle_gamma   89.99903337
_symmetry_Int_Tables_number   1
_chemical_formula_structural   NiH6C8(NO2)2
_chemical_formula_sum   'Ni2 H12 C16 N4 O8'
_cell_volume   390.83516225
_cell_formula_units_Z   2
loop_
 _symmetry_equiv_pos_site_id
 _symmetry_equiv_pos_as_xyz
  1  'x, y, z'
loop_
 _atom_site_type_symbol
 _atom_site_label
 _atom_site_symmetry_multiplicity
 _atom_site_fract_x
 _atom_site_fract_y
 _atom_site_fract_z
 _atom_site_occupancy
 _atom_site_hle17_ddec_charge
 _atom_site_hle17_ddec_spin_density
 _atom_site_hle17_ddec_sum_bond_order
 _atom_site_hle17_magmom
 _atom_site_hse06_10hf_ddec_charge
 _atom_site_hse06_10hf_ddec_spin_density
 _atom_site_hse06_10hf_ddec_sum_bond_order
 _atom_site_hse06_10hf_magmom
 _atom_site_hse06_ddec_charge
 _atom_site_hse06_ddec_spin_density
 _atom_site_hse06_ddec_sum_bond_order
 _atom_site_hse06_magmom
 _atom_site_pbe_cm5_charge
 _atom_site_pbe_ddec_charge
 _atom_site_pbe_ddec_spin_density
 _atom_site_pbe_ddec_sum_bond_order
 _atom_site_pbe_magmom
Ni  Ni0  1  0.49999900  0.00000082  0.50000049  1  0.869682  1.798851  1.995998  1.507  0.875817  1.84441  2.388468  1.626  0.964537  1.908725  2.316287  1.718  0.658234  0.810364  1.779615  2.4461  1.54
Ni  Ni1  1  0.50000383  0.49999990  0.00000009  1  0.869747  -1.798854  1.995885  -1.507  0.875793  -1.844402  2.388534  -1.626  0.964636  -1.908726  2.31619  -1.718  0.658212  0.810371  -1.779648  2.446097  -1.54
H  H2  1  0.00690706  0.45302303  0.37369524  1  0.129441  -0.000101  0.964404  0.0  0.149825  2e-06  1.022846  0.0  0.151142  1.7e-05  1.023661  0.0  0.096839  0.148801  -1.7e-05  1.022229  0.0
H  H3  1  0.99308989  0.95301801  0.12630381  1  0.129443  9.8e-05  0.964444  0.0  0.149817  -2e-06  1.022884  0.0  0.15113  -1.7e-05  1.023699  0.0  0.096838  0.148792  1.7e-05  1.022269  0.0
H  H4  1  0.99309235  0.54698086  0.62630598  1  0.129428  -0.000106  0.964479  0.0  0.149805  2e-06  1.022923  0.0  0.151118  1.7e-05  1.023739  0.0  0.096819  0.14878  -1.7e-05  1.022304  0.0
H  H5  1  0.00691272  0.04697610  0.87369493  1  0.129465  0.0001  0.964388  0.0  0.149824  -2e-06  1.022846  0.0  0.151147  -1.7e-05  1.023647  0.0  0.096848  0.1488  1.7e-05  1.022231  0.0
H  H6  1  0.15779360  0.32698235  0.28146285  1  0.140393  -0.000165  0.96533  0.0  0.158881  -9.8e-05  1.027809  0.0  0.159958  -9.1e-05  1.028698  0.0  0.101535  0.158048  -9.9e-05  1.027146  0.0
H  H7  1  0.84221441  0.82697736  0.21854495  1  0.140387  0.000165  0.96544  0.0  0.158869  9.8e-05  1.027909  0.0  0.159946  9.1e-05  1.028799  0.0  0.101528  0.158035  9.9e-05  1.027244  0.0
H  H8  1  0.84220739  0.67302294  0.71853888  1  0.140342  -0.000172  0.9654  0.0  0.158817  -9.8e-05  1.027893  0.0  0.159893  -9.1e-05  1.028782  0.0  0.101498  0.157984  -9.9e-05  1.027226  0.0
H  H9  1  0.15779291  0.17301815  0.78145761  1  0.140389  0.000168  0.965412  0.0  0.158872  9.8e-05  1.027875  0.0  0.159948  9.1e-05  1.028766  0.0  0.101518  0.158035  9.9e-05  1.027207  0.0
H  H10  1  0.27552086  0.38494756  0.49571025  1  0.144016  3.4e-05  0.925962  0.0  0.163198  3.1e-05  0.984375  0.0  0.165477  -0.0  0.982937  0.0  0.104415  0.161234  6.3e-05  0.985641  0.0
H  H11  1  0.72447375  0.88494310  0.00429527  1  0.143989  -3.5e-05  0.926056  0.0  0.163203  -3.1e-05  0.984395  0.0  0.165482  1e-06  0.982956  0.0  0.10442  0.161241  -6.3e-05  0.985664  0.0
H  H12  1  0.72448484  0.61505913  0.50429527  1  0.144035  2.9e-05  0.926022  0.0  0.163233  3.1e-05  0.984381  0.0  0.165514  -0.0  0.982938  0.0  0.104451  0.16127  6.3e-05  0.985649  0.0
H  H13  1  0.27552410  0.11505241  0.99570430  1  0.143971  -3.3e-05  0.926031  0.0  0.163186  -3.1e-05  0.98438  0.0  0.165465  0.0  0.982942  0.0  0.104413  0.161222  -6.3e-05  0.985648  0.0
C  C14  1  0.84567205  0.12144385  0.41813036  1  0.023294  -0.005456  3.645293  -0.007  0.024797  -0.002371  3.888581  -0.003  0.02595  -0.001836  3.901052  -0.003  0.126432  0.021732  -0.003358  3.883168  -0.004
C  C15  1  0.15433228  0.62144170  0.08187930  1  0.023479  0.005453  3.645261  0.007  0.025066  0.00237  3.888421  0.003  0.026224  0.001836  3.900892  0.003  0.126471  0.021996  0.00336  3.882995  0.004
C  C16  1  0.15432734  0.87856004  0.58187318  1  0.023328  -0.005441  3.645407  -0.007  0.024903  -0.002369  3.888588  -0.003  0.02606  -0.001837  3.901056  -0.003  0.126439  0.021832  -0.003357  3.883176  -0.004
C  C17  1  0.84566399  0.37855381  0.91811978  1  0.023436  0.005462  3.64527  0.007  0.024965  0.00237  3.88848  0.003  0.026116  0.001836  3.900956  0.003  0.126466  0.0219  0.003359  3.883055  0.004
C  C18  1  0.05585793  0.16352014  0.44263106  1  0.293188  -0.000202  3.636075  -0.001  0.291006  0.00098  3.895961  0.001  0.299989  0.000535  3.910228  0.0  0.146708  0.283967  0.001475  3.88829  0.001
C  C19  1  0.94413637  0.66351457  0.05737717  1  0.293055  0.000222  3.635969  0.001  0.290824  -0.00098  3.895894  -0.001  0.299808  -0.000534  3.91016  0.0  0.14667  0.283788  -0.001474  3.888214  -0.001
C  C20  1  0.94413355  0.83648236  0.55737231  1  0.293187  -0.000218  3.635898  -0.001  0.290962  0.00098  3.895819  0.001  0.299944  0.000535  3.910084  0.0  0.146706  0.283927  0.001475  3.888156  0.001
C  C21  1  0.05586306  0.33648094  0.94262290  1  0.293158  0.000201  3.635837  0.001  0.290931  -0.00098  3.895764  -0.001  0.299917  -0.000534  3.910035  0.0  0.146714  0.283895  -0.001474  3.88808  -0.001
C  C22  1  0.65640196  0.23391662  0.30853898  1  0.633587  0.000206  3.877031  0.0  0.592776  0.000363  4.176814  0.0  0.631449  0.000188  4.168553  0.0  0.223351  0.565574  0.000581  4.180936  0.001
C  C23  1  0.34359307  0.73391215  0.19146232  1  0.633566  -0.000209  3.87708  0.0  0.592754  -0.000362  4.176831  0.0  0.631428  -0.000187  4.16857  0.0  0.223354  0.565553  -0.000578  4.180954  -0.001
C  C24  1  0.34359278  0.76609286  0.69145382  1  0.633592  0.000209  3.87674  0.0  0.592785  0.000361  4.176501  0.0  0.631458  0.000186  4.168242  0.0  0.223337  0.565582  0.000579  4.180629  0.001
C  C25  1  0.65641270  0.26608616  0.80853627  1  0.633574  -0.000204  3.876719  0.0  0.592863  -0.000362  4.176349  0.0  0.631541  -0.000187  4.168082  0.0  0.223378  0.565659  -0.000578  4.18048  -0.001
C  C26  1  0.12561190  0.34411343  0.39546283  1  -0.378916  0.001067  3.676339  0.002  -0.467285  0.000814  3.922264  0.002  -0.470114  0.00053  3.928152  0.001  -0.24582  -0.464815  0.001141  3.918455  0.002
C  C27  1  0.87438322  0.84412108  0.10454462  1  -0.378881  -0.001061  3.676448  -0.002  -0.467218  -0.000814  3.92232  -0.002  -0.470043  -0.000531  3.928205  -0.001  -0.245815  -0.464745  -0.001141  3.918504  -0.002
C  C28  1  0.87438590  0.65588207  0.60454137  1  -0.378903  0.001095  3.676344  0.002  -0.467227  0.000814  3.922221  0.002  -0.470049  0.000529  3.928107  0.001  -0.245807  -0.464756  0.001142  3.918411  0.002
C  C29  1  0.12561620  0.15588001  0.89545545  1  -0.378901  -0.001072  3.676393  -0.002  -0.46722  -0.000814  3.922284  -0.002  -0.470053  -0.000531  3.928161  -0.001  -0.245816  -0.464748  -0.001141  3.918467  -0.002
N  N30  1  0.79422730  0.96425140  0.47889711  1  -0.290239  0.044336  3.235844  0.066  -0.266601  0.032166  3.519224  0.049  -0.284618  0.025569  3.53191  0.04  -0.296869  -0.254875  0.037608  3.513102  0.055
N  N31  1  0.20577582  0.46424918  0.02110289  1  -0.290306  -0.044328  3.235667  -0.066  -0.266653  -0.032164  3.518988  -0.049  -0.284692  -0.025567  3.531676  -0.04  -0.296845  -0.254923  -0.037601  3.512838  -0.055
N  N32  1  0.20577211  0.03575249  0.52110412  1  -0.290307  0.044324  3.235848  0.066  -0.266664  0.032164  3.51915  0.049  -0.284681  0.025569  3.531834  0.04  -0.296872  -0.254923  0.037606  3.513014  0.055
N  N33  1  0.79422362  0.53574913  0.97889487  1  -0.290306  -0.044348  3.235766  -0.066  -0.266674  -0.032166  3.519155  -0.049  -0.284711  -0.02557  3.531842  -0.04  -0.296878  -0.25495  -0.037603  3.513011  -0.055
O  O34  1  0.48566049  0.20773871  0.32940416  1  -0.555809  0.054901  2.076601  0.086  -0.535643  0.035125  2.346428  0.057  -0.573434  0.027022  2.339172  0.045  -0.291308  -0.507104  0.042883  2.350132  0.067
O  O35  1  0.51434120  0.70774505  0.17059772  1  -0.555865  -0.054902  2.076537  -0.086  -0.535724  -0.035126  2.346416  -0.057  -0.573535  -0.027022  2.33915  -0.045  -0.291355  -0.50718  -0.042878  2.350084  -0.067
O  O36  1  0.51434052  0.79226518  0.67059525  1  -0.555791  0.054894  2.076594  0.086  -0.535634  0.035125  2.346427  0.057  -0.573422  0.027023  2.339168  0.045  -0.291289  -0.507101  0.042881  2.350139  0.067
O  O37  1  0.48565984  0.29225744  0.82939822  1  -0.555827  -0.054906  2.076379  -0.086  -0.535735  -0.035129  2.346224  -0.057  -0.573549  -0.027024  2.338956  -0.045  -0.291359  -0.507191  -0.042881  2.349895  -0.067
O  O38  1  0.68264746  0.33461427  0.19746194  1  -0.573759  -0.040599  2.131443  -0.065  -0.548814  -0.027395  2.403803  -0.045  -0.588053  -0.021834  2.397028  -0.036  -0.29439  -0.517714  -0.032321  2.406267  -0.052
O  O39  1  0.31734776  0.83460259  0.30254773  1  -0.573765  0.040609  2.131399  0.065  -0.548862  0.027398  2.403786  0.045  -0.588065  0.021837  2.396981  0.036  -0.294387  -0.517757  0.03233  2.40626  0.052
O  O40  1  0.31734396  0.66538263  0.80254721  1  -0.573818  -0.040627  2.131001  -0.065  -0.548899  -0.027407  2.403383  -0.045  -0.588145  -0.021842  2.396606  -0.036  -0.294394  -0.51779  -0.032337  2.405839  -0.052
O  O41  1  0.68265490  0.16539711  0.69744523  1  -0.573781  0.040615  2.131181  0.065  -0.548917  0.027401  2.403559  0.045  -0.588111  0.02184  2.396727  0.036  -0.294395  -0.517809  0.032333  2.40603  0.052
