# generated using pymatgen
data_BiP2H36C24(BrO2)3
_symmetry_space_group_name_H-M   'P 1'
_cell_length_a   13.01473993
_cell_length_b   15.13771057
_cell_length_c   18.37098864
_cell_angle_alpha   91.08850018
_cell_angle_beta   94.03283562
_cell_angle_gamma   93.56375652
_symmetry_Int_Tables_number   1
_chemical_formula_structural   BiP2H36C24(BrO2)3
_chemical_formula_sum   'Bi4 P8 H144 C96 Br12 O24'
_cell_volume   3602.39423840
_cell_formula_units_Z   4
loop_
 _symmetry_equiv_pos_site_id
 _symmetry_equiv_pos_as_xyz
  1  'x, y, z'
loop_
 _atom_site_type_symbol
 _atom_site_label
 _atom_site_symmetry_multiplicity
 _atom_site_fract_x
 _atom_site_fract_y
 _atom_site_fract_z
 _atom_site_occupancy
 _atom_site_pbe_bader_charge
 _atom_site_pbe_bader_spin_density
 _atom_site_pbe_cm5_charge
 _atom_site_pbe_ddec_charge
 _atom_site_pbe_ddec_spin_density
 _atom_site_pbe_ddec_sum_bond_order
 _atom_site_pbe_magmom
Bi  Bi0  1  0.05758124  0.97629455  0.39493228  1  1.607479  0  0.598885  1.203548  0  2.951441  0
Bi  Bi1  1  0.94241799  0.02370981  0.60506482  1  1.60733  0  0.598856  1.203534  0  2.95144  0
Bi  Bi2  1  0.65110132  0.48560833  0.96989102  1  1.65197  0  0.619811  1.2088  0  3.032576  0
Bi  Bi3  1  0.34889613  0.51439271  0.03010866  1  1.651851  0  0.619834  1.208861  0  3.0326  0
P  P4  1  0.09420977  0.16042631  0.25523638  1  3.347416  0  0.407604  1.168383  0  5.249321  0
P  P5  1  0.90579308  0.83957472  0.74476355  1  3.347369  0  0.407549  1.168267  0  5.249524  0
P  P6  1  0.22993007  0.08704443  0.69228384  1  3.369232  0  0.408141  1.173185  0  5.237277  0
P  P7  1  0.77007043  0.91295594  0.30771761  1  3.368879  0  0.40815  1.173284  0  5.237089  0
P  P8  1  0.68911975  0.30014020  0.11270716  1  3.355233  0  0.417744  1.191343  0  5.222233  0
P  P9  1  0.31087991  0.69985951  0.88729151  1  3.35492  0  0.417718  1.191282  0  5.222076  0
P  P10  1  0.25106772  0.69049994  0.15417171  1  3.348736  0  0.418814  1.197673  0  5.218286  0
P  P11  1  0.74893118  0.30949977  0.84582911  1  3.348666  0  0.418727  1.197525  0  5.218546  0
H  H12  1  0.17587107  0.28562989  0.15167239  1  0.080253  0  0.101472  0.104139  0  1.024445  0
H  H13  1  0.82412870  0.71437114  0.84832794  1  0.080274  0  0.101453  0.104056  0  1.024465  0
H  H14  1  0.21122398  0.26960028  0.02314238  1  0.079854  0  0.095236  0.093009  0  1.052514  0
H  H15  1  0.78877435  0.73040209  0.97685736  1  0.079888  0  0.095232  0.093048  0  1.052535  0
H  H16  1  0.13863711  0.98753795  0.03122409  1  0.079803  0  0.104202  0.106352  0  1.013059  0
H  H17  1  0.86136795  0.01246175  0.96877646  1  0.079773  0  0.104205  0.106377  0  1.013104  0
H  H18  1  0.10009783  0.00437303  0.16081275  1  0.116764  0  0.109595  0.113644  0  0.997501  0
H  H19  1  0.89990883  0.99562733  0.83918843  1  0.116747  0  0.109605  0.113641  0  0.99747  0
H  H20  1  0.30878100  0.22558024  0.93698324  1  0.097251  0  0.094608  0.102271  0  1.03512  0
H  H21  1  0.69121876  0.77442079  0.06301546  1  0.097247  0  0.094641  0.102307  0  1.035063  0
H  H22  1  0.32769671  0.21242201  0.80483448  1  0.094923  0  0.106449  0.105104  0  1.001898  0
H  H23  1  0.67230222  0.78757837  0.19516308  1  0.094947  0  0.106415  0.105083  0  1.00185  0
H  H24  1  0.08968019  0.99990053  0.78634084  1  0.089967  0  0.105096  0.104086  0  1.018521  0
H  H25  1  0.91031944  0.00009851  0.21366054  1  0.090132  0  0.105086  0.10407  0  1.018536  0
H  H26  1  0.07047675  0.01296953  0.91915049  1  0.074608  0  0.097682  0.092006  0  1.045812  0
H  H27  1  0.92952612  0.98703149  0.08085162  1  0.074553  0  0.097669  0.092009  0  1.045782  0
H  H28  1  0.25296338  0.18130994  0.37675272  1  0.074558  0  0.092588  0.034462  0  1.006473  0
H  H29  1  0.74703798  0.81869175  0.62324715  1  0.074585  0  0.092564  0.034448  0  1.006449  0
H  H30  1  0.23692444  0.34381496  0.40092448  1  0.039059  0  0.092429  0.128843  0  1.00167  0
H  H31  1  0.76307696  0.65618740  0.59907431  1  0.039031  0  0.092449  0.1289  0  1.001688  0
H  H32  1  0.30836879  0.36891592  0.32351991  1  0.050878  0  0.08772  0.127637  0  1.022677  0
H  H33  1  0.69163246  0.63108445  0.67647885  1  0.050825  0  0.087709  0.12766  0  1.022642  0
H  H34  1  0.36900341  0.31918069  0.40117436  1  0.012367  0  0.095377  0.133933  0  0.986394  0
H  H35  1  0.63099794  0.68082101  0.59882442  1  0.012369  0  0.095415  0.133992  0  0.98636  0
H  H36  1  0.31964235  0.13093317  0.26151858  1  0.015925  0  0.087142  0.121143  0  1.038601  0
H  H37  1  0.68035968  0.86906720  0.73848185  1  0.015908  0  0.087141  0.121162  0  1.038537  0
H  H38  1  0.41806631  0.19576285  0.31252470  1  0.046045  0  0.095021  0.136795  0  1.019966  0
H  H39  1  0.58193429  0.80423884  0.68747568  1  0.046058  0  0.095032  0.136807  0  1.019956  0
H  H40  1  0.34995788  0.24280008  0.23680358  1  0.053425  0  0.083427  0.132626  0  1.030153  0
H  H41  1  0.65004338  0.75720029  0.76319627  1  0.05344  0  0.083453  0.132665  0  1.030127  0
H  H42  1  0.98861807  0.22330337  0.35860181  1  0.066398  0  0.092924  0.031553  0  1.013197  0
H  H43  1  0.01137904  0.77669303  0.64139886  1  0.066376  0  0.092886  0.031557  0  1.013225  0
H  H44  1  0.83975410  0.12069681  0.31938421  1  0.033773  0  0.088557  0.136411  0  1.025851  0
H  H45  1  0.16024012  0.87930225  0.68061475  1  0.033786  0  0.088546  0.136417  0  1.025895  0
H  H46  1  0.78540257  0.20408577  0.26310580  1  0.049002  0  0.090009  0.133539  0  1.016552  0
H  H47  1  0.21459637  0.79591461  0.73689339  1  0.04905  0  0.090011  0.133571  0  1.016566  0
H  H48  1  0.79627484  0.21734319  0.36013994  1  0.056328  0  0.092651  0.132594  0  0.991342  0
H  H49  1  0.20372097  0.78265653  0.63985856  1  0.05675  0  0.092615  0.132601  0  0.991321  0
H  H50  1  0.01708947  0.36812325  0.29822373  1  0.031592  0  0.092304  0.134583  0  0.999229  0
H  H51  1  0.98291292  0.63187182  0.70177607  1  0.031925  0  0.092295  0.134562  0  0.999194  0
H  H52  1  0.90727898  0.36735465  0.35096553  1  0.030099  0  0.093054  0.129039  0  0.991688  0
H  H53  1  0.09272294  0.63264440  0.64903378  1  0.030104  0  0.093034  0.128999  0  0.991725  0
H  H54  1  0.88969384  0.35499291  0.25415458  1  0.035624  0  0.093023  0.137349  0  1.023117  0
H  H55  1  0.11030876  0.64500481  0.74584528  1  0.035504  0  0.093006  0.137298  0  1.023161  0
H  H56  1  0.15244286  0.19237298  0.58170231  1  0.106302  0  0.091476  0.035518  0  1.020827  0
H  H57  1  0.84755810  0.80762341  0.41829800  1  0.106261  0  0.091502  0.035501  0  1.020866  0
H  H58  1  0.11046397  0.26686774  0.69701568  1  0.062733  0  0.081417  0.121623  0  1.063258  0
H  H59  1  0.88953265  0.73313264  0.30298178  1  0.062614  0  0.081387  0.12152  0  1.063394  0
H  H60  1  0.11301033  0.34284189  0.62520096  1  0.03886  0  0.09267  0.1343  0  0.986937  0
H  H61  1  0.88698530  0.65715585  0.37479422  1  0.038971  0  0.092656  0.13426  0  0.986994  0
H  H62  1  0.21932737  0.34405573  0.69228898  1  0.009092  0  0.086084  0.123666  0  1.023623  0
H  H63  1  0.78066785  0.65594665  0.30770735  1  0.008958  0  0.086032  0.123599  0  1.023685  0
H  H64  1  0.31562718  0.22816971  0.52643522  1  0.030988  0  0.089717  0.128525  0  1.013602  0
H  H65  1  0.68437136  0.77182536  0.47356496  1  0.031017  0  0.089735  0.128543  0  1.013659  0
H  H66  1  0.35136715  0.31366240  0.59359711  1  0.041505  0  0.088084  0.121626  0  1.011977  0
H  H67  1  0.64863375  0.68633334  0.40640209  1  0.041461  0  0.088064  0.121614  0  1.011943  0
H  H68  1  0.24600213  0.32568007  0.52806052  1  0.02654  0  0.092533  0.1279  0  1.006019  0
H  H69  1  0.75399804  0.67431633  0.47193811  1  0.026554  0  0.092528  0.127899  0  1.00605  0
H  H70  1  0.31310807  0.97574979  0.59362880  1  0.094737  0  0.096719  0.04159  0  0.990519  0
H  H71  1  0.68689004  0.02424926  0.40637523  1  0.094714  0  0.096732  0.041598  0  0.990503  0
H  H72  1  0.36563661  0.86392421  0.68679257  1  0.034747  0  0.091961  0.131823  0  1.0236  0
H  H73  1  0.63436632  0.13607747  0.31321064  1  0.034254  0  0.091973  0.131851  0  1.023555  0
H  H74  1  0.48454805  0.92711416  0.70689598  1  0.043533  0  0.091124  0.130867  0  1.006046  0
H  H75  1  0.51545261  0.07288819  0.29310605  1  0.043573  0  0.091136  0.130876  0  1.006026  0
H  H76  1  0.45696726  0.87546472  0.61900485  1  0.000297  0  0.093257  0.129066  0  0.994563  0
H  H77  1  0.54303413  0.12453696  0.38099829  1  0.000521  0  0.093238  0.129012  0  0.994624  0
H  H78  1  0.41880283  0.11805628  0.58819105  1  0.060778  0  0.086166  0.126701  0  1.033641  0
H  H79  1  0.58119145  0.88194344  0.41180847  1  0.061023  0  0.086181  0.126737  0  1.033612  0
H  H80  1  0.49366788  0.02883304  0.56417806  1  0.048863  0  0.086091  0.131096  0  1.016737  0
H  H81  1  0.50632803  0.97116800  0.43582101  1  0.048845  0  0.086088  0.131098  0  1.016773  0
H  H82  1  0.51395825  0.07897553  0.65261897  1  0.051993  0  0.08974  0.132678  0  1.001212  0
H  H83  1  0.48604012  0.92102749  0.34737970  1  0.051925  0  0.089795  0.13278  0  1.001088  0
H  H84  1  0.73899193  0.11558412  0.11069653  1  0.108332  0  0.105176  0.104178  0  1.021238  0
H  H85  1  0.26100859  0.88441692  0.88930111  1  0.108226  0  0.105169  0.104165  0  1.021253  0
H  H86  1  0.63035653  0.97592301  0.11234558  1  0.082302  0  0.097793  0.097334  0  1.047674  0
H  H87  1  0.36964555  0.02407802  0.88765486  1  0.082311  0  0.097792  0.097314  0  1.047685  0
H  H88  1  0.35822938  0.12435298  0.11439732  1  0.033644  0  0.097537  0.097883  0  1.04601  0
H  H89  1  0.64177178  0.87564606  0.88560304  1  0.033613  0  0.097548  0.097889  0  1.045981  0
H  H90  1  0.46613408  0.26441184  0.11242443  1  0.112818  0  0.089868  0.093955  0  1.052176  0
H  H91  1  0.53386633  0.73558788  0.88757264  1  0.112813  0  0.089879  0.093932  0  1.052119  0
H  H92  1  0.50454099  0.88599631  0.03922701  1  0.095506  0  0.099616  0.100888  0  1.026144  0
H  H93  1  0.49546323  0.11400206  0.96077729  1  0.095443  0  0.099621  0.100874  0  1.02614  0
H  H94  1  0.40608047  0.74305571  0.05430094  1  0.100346  0  0.095118  0.1016  0  1.049685  0
H  H95  1  0.59392300  0.25694265  0.94570550  1  0.100384  0  0.095159  0.101606  0  1.049744  0
H  H96  1  0.23064014  0.86603190  0.21562436  1  0.113946  0  0.091445  0.102765  0  1.05768  0
H  H97  1  0.76935830  0.13397178  0.78437650  1  0.113985  0  0.091469  0.102785  0  1.057706  0
H  H98  1  0.32886212  0.00845271  0.19957906  1  0.06661  0  0.100705  0.099447  0  1.029386  0
H  H99  1  0.67113859  0.99155031  0.80042190  1  0.066656  0  0.100724  0.099445  0  1.029436  0
H  H100  1  0.58126839  0.43031258  0.17153603  1  0.066069  0  0.089792  0.026201  0  1.028221  0
H  H101  1  0.41872958  0.56968515  0.82846362  1  0.066213  0  0.0898  0.026209  0  1.028267  0
H  H102  1  0.53980298  0.34320442  0.27961612  1  0.061355  0  0.089893  0.131921  0  1.009684  0
H  H103  1  0.46019665  0.65679463  0.72038526  1  0.061378  0  0.089899  0.131919  0  1.009683  0
H  H104  1  0.55656178  0.45745367  0.30416270  1  0.05424  0  0.089239  0.125421  0  1.020141  0
H  H105  1  0.44343933  0.54254472  0.69583710  1  0.054214  0  0.089229  0.125395  0  1.020133  0
H  H106  1  0.65699668  0.38588308  0.32811258  1  0.038383  0  0.09048  0.128088  0  0.993638  0
H  H107  1  0.34300366  0.61411531  0.67188828  1  0.038393  0  0.090482  0.128079  0  0.993684  0
H  H108  1  0.75537958  0.50815871  0.16567319  1  0.051861  0  0.079318  0.115464  0  1.056889  0
H  H109  1  0.24462054  0.49183703  0.83432598  1  0.051845  0  0.079344  0.115519  0  1.056889  0
H  H110  1  0.78334220  0.48985532  0.26086032  1  0.015221  0  0.088979  0.126714  0  1.006073  0
H  H111  1  0.21665803  0.51014174  0.73913834  1  0.014885  0  0.08897  0.126692  0  1.006043  0
H  H112  1  0.68311237  0.55921258  0.23092798  1  0.037874  0  0.087194  0.128554  0  1.010866  0
H  H113  1  0.31689016  0.44078448  0.76907078  1  0.037765  0  0.087212  0.128567  0  1.01089  0
H  H114  1  0.83884219  0.33760492  0.01480199  1  0.074884  0  0.098498  0.032435  0  1.011712  0
H  H115  1  0.16115737  0.66239347  0.98519611  1  0.074907  0  0.098495  0.032483  0  1.011717  0
H  H116  1  0.84644656  0.17737230  0.98835150  1  0.048327  0  0.086541  0.123904  0  1.01932  0
H  H117  1  0.15355295  0.82262543  0.01164768  1  0.048352  0  0.086547  0.123904  0  1.01925  0
H  H118  1  0.94417595  0.16925144  0.06136909  1  0.035413  0  0.087009  0.129269  0  1.014368  0
H  H119  1  0.05582285  0.83074695  0.93863061  1  0.035412  0  0.086992  0.129249  0  1.01439  0
H  H120  1  0.97115443  0.23011601  0.98229475  1  0.062011  0  0.092043  0.136457  0  1.019417  0
H  H121  1  0.02884508  0.76988172  0.01770443  1  0.062004  0  0.09206  0.136489  0  1.019444  0
H  H122  1  0.93089127  0.40986804  0.12313183  1  0.037062  0  0.080146  0.119674  0  1.037001  0
H  H123  1  0.06910905  0.59013035  0.87686685  1  0.036986  0  0.080135  0.119651  0  1.036956  0
H  H124  1  0.02404220  0.37118846  0.06660563  1  0.072262  0  0.075751  0.131365  0  1.053635  0
H  H125  1  0.97595730  0.62880926  0.93339246  1  0.072278  0  0.075777  0.131399  0  1.053608  0
H  H126  1  0.99233141  0.31054990  0.14544588  1  0.059683  0  0.087598  0.133013  0  1.036722  0
H  H127  1  0.00766809  0.68944783  0.85455166  1  0.059649  0  0.087587  0.132986  0  1.036742  0
H  H128  1  0.41253084  0.60015306  0.21263127  1  0.048405  0  0.092841  0.024191  0  1.007875  0
H  H129  1  0.58746636  0.39984467  0.78736726  1  0.048427  0  0.092854  0.024229  0  1.00789  0
H  H130  1  0.31387346  0.51709152  0.30071280  1  0.035377  0  0.087787  0.126614  0  1.027306  0
H  H131  1  0.68612843  0.48290686  0.69928813  1  0.035384  0  0.087791  0.126603  0  1.027325  0
H  H132  1  0.33125184  0.60768350  0.36526302  1  0.041989  0  0.094991  0.136643  0  0.981396  0
H  H133  1  0.66874999  0.39231422  0.63473735  1  0.041978  0  0.095021  0.136671  0  0.9814  0
H  H134  1  0.43891829  0.54792065  0.34227655  1  0.01547  0  0.089835  0.123078  0  1.015692  0
H  H135  1  0.56108373  0.45207972  0.65772224  1  0.015479  0  0.089831  0.123089  0  1.01565  0
H  H136  1  0.46856793  0.76076263  0.23621447  1  0.039427  0  0.089062  0.130972  0  1.021994  0
H  H137  1  0.53143080  0.23923510  0.76378304  1  0.039429  0  0.089077  0.130977  0  1.02192  0
H  H138  1  0.53477989  0.69342374  0.29939196  1  0.03236  0  0.090144  0.128983  0  1.013696  0
H  H139  1  0.46521884  0.30657399  0.70060609  1  0.032342  0  0.090146  0.128974  0  1.013731  0
H  H140  1  0.42970473  0.75308884  0.32705044  1  0.04636  0  0.096073  0.141468  0  0.985867  0
H  H141  1  0.57029492  0.24691087  0.67294768  1  0.046309  0  0.096078  0.141481  0  0.985891  0
H  H142  1  0.04818496  0.60377042  0.09996478  1  0.091035  0  0.09813  0.039217  0  0.975181  0
H  H143  1  0.95181563  0.39623128  0.90003506  1  0.091021  0  0.098108  0.039157  0  0.975176  0
H  H144  1  0.12604696  0.53690060  0.21136460  1  0.0363  0  0.090958  0.131053  0  1.012549  0
H  H145  1  0.87395132  0.46310110  0.78863513  1  0.036274  0  0.090928  0.131007  0  1.012584  0
H  H146  1  0.98943488  0.52926981  0.21163514  1  0.056337  0  0.093975  0.136489  0  1.005923  0
H  H147  1  0.01056340  0.47073189  0.78836459  1  0.056341  0  0.093959  0.136438  0  1.005963  0
H  H148  1  0.06313604  0.61115512  0.26793001  1  0.042121  0  0.091922  0.141276  0  0.991683  0
H  H149  1  0.93686219  0.38884592  0.73206970  1  0.042131  0  0.091902  0.141233  0  0.991708  0
H  H150  1  0.94344786  0.73463170  0.10704795  1  0.032069  0  0.083245  0.121491  0  1.035405  0
H  H151  1  0.05654959  0.26536934  0.89295119  1  0.03211  0  0.083271  0.121559  0  1.035336  0
H  H152  1  0.95792504  0.73495538  0.20392129  1  0.051059  0  0.080932  0.129859  0  1.043568  0
H  H153  1  0.04207092  0.26504632  0.79607780  1  0.051054  0  0.080954  0.129871  0  1.04355  0
H  H154  1  0.88228963  0.64760740  0.15439623  1  0.031411  0  0.085634  0.133846  0  1.01928  0
H  H155  1  0.11770859  0.35239364  0.84560240  1  0.031334  0  0.085635  0.133841  0  1.019375  0
C  C156  1  0.13075848  0.14653995  0.16397163  1  -0.572281  0  -0.026762  -0.218615  0  4.04529  0
C  C157  1  0.86924279  0.85346042  0.83602876  1  -0.572287  0  -0.02678  -0.218567  0  4.045194  0
C  C158  1  0.16570390  0.22030791  0.12532956  1  0.034138  0  -0.073592  -0.045325  0  3.979754  0
C  C159  1  0.83429659  0.77969245  0.87467134  1  0.034029  0  -0.073558  -0.045187  0  3.979694  0
C  C160  1  0.18741996  0.21082388  0.05269874  1  -0.073718  0  -0.082178  -0.11875  0  3.929336  0
C  C161  1  0.81257838  0.78917848  0.94730209  1  -0.073744  0  -0.082169  -0.118807  0  3.929564  0
C  C162  1  0.17429524  0.12760874  0.01673782  1  -0.016188  0  0.002664  0.076509  0  3.983821  0
C  C163  1  0.82570685  0.87239229  0.98326316  1  -0.016132  0  0.002727  0.076591  0  3.983872  0
C  C164  1  0.14402781  0.05333531  0.05698861  1  -0.016525  0  -0.087025  -0.135025  0  3.958225  0
C  C165  1  0.85597422  0.94666506  0.94301127  1  -0.016337  0  -0.08705  -0.135081  0  3.95833  0
C  C166  1  0.12241449  0.06238962  0.12983551  1  -0.137094  0  -0.076771  -0.060128  0  4.001122  0
C  C167  1  0.87759063  0.93761074  0.87016506  1  -0.137275  0  -0.076802  -0.060177  0  4.001119  0
C  C168  1  0.18911730  0.11913760  0.93806547  1  -0.052622  0  -0.000941  0.070095  0  3.984919  0
C  C169  1  0.81088248  0.88086344  0.06193595  1  -0.052509  0  -0.00094  0.070089  0  3.984963  0
C  C170  1  0.26039633  0.17587092  0.90451214  1  -0.051947  0  -0.08311  -0.120138  0  3.936414  0
C  C171  1  0.73960339  0.82412946  0.09548818  1  -0.051958  0  -0.083109  -0.120186  0  3.936458  0
C  C172  1  0.27126001  0.16859354  0.82983601  1  -0.008481  0  -0.073161  -0.045749  0  3.96865  0
C  C173  1  0.72873981  0.83140815  0.17016434  1  -0.008452  0  -0.073115  -0.045657  0  3.968586  0
C  C174  1  0.21048767  0.10466844  0.78698746  1  -0.582747  0  -0.021245  -0.201661  0  4.027042  0
C  C175  1  0.78951283  0.89533193  0.21301344  1  -0.582742  0  -0.021248  -0.201712  0  4.02717  0
C  C176  1  0.13818813  0.04861808  0.81973620  1  -0.006238  0  -0.074379  -0.048977  0  3.9774  0
C  C177  1  0.86181237  0.95138229  0.18026470  1  -0.006431  0  -0.074335  -0.048888  0  3.977506  0
C  C178  1  0.12813150  0.05580313  0.89444660  1  -0.083586  0  -0.086548  -0.123642  0  3.944169  0
C  C179  1  0.87186899  0.94419724  0.10555376  1  -0.08356  0  -0.086598  -0.123728  0  3.944218  0
C  C180  1  0.26562607  0.23004087  0.33405718  1  0.374377  0  0.011284  0.321039  0  3.807868  0
C  C181  1  0.73437524  0.76996016  0.66594268  1  0.374332  0  0.011307  0.32109  0  3.807787  0
C  C182  1  0.29658625  0.32119370  0.36692970  1  -0.025593  0  -0.243246  -0.425849  0  3.913077  0
C  C183  1  0.70341510  0.67880800  0.63306908  1  -0.025473  0  -0.24328  -0.426022  0  3.913123  0
C  C184  1  0.34232987  0.19807513  0.28276784  1  -0.069211  0  -0.251922  -0.457267  0  3.92464  0
C  C185  1  0.65767063  0.80192524  0.71723251  1  -0.069206  0  -0.251957  -0.45733  0  3.9246  0
C  C186  1  0.93932483  0.23903882  0.31003115  1  0.363277  0  0.012237  0.31828  0  3.791695  0
C  C187  1  0.06067309  0.76095824  0.68996848  1  0.363405  0  0.012244  0.318246  0  3.791724  0
C  C188  1  0.83371760  0.19210105  0.31287462  1  -0.060374  0  -0.250706  -0.438438  0  3.906809  0
C  C189  1  0.16627964  0.80789734  0.68712392  1  -0.060859  0  -0.25065  -0.438478  0  3.906805  0
C  C190  1  0.93862986  0.33857532  0.30244667  1  -0.036864  0  -0.246566  -0.438727  0  3.91056  0
C  C191  1  0.06137186  0.66142107  0.69755313  1  -0.037167  0  -0.246506  -0.438568  0  3.910546  0
C  C192  1  0.21151450  0.23533958  0.61312181  1  0.379393  0  0.008523  0.315843  0  3.813329  0
C  C193  1  0.78848435  0.76465947  0.38687790  1  0.3773  0  0.008503  0.315869  0  3.813442  0
C  C194  1  0.16113566  0.30120433  0.66004462  1  -0.068454  0  -0.251854  -0.443444  0  3.924317  0
C  C195  1  0.83886096  0.69879605  0.33995229  1  -0.066416  0  -0.251745  -0.443212  0  3.924422  0
C  C196  1  0.28595358  0.27799172  0.56227714  1  -0.060112  0  -0.243554  -0.428112  0  3.923967  0
C  C197  1  0.71404660  0.72200468  0.43772204  1  -0.060094  0  -0.243526  -0.428114  0  3.924115  0
C  C198  1  0.37565066  0.99222000  0.63610820  1  0.368355  0  0.011773  0.318155  0  3.797521  0
C  C199  1  0.62434908  0.00778037  0.36389430  1  0.368363  0  0.011784  0.318173  0  3.797468  0
C  C200  1  0.42316816  0.90941806  0.66406318  1  -0.018425  0  -0.245069  -0.428104  0  3.912111  0
C  C201  1  0.57683404  0.09058429  0.33594001  1  -0.018173  0  -0.245113  -0.428115  0  3.912034  0
C  C202  1  0.45487699  0.05909003  0.60870380  1  -0.108216  0  -0.250873  -0.445267  0  3.926618  0
C  C203  1  0.54512047  0.94091101  0.39129534  1  -0.108415  0  -0.250915  -0.445402  0  3.926581  0
C  C204  1  0.61022207  0.19908388  0.11235860  1  -0.648301  0  -0.027495  -0.214492  0  4.042769  0
C  C205  1  0.38977762  0.80091650  0.88763846  1  -0.648651  0  -0.027486  -0.214537  0  4.042831  0
C  C206  1  0.65562141  0.11743827  0.11122680  1  -0.031122  0  -0.07845  -0.054134  0  3.995277  0
C  C207  1  0.34437984  0.88256211  0.88877196  1  -0.030469  0  -0.078419  -0.054086  0  3.995389  0
C  C208  1  0.59437150  0.03901233  0.11153697  1  -0.000402  0  -0.084302  -0.114598  0  3.943227  0
C  C209  1  0.40563047  0.96098737  0.88846180  1  -0.000327  0  -0.084304  -0.114569  0  3.943242  0
C  C210  1  0.48698921  0.04050834  0.11400423  1  -0.099096  0  -0.000818  0.07203  0  3.998211  0
C  C211  1  0.51301284  0.95949202  0.88599837  1  -0.099114  0  -0.000854  0.071927  0  3.998117  0
C  C212  1  0.44181965  0.12249437  0.11423195  1  0.048313  0  -0.087363  -0.126118  0  3.944125  0
C  C213  1  0.55818154  0.87750534  0.88576624  1  0.048237  0  -0.087457  -0.126187  0  3.944148  0
C  C214  1  0.50259621  0.20133819  0.11302768  1  -0.031528  0  -0.079924  -0.047652  0  3.968606  0
C  C215  1  0.49740426  0.79866219  0.88697049  1  -0.031457  0  -0.079869  -0.047515  0  3.968514  0
C  C216  1  0.42418882  0.95683074  0.11888331  1  -0.066132  0  0.000645  0.078173  0  3.98996  0
C  C217  1  0.57581405  0.04317028  0.88111934  1  -0.066188  0  0.000693  0.07829  0  3.989752  0
C  C218  1  0.44498918  0.88141548  0.07813870  1  -0.070682  0  -0.086374  -0.121254  0  3.945405  0
C  C219  1  0.55501432  0.11858356  0.92186503  1  -0.070856  0  -0.08645  -0.121349  0  3.945323  0
C  C220  1  0.38914404  0.80118262  0.08610293  1  -0.037156  0  -0.082483  -0.059249  0  3.990841  0
C  C221  1  0.61085952  0.19881707  0.91390300  1  -0.036749  0  -0.082494  -0.059184  0  3.990708  0
C  C222  1  0.31204967  0.79542889  0.13579457  1  -0.622518  0  -0.029197  -0.224047  0  4.060977  0
C  C223  1  0.68795090  0.20457213  0.86420907  1  -0.622857  0  -0.02916  -0.224013  0  4.06099  0
C  C224  1  0.28964466  0.87064722  0.17621627  1  -0.019261  0  -0.078337  -0.049249  0  3.973452  0
C  C225  1  0.71035523  0.12935514  0.82378573  1  -0.019289  0  -0.078386  -0.04928  0  3.973725  0
C  C226  1  0.34495158  0.95057087  0.16709470  1  0.012912  0  -0.085564  -0.121866  0  3.95115  0
C  C227  1  0.65505211  0.04943081  0.83290800  1  0.013016  0  -0.085555  -0.121852  0  3.951237  0
C  C228  1  0.64282953  0.42022214  0.21413862  1  0.407151  0  0.009288  0.317511  0  3.811093  0
C  C229  1  0.35716994  0.57977492  0.78586163  1  0.407097  0  0.009289  0.317404  0  3.811212  0
C  C230  1  0.59647434  0.40009414  0.28592122  1  -0.107804  0  -0.246064  -0.427534  0  3.922388  0
C  C231  1  0.40352528  0.59990490  0.71407907  1  -0.107778  0  -0.246067  -0.427468  0  3.922409  0
C  C232  1  0.72144448  0.49874055  0.21825955  1  -0.06379  0  -0.25245  -0.443646  0  3.931867  0
C  C233  1  0.27855647  0.50125584  0.78173967  1  -0.063413  0  -0.252458  -0.443657  0  3.931918  0
C  C234  1  0.87732410  0.29624590  0.05561436  1  0.385529  0  0.015782  0.333263  0  3.790391  0
C  C235  1  0.12267479  0.70375381  0.94438483  1  0.385544  0  0.015703  0.333123  0  3.790498  0
C  C236  1  0.91161139  0.21291498  0.01983760  1  -0.0939  0  -0.249814  -0.433424  0  3.889936  0
C  C237  1  0.08838818  0.78708341  0.98016159  1  -0.093866  0  -0.249786  -0.433386  0  3.889967  0
C  C238  1  0.96146875  0.35006025  0.10062870  1  -0.102542  0  -0.261465  -0.449581  0  3.909702  0
C  C239  1  0.03853157  0.64993814  0.89936943  1  -0.102516  0  -0.261453  -0.449538  0  3.909606  0
C  C240  1  0.38513904  0.63647881  0.25930048  1  0.4051  0  0.010629  0.316271  0  3.817384  0
C  C241  1  0.61486052  0.36351958  0.74069871  1  0.405184  0  0.010619  0.316208  0  3.817436  0
C  C242  1  0.36594107  0.57340561  0.32071939  1  -0.036572  0  -0.244894  -0.43078  0  3.926589  0
C  C243  1  0.63405932  0.42659343  0.67928039  1  -0.0366  0  -0.244879  -0.430746  0  3.926492  0
C  C244  1  0.45851761  0.71580162  0.28166203  1  -0.062514  0  -0.247099  -0.443238  0  3.913549  0
C  C245  1  0.54148199  0.28419743  0.71833608  1  -0.062527  0  -0.247148  -0.443278  0  3.91359  0
C  C246  1  0.04665083  0.63965829  0.15255348  1  0.353086  0  0.016637  0.329256  0  3.784622  0
C  C247  1  0.95334899  0.36034341  0.84744632  1  0.353089  0  0.016629  0.32932  0  3.784549  0
C  C248  1  0.05800950  0.57571648  0.21492824  1  -0.069519  0  -0.245534  -0.44447  0  3.899637  0
C  C249  1  0.94198878  0.42428522  0.78507149  1  -0.069566  0  -0.24547  -0.444322  0  3.899586  0
C  C250  1  0.95177406  0.69240004  0.15462455  1  -0.044361  0  -0.256021  -0.439548  0  3.913201  0
C  C251  1  0.04822498  0.30760166  0.84537413  1  -0.044271  0  -0.256021  -0.439595  0  3.913186  0
Br  Br252  1  0.98597294  0.13379464  0.48569653  1  -0.559296  0  -0.18891  -0.446615  0  1.242428  0
Br  Br253  1  0.01404005  0.86620836  0.51430118  1  -0.559314  0  -0.188922  -0.446658  0  1.242463  0
Br  Br254  1  0.25862509  0.01455995  0.44344882  1  -0.552707  0  -0.228506  -0.441852  0  1.076484  0
Br  Br255  1  0.74136989  0.98544769  0.55656230  1  -0.55261  0  -0.228461  -0.441831  0  1.076487  0
Br  Br256  1  0.09347708  0.83261662  0.31274949  1  -0.526627  0  -0.203092  -0.414038  0  1.164462  0
Br  Br257  1  0.90650591  0.16738778  0.68723816  1  -0.526618  0  -0.203083  -0.414054  0  1.164532  0
Br  Br258  1  0.56384115  0.60545976  0.07210611  1  -0.578393  0  -0.195341  -0.451872  0  1.201055  0
Br  Br259  1  0.43615622  0.39452934  0.92790098  1  -0.578367  0  -0.195373  -0.451918  0  1.201058  0
Br  Br260  1  0.64358078  0.59096323  0.84845063  1  -0.577054  0  -0.209405  -0.449266  0  1.158437  0
Br  Br261  1  0.35641847  0.40904111  0.15154865  1  -0.577041  0  -0.209402  -0.44925  0  1.15845  0
Br  Br262  1  0.84693302  0.54055976  0.01731326  1  -0.528203  0  -0.165228  -0.395884  0  1.242994  0
Br  Br263  1  0.15305527  0.45946114  0.98269669  1  -0.528175  0  -0.165219  -0.395922  0  1.243015  0
O  O264  1  0.09401457  0.07424922  0.29445077  1  -1.46131  0  -0.342731  -0.707668  0  2.316208  0
O  O265  1  0.90599361  0.92575114  0.70554830  1  -1.461305  0  -0.342724  -0.707664  0  2.316321  0
O  O266  1  0.16431533  0.23926144  0.29438788  1  -1.299982  0  -0.205176  -0.429639  0  2.46755  0
O  O267  1  0.83568588  0.76073826  0.70561249  1  -1.299964  0  -0.205195  -0.429593  0  2.467489  0
O  O268  1  0.98609667  0.20237737  0.24496688  1  -1.287111  0  -0.20169  -0.419083  0  2.431403  0
O  O269  1  0.01390266  0.79761770  0.75503442  1  -1.287137  0  -0.201644  -0.419074  0  2.43137  0
O  O270  1  0.13741179  0.04400557  0.64940426  1  -1.458472  0  -0.349267  -0.728926  0  2.276477  0
O  O271  1  0.86259019  0.95599413  0.35059615  1  -1.458448  0  -0.349258  -0.728952  0  2.276431  0
O  O272  1  0.32826449  0.03057016  0.69951506  1  -1.297336  0  -0.203498  -0.421282  0  2.445526  0
O  O273  1  0.67173771  0.96943218  0.30048759  1  -1.297297  0  -0.203501  -0.421306  0  2.44548  0
O  O274  1  0.27312402  0.17802396  0.66065747  1  -1.30459  0  -0.205671  -0.427741  0  2.454998  0
O  O275  1  0.72687583  0.82197773  0.33934560  1  -1.30411  0  -0.205737  -0.427846  0  2.455105  0
O  O276  1  0.69540083  0.34082454  0.19339220  1  -1.302865  0  -0.206726  -0.429803  0  2.454768  0
O  O277  1  0.30459782  0.65917186  0.80660745  1  -1.302737  0  -0.206736  -0.429714  0  2.454688  0
O  O278  1  0.79931397  0.26587104  0.10570965  1  -1.314575  0  -0.200363  -0.426297  0  2.513551  0
O  O279  1  0.20068574  0.73412933  0.89428849  1  -1.314574  0  -0.200334  -0.426285  0  2.513533  0
O  O280  1  0.65144465  0.36336839  0.05637697  1  -1.456752  0  -0.343958  -0.716722  0  2.335146  0
O  O281  1  0.34855671  0.63663331  0.94362291  1  -1.456819  0  -0.343942  -0.716701  0  2.335106  0
O  O282  1  0.27543680  0.62033124  0.10011297  1  -1.453592  0  -0.341656  -0.711651  0  2.404663  0
O  O283  1  0.72456461  0.37967112  0.89988583  1  -1.453634  0  -0.341633  -0.711615  0  2.404681  0
O  O284  1  0.28268107  0.66716494  0.23615947  1  -1.288832  0  -0.201239  -0.423914  0  2.451374  0
O  O285  1  0.71731543  0.33283345  0.76384230  1  -1.288806  0  -0.201241  -0.423892  0  2.451484  0
O  O286  1  0.13378324  0.70806575  0.15487617  1  -1.295383  0  -0.197767  -0.418829  0  2.481248  0
O  O287  1  0.86621592  0.29193727  0.84512471  1  -1.295297  0  -0.197729  -0.418793  0  2.481286  0
