# generated using pymatgen
data_CdH14C18N2O7
_symmetry_space_group_name_H-M   'P 1'
_cell_length_a   8.61461868
_cell_length_b   10.22065323
_cell_length_c   10.84523022
_cell_angle_alpha   65.73838071
_cell_angle_beta   87.02333042
_cell_angle_gamma   89.51331259
_symmetry_Int_Tables_number   1
_chemical_formula_structural   CdH14C18N2O7
_chemical_formula_sum   'Cd2 H28 C36 N4 O14'
_cell_volume   869.29209732
_cell_formula_units_Z   2
loop_
 _symmetry_equiv_pos_site_id
 _symmetry_equiv_pos_as_xyz
  1  'x, y, z'
loop_
 _atom_site_type_symbol
 _atom_site_label
 _atom_site_symmetry_multiplicity
 _atom_site_fract_x
 _atom_site_fract_y
 _atom_site_fract_z
 _atom_site_occupancy
 _atom_site_hle17_bader_spin_density
 _atom_site_hle17_ddec_charge
 _atom_site_hle17_ddec_spin_density
 _atom_site_hle17_ddec_sum_bond_order
 _atom_site_hle17_magmom
 _atom_site_hse06_10hf_bader_spin_density
 _atom_site_hse06_10hf_ddec_charge
 _atom_site_hse06_10hf_ddec_spin_density
 _atom_site_hse06_10hf_ddec_sum_bond_order
 _atom_site_hse06_10hf_magmom
 _atom_site_hse06_bader_spin_density
 _atom_site_hse06_ddec_charge
 _atom_site_hse06_ddec_spin_density
 _atom_site_hse06_ddec_sum_bond_order
 _atom_site_hse06_magmom
 _atom_site_pbe_bader_spin_density
 _atom_site_pbe_cm5_charge
 _atom_site_pbe_ddec_charge
 _atom_site_pbe_ddec_spin_density
 _atom_site_pbe_ddec_sum_bond_order
 _atom_site_pbe_magmom
Cd  Cd0  1  0.27290460  0.07022344  0.65636262  1  0  1.12018  0  1.681284  0  0  0.923398  0  2.127625  0  0  0.982475  0  2.073405  0  0  0.765397  0.882688  0  2.163799  0
Cd  Cd1  1  0.72709407  0.92977907  0.34364373  1  0  1.120112  0  1.681267  0  0  0.92336  0  2.127536  0  0  0.982439  0  2.073319  0  0  0.765387  0.88265  0  2.163715  0
H  H2  1  0.93198455  0.66590087  0.86515044  1  0  0.123433  0  0.960184  0  0  0.132347  0  1.02234  0  0  0.136239  0  1.019187  0  0  0.111663  0.12973  0  1.024572  0
H  H3  1  0.06802269  0.33409766  0.13484712  1  0  0.123446  0  0.960303  0  0  0.132383  0  1.022406  0  0  0.136277  0  1.019248  0  0  0.111674  0.129767  0  1.024644  0
H  H4  1  0.62079341  0.45485920  0.98786451  1  0  0.397648  0  0.894118  0  0  0.364959  0  0.976446  0  0  0.378326  0  0.961313  0  0  0.303649  0.35552  0  0.986926  0
H  H5  1  0.37921306  0.54513387  0.01212875  1  0  0.397496  0  0.894267  0  0  0.36488  0  0.976474  0  0  0.378245  0  0.961395  0  0  0.303659  0.355443  0  0.986959  0
H  H6  1  0.77041101  0.00802688  0.85417858  1  0  0.111069  0  0.930347  0  0  0.126731  0  0.990206  0  0  0.129017  0  0.989242  0  0  0.105349  0.125095  0  0.990885  0
H  H7  1  0.22958733  0.99196157  0.14582316  1  0  0.110929  0  0.93049  0  0  0.126639  0  0.990321  0  0  0.128923  0  0.989361  0  0  0.105318  0.124998  0  0.990996  0
H  H8  1  0.64101113  0.90993848  0.99231133  1  0  0.147865  0  0.938048  0  0  0.158546  0  0.99976  0  0  0.162126  0  0.99736  0  0  0.111235  0.155956  0  1.001527  0
H  H9  1  0.35898595  0.09005206  0.00768961  1  0  0.147786  0  0.938187  0  0  0.158501  0  0.99988  0  0  0.162077  0  0.997487  0  0  0.111222  0.155901  0  1.001643  0
H  H10  1  0.34996583  0.01684168  0.41837239  1  0  0.415574  0  0.894371  0  0  0.383273  0  0.960766  0  0  0.393823  0  0.94575  0  0  0.282996  0.375793  0  0.971403  0
H  H11  1  0.65004320  0.98316559  0.58162907  1  0  0.415483  0  0.894481  0  0  0.383162  0  0.960902  0  0  0.393712  0  0.945888  0  0  0.282948  0.375682  0  0.971541  0
H  H12  1  0.16745174  0.00335818  0.43859706  1  0  0.423182  0  0.881947  0  0  0.389686  0  0.950199  0  0  0.401432  0  0.933228  0  0  0.282294  0.381422  0  0.962036  0
H  H13  1  0.83255709  0.99665338  0.56140364  1  0  0.423257  0  0.881851  0  0  0.3897  0  0.950213  0  0  0.401446  0  0.933243  0  0  0.282305  0.381436  0  0.962052  0
H  H14  1  0.50031983  0.23378847  0.37436282  1  0  0.09722  0  0.942163  0  0  0.106272  0  1.003331  0  0  0.109268  0  1.000369  0  0  0.121  0.103821  0  1.00587  0
H  H15  1  0.49967800  0.76621071  0.62563747  1  0  0.097205  0  0.942207  0  0  0.106261  0  1.003358  0  0  0.109256  0  1.000398  0  0  0.120989  0.103812  0  1.005899  0
H  H16  1  0.58105248  0.48084422  0.21349582  1  0  0.101792  0  0.957715  0  0  0.113277  0  1.014477  0  0  0.115735  0  1.014797  0  0  0.107527  0.111266  0  1.014859  0
H  H17  1  0.41894291  0.51915913  0.78650105  1  0  0.101758  0  0.957728  0  0  0.113242  0  1.014502  0  0  0.115689  0  1.014835  0  0  0.107505  0.111231  0  1.014887  0
H  H18  1  0.45654453  0.69291119  0.23916877  1  0  0.124011  0  0.944313  0  0  0.13254  0  1.005458  0  0  0.136047  0  1.002789  0  0  0.112817  0.129849  0  1.007487  0
H  H19  1  0.54345197  0.30709117  0.76083216  1  0  0.124036  0  0.944223  0  0  0.132568  0  1.005372  0  0  0.136075  0  1.002701  0  0  0.112854  0.129877  0  1.007395  0
H  H20  1  0.26837063  0.78246760  0.37046052  1  0  0.104825  0  0.950918  0  0  0.116087  0  1.012363  0  0  0.118557  0  1.011663  0  0  0.108128  0.11464  0  1.012112  0
H  H21  1  0.73162590  0.21753263  0.62954309  1  0  0.104814  0  0.950918  0  0  0.11607  0  1.012382  0  0  0.118539  0  1.011681  0  0  0.10812  0.114622  0  1.012134  0
H  H22  1  0.07659670  0.73346291  0.56046493  1  0  0.113624  0  0.929905  0  0  0.128185  0  0.983264  0  0  0.131008  0  0.982267  0  0  0.111042  0.126035  0  0.984231  0
H  H23  1  0.92339858  0.26654153  0.43953428  1  0  0.113582  0  0.930083  0  0  0.128206  0  0.983369  0  0  0.131028  0  0.982371  0  0  0.111036  0.126054  0  0.984346  0
H  H24  1  0.92230498  0.55201342  0.76278501  1  0  0.09605  0  0.964286  0  0  0.1079  0  1.025329  0  0  0.110216  0  1.023766  0  0  0.106754  0.106321  0  1.02634  0
H  H25  1  0.07768935  0.44798667  0.23721410  1  0  0.095999  0  0.964337  0  0  0.107885  0  1.025344  0  0  0.11019  0  1.023794  0  0  0.10676  0.106312  0  1.026331  0
H  H26  1  0.88109153  0.29469621  0.92823349  1  0  0.128224  0  0.943045  0  0  0.13794  0  0.997699  0  0  0.142063  0  0.995531  0  0  0.112762  0.134906  0  0.999543  0
H  H27  1  0.11890967  0.70530423  0.07176900  1  0  0.128245  0  0.943031  0  0  0.137955  0  0.997684  0  0  0.142077  0  0.995515  0  0  0.112769  0.134922  0  0.999531  0
H  H28  1  0.02998831  0.10483871  0.88519323  1  0  0.074114  0  0.936304  0  0  0.083551  0  1.001334  0  0  0.085623  0  0.999574  0  0  0.116563  0.082054  0  1.00253  0
H  H29  1  0.97001396  0.89516287  0.11481062  1  0  0.074158  0  0.93635  0  0  0.083585  0  1.001383  0  0  0.085657  0  0.999621  0  0  0.116577  0.082086  0  1.002579  0
C  C30  1  0.00782578  0.89018340  0.77733853  1  0  0.668986  0  3.94806  0  0  0.623417  0  4.242997  0  0  0.657133  0  4.235932  0  0  0.195035  0.600391  0  4.24724  0
C  C31  1  0.99217635  0.10982033  0.22266633  1  0  0.668879  0  3.948093  0  0  0.62324  0  4.24315  0  0  0.656959  0  4.236083  0  0  0.194945  0.600203  0  4.247409  0
C  C32  1  0.89044010  0.77304043  0.84674849  1  0  -0.187129  0  3.589475  0  0  -0.224865  0  3.858145  0  0  -0.225188  0  3.867547  0  0  -0.074136  -0.225222  0  3.852537  0
C  C33  1  0.10956471  0.22696014  0.15324924  1  0  -0.187334  0  3.589619  0  0  -0.225043  0  3.858311  0  0  -0.225367  0  3.867709  0  0  -0.074201  -0.225405  0  3.852716  0
C  C34  1  0.74416860  0.78714760  0.88987736  1  0  -0.003731  0  3.721574  0  0  0.008426  0  3.975093  0  0  0.002898  0  3.996323  0  0  -0.015475  0.011852  0  3.961318  0
C  C35  1  0.25583203  0.21284415  0.11011933  1  0  -0.003511  0  3.721418  0  0  0.008612  0  3.975007  0  0  0.003087  0  3.996231  0  0  -0.015392  0.012038  0  3.961224  0
C  C36  1  0.63996683  0.65892127  0.94572032  1  0  0.642894  0  3.788599  0  0  0.591546  0  4.090492  0  0  0.625423  0  4.081341  0  0  0.235872  0.568357  0  4.096338  0
C  C37  1  0.36003025  0.34107139  0.05427702  1  0  0.643009  0  3.78871  0  0  0.591633  0  4.090656  0  0  0.625514  0  4.081507  0  0  0.235956  0.56844  0  4.0965  0
C  C38  1  0.67904185  0.92410587  0.88883060  1  0  -0.301113  0  3.703134  0  0  -0.343606  0  3.945853  0  0  -0.349616  0  3.953968  0  0  -0.163093  -0.339404  0  3.940359  0
C  C39  1  0.32095876  0.07588375  0.11117062  1  0  -0.300899  0  3.703189  0  0  -0.343478  0  3.946045  0  0  -0.349485  0  3.954162  0  0  -0.163045  -0.339249  0  3.940517  0
C  C40  1  0.54066736  0.98576412  0.80206100  1  0  0.704304  0  3.843679  0  0  0.653214  0  4.147074  0  0  0.686966  0  4.14035  0  0  0.204232  0.63041  0  4.150628  0
C  C41  1  0.45933186  0.01423188  0.19793682  1  0  0.704188  0  3.843788  0  0  0.653082  0  4.147255  0  0  0.686829  0  4.140536  0  0  0.204137  0.630277  0  4.150795  0
C  C42  1  0.45068777  0.32681720  0.38616217  1  0  0.145937  0  3.689833  0  0  0.112623  0  3.948197  0  0  0.121218  0  3.964879  0  0  0.056236  0.107255  0  3.937187  0
C  C43  1  0.54930757  0.67318511  0.61383880  1  0  0.145934  0  3.689834  0  0  0.112624  0  3.948185  0  0  0.12122  0  3.964862  0  0  0.056227  0.107253  0  3.937184  0
C  C44  1  0.49399690  0.46663088  0.29442933  1  0  -0.111152  0  3.735304  0  0  -0.127441  0  3.995874  0  0  -0.134691  0  4.017944  0  0  -0.085577  -0.123127  0  3.981343  0
C  C45  1  0.50599728  0.53337243  0.70556944  1  0  -0.111171  0  3.735361  0  0  -0.127471  0  3.995913  0  0  -0.134711  0  4.017992  0  0  -0.085565  -0.12316  0  3.981386  0
C  C46  1  0.42602109  0.58274911  0.30905196  1  0  -0.038251  0  3.643675  0  0  -0.064337  0  3.896705  0  0  -0.061236  0  3.913422  0  0  -0.060108  -0.065675  0  3.885199  0
C  C47  1  0.57397420  0.41725427  0.69094860  1  0  -0.038156  0  3.643557  0  0  -0.064228  0  3.896619  0  0  -0.061126  0  3.913334  0  0  -0.060104  -0.065568  0  3.885108  0
C  C48  1  0.31567937  0.55807363  0.41772565  1  0  0.018418  0  3.796668  0  0  0.034395  0  4.029141  0  0  0.031178  0  4.054494  0  0  -0.002528  0.035882  0  4.012315  0
C  C49  1  0.68431612  0.44192545  0.58227567  1  0  0.018454  0  3.796667  0  0  0.03434  0  4.029219  0  0  0.031124  0  4.054575  0  0  -0.002559  0.035829  0  4.012388  0
C  C50  1  0.23961716  0.67225314  0.43978463  1  0  -0.085472  0  3.729018  0  0  -0.110733  0  3.98969  0  0  -0.113262  0  4.012806  0  0  -0.079934  -0.108709  0  3.973533  0
C  C51  1  0.76038057  0.32774819  0.56021575  1  0  -0.085506  0  3.728996  0  0  -0.110755  0  3.989724  0  0  -0.11328  0  4.012837  0  0  -0.079925  -0.108725  0  3.973564  0
C  C52  1  0.13335271  0.64486783  0.54560085  1  0  -0.092354  0  3.719941  0  0  -0.116788  0  3.975359  0  0  -0.119963  0  3.9973  0  0  -0.081509  -0.114623  0  3.960798  0
C  C53  1  0.86664394  0.35513237  0.45439816  1  0  -0.092253  0  3.720058  0  0  -0.116743  0  3.975469  0  0  -0.119916  0  3.997403  0  0  -0.081469  -0.114578  0  3.960914  0
C  C54  1  0.09707659  0.50064330  0.63943232  1  0  0.02181  0  3.79956  0  0  0.03912  0  4.031437  0  0  0.036945  0  4.056079  0  0  -0.001849  0.040395  0  4.014865  0
C  C55  1  0.90291997  0.49935798  0.36056811  1  0  0.021772  0  3.79951  0  0  0.039065  0  4.03141  0  0  0.036893  0  4.056046  0  0  -0.001874  0.040335  0  4.014844  0
C  C56  1  0.98773194  0.46638544  0.75013246  1  0  -0.045728  0  3.689085  0  0  -0.072605  0  3.937654  0  0  -0.070634  0  3.956554  0  0  -0.065118  -0.07359  0  3.924641  0
C  C57  1  0.01226461  0.53361691  0.24986663  1  0  -0.045645  0  3.688979  0  0  -0.072554  0  3.937545  0  0  -0.070577  0  3.956449  0  0  -0.065103  -0.073538  0  3.924543  0
C  C58  1  0.96220927  0.32516316  0.84013569  1  0  -0.114288  0  3.719563  0  0  -0.126976  0  3.975085  0  0  -0.134094  0  3.996487  0  0  -0.081166  -0.122647  0  3.960867  0
C  C59  1  0.03779060  0.67484152  0.15986517  1  0  -0.114293  0  3.71953  0  0  -0.126976  0  3.975061  0  0  -0.134092  0  3.996459  0  0  -0.081146  -0.12265  0  3.960845  0
C  C60  1  0.04481869  0.21790199  0.81644982  1  0  0.150453  0  3.701833  0  0  0.116421  0  3.961769  0  0  0.124108  0  3.980138  0  0  0.058649  0.111663  0  3.949193  0
C  C61  1  0.95518351  0.78210280  0.18355094  1  0  0.150337  0  3.701999  0  0  0.116309  0  3.961932  0  0  0.123996  0  3.9803  0  0  0.058603  0.11156  0  3.949346  0
C  C62  1  0.17214699  0.38414941  0.62233299  1  0  0.12975  0  3.756636  0  0  0.122987  0  3.993197  0  0  0.12708  0  4.015718  0  0  0.117426  0.120512  0  3.977716  0
C  C63  1  0.82785057  0.61585622  0.37766571  1  0  0.129742  0  3.756665  0  0  0.122992  0  3.993179  0  0  0.127089  0  4.015701  0  0  0.117415  0.120525  0  3.977691  0
C  C64  1  0.28124809  0.41326563  0.50774528  1  0  0.125693  0  3.765948  0  0  0.120329  0  4.002587  0  0  0.124711  0  4.025459  0  0  0.114856  0.117269  0  3.987049  0
C  C65  1  0.71874970  0.58673463  0.49225460  1  0  0.12557  0  3.765902  0  0  0.120274  0  4.002471  0  0  0.124646  0  4.025354  0  0  0.114815  0.117214  0  3.986931  0
N  N66  1  0.34757951  0.30118033  0.48955701  1  0  -0.368115  0  3.25658  0  0  -0.298568  0  3.521747  0  0  -0.318542  0  3.540034  0  0  -0.325664  -0.285212  0  3.509149  0
N  N67  1  0.65241817  0.69882208  0.51044295  1  0  -0.368038  0  3.25635  0  0  -0.298494  0  3.52147  0  0  -0.318464  0  3.539758  0  0  -0.325608  -0.285137  0  3.508874  0
N  N68  1  0.14404443  0.24632550  0.71033366  1  0  -0.351853  0  3.273647  0  0  -0.283727  0  3.538073  0  0  -0.302526  0  3.556849  0  0  -0.322567  -0.271198  0  3.525011  0
N  N69  1  0.85595785  0.75367820  0.28966568  1  0  -0.351779  0  3.273673  0  0  -0.283665  0  3.538087  0  0  -0.302463  0  3.55686  0  0  -0.322548  -0.271141  0  3.525019  0
O  O70  1  0.13373995  0.88256284  0.83625004  1  0  -0.610725  0  1.901414  0  0  -0.548826  0  2.125213  0  0  -0.578076  0  2.115341  0  0  -0.319481  -0.528049  0  2.131262  0
O  O71  1  0.86626018  0.11743327  0.16375693  1  0  -0.610666  0  1.901338  0  0  -0.548775  0  2.125199  0  0  -0.578027  0  2.115326  0  0  -0.319475  -0.527993  0  2.131253  0
O  O72  1  0.98091756  0.98745168  0.66154975  1  0  -0.634638  0  1.957243  0  0  -0.567697  0  2.178233  0  0  -0.596778  0  2.169803  0  0  -0.311073  -0.54675  0  2.182776  0
O  O73  1  0.01908050  0.01256053  0.33846110  1  0  -0.634477  0  1.95726  0  0  -0.567544  0  2.178259  0  0  -0.596626  0  2.169832  0  0  -0.310986  -0.546594  0  2.182801  0
O  O74  1  0.49965940  0.66969471  0.97465775  1  0  -0.541349  0  1.98247  0  0  -0.486611  0  2.191632  0  0  -0.507549  0  2.18174  0  0  -0.273041  -0.472413  0  2.198304  0
O  O75  1  0.50035077  0.33029423  0.02533521  1  0  -0.541691  0  1.982289  0  0  -0.486819  0  2.191391  0  0  -0.507762  0  2.181485  0  0  -0.273152  -0.472615  0  2.198057  0
O  O76  1  0.70450067  0.53503332  0.96032958  1  0  -0.556175  0  2.105292  0  0  -0.507277  0  2.326036  0  0  -0.52957  0  2.31153  0  0  -0.330553  -0.491589  0  2.335435  0
O  O77  1  0.29550833  0.46495450  0.03966569  1  0  -0.55603  0  2.105669  0  0  -0.507181  0  2.326423  0  0  -0.529469  0  2.311954  0  0  -0.330517  -0.491497  0  2.335828  0
O  O78  1  0.51241587  0.94558326  0.70715803  1  0  -0.675029  0  2.008009  0  0  -0.596769  0  2.24091  0  0  -0.626991  0  2.23062  0  0  -0.330796  -0.575416  0  2.247121  0
O  O79  1  0.48758329  0.05441488  0.29283804  1  0  -0.674952  0  2.007968  0  0  -0.596718  0  2.240903  0  0  -0.626932  0  2.230612  0  0  -0.3308  -0.575366  0  2.247107  0
O  O80  1  0.45891780  0.07769407  0.82406028  1  0  -0.624064  0  1.945363  0  0  -0.56787  0  2.179818  0  0  -0.594827  0  2.170567  0  0  -0.318669  -0.548938  0  2.185477  0
O  O81  1  0.54108020  0.92230295  0.17593810  1  0  -0.624024  0  1.945407  0  0  -0.567805  0  2.179857  0  0  -0.594766  0  2.170617  0  0  -0.318598  -0.548883  0  2.185522  0
O  O82  1  0.26396253  0.98617789  0.48999635  1  0  -0.845857  0  1.880097  0  0  -0.78245  0  2.084209  0  0  -0.806051  0  2.049975  0  0  -0.599167  -0.766499  0  2.107966  0
O  O83  1  0.73604628  0.01383368  0.51000527  1  0  -0.845803  0  1.880052  0  0  -0.782346  0  2.084209  0  0  -0.805946  0  2.049978  0  0  -0.599131  -0.766392  0  2.107967  0
