# generated using pymatgen
data_NiH12C18(NO2)2
_symmetry_space_group_name_H-M   'P 1'
_cell_length_a   9.52258375
_cell_length_b   9.52266861
_cell_length_c   11.18064914
_cell_angle_alpha   67.28778599
_cell_angle_beta   67.28789975
_cell_angle_gamma   64.98126447
_symmetry_Int_Tables_number   1
_chemical_formula_structural   NiH12C18(NO2)2
_chemical_formula_sum   'Ni2 H24 C36 N4 O8'
_cell_volume   816.82969029
_cell_formula_units_Z   2
loop_
 _symmetry_equiv_pos_site_id
 _symmetry_equiv_pos_as_xyz
  1  'x, y, z'
loop_
 _atom_site_type_symbol
 _atom_site_label
 _atom_site_symmetry_multiplicity
 _atom_site_fract_x
 _atom_site_fract_y
 _atom_site_fract_z
 _atom_site_occupancy
 _atom_site_pbe_bader_charge
 _atom_site_pbe_bader_spin_density
 _atom_site_pbe_cm5_charge
 _atom_site_pbe_ddec_charge
 _atom_site_pbe_ddec_spin_density
 _atom_site_pbe_ddec_sum_bond_order
 _atom_site_pbe_magmom
Ni  Ni0  1  0.86789496  0.86789912  0.15830253  1  1.209968  1.543612  0.65672  0.771176  1.761977  2.543064  1.529
Ni  Ni1  1  0.13210364  0.13210156  0.84169703  1  1.209967  1.543614  0.656748  0.771247  1.761979  2.542988  1.529
H  H2  1  0.49129693  0.24500741  0.17921407  1  0.099742  0.000242  0.104467  0.111124  9.7e-05  1.008568  0.0
H  H3  1  0.24500292  0.49130101  0.17921391  1  0.099681  0.000242  0.104448  0.111101  9.7e-05  1.008577  0.0
H  H4  1  0.50870047  0.75499593  0.82078054  1  0.099959  0.000242  0.104462  0.111125  9.7e-05  1.008618  0.0
H  H5  1  0.75499448  0.50870347  0.82078212  1  0.099675  0.000242  0.104454  0.111121  9.7e-05  1.008544  0.0
H  H6  1  0.53977904  0.53977163  0.25661704  1  0.072351  9.2e-05  0.103055  0.108918  -1.3e-05  1.003069  0.0
H  H7  1  0.46023519  0.46021832  0.74338359  1  0.072458  9.2e-05  0.103054  0.108945  -1.3e-05  1.003087  0.0
H  H8  1  0.62694744  0.62694295  0.56897520  1  0.057749  6.9e-05  0.102495  0.103767  -4.7e-05  1.001247  0.0
H  H9  1  0.37306559  0.37304739  0.43102749  1  0.057844  6.9e-05  0.102499  0.103754  -4.7e-05  1.001234  0.0
H  H10  1  0.64327898  0.04759995  0.98278393  1  0.068202  0.002009  0.11943  0.088941  0.000703  0.998859  0.001
H  H11  1  0.04758498  0.64328841  0.98279003  1  0.067942  0.002009  0.119321  0.088832  0.000703  0.998758  0.001
H  H12  1  0.35671481  0.95240115  0.01721619  1  0.068214  0.002009  0.119393  0.088944  0.000703  0.998861  0.001
H  H13  1  0.95241122  0.35671419  0.01721059  1  0.067851  0.002009  0.119338  0.08884  0.000703  0.998744  0.001
H  H14  1  0.62768614  0.05245126  0.76645960  1  0.090969  0.001197  0.106753  0.122527  0.000727  1.046125  0.001
H  H15  1  0.05243984  0.62768909  0.76646855  1  0.090958  0.001197  0.106758  0.122524  0.000727  1.046131  0.001
H  H16  1  0.37231366  0.94754903  0.23353791  1  0.090981  0.001197  0.106769  0.122555  0.000727  1.046111  0.001
H  H17  1  0.94755997  0.37231234  0.23353216  1  0.090951  0.001198  0.10675  0.122517  0.000727  1.04614  0.001
H  H18  1  0.63720898  0.06188470  0.58326350  1  0.115178  0.001121  0.105639  0.117847  0.000684  1.045847  0.0
H  H19  1  0.06187737  0.63720699  0.58327095  1  0.115107  0.001121  0.105663  0.117944  0.000684  1.045739  0.0
H  H20  1  0.36279323  0.93811481  0.41673436  1  0.115077  0.001121  0.10565  0.117871  0.000684  1.045841  0.0
H  H21  1  0.93812122  0.36278800  0.41673050  1  0.115124  0.001121  0.105653  0.117945  0.000684  1.045791  0.0
H  H22  1  0.66607969  0.06963123  0.35104647  1  0.11981  0.001748  0.118819  0.093287  0.000629  1.006812  0.001
H  H23  1  0.06962636  0.66607482  0.35105395  1  0.119621  0.001748  0.118806  0.093278  0.000629  1.00677  0.001
H  H24  1  0.33392251  0.93036715  0.64895087  1  0.119815  0.001748  0.118811  0.093289  0.000629  1.006766  0.001
H  H25  1  0.93037344  0.33392092  0.64894595  1  0.119875  0.001748  0.118786  0.093263  0.000629  1.006764  0.001
C  C26  1  0.78276476  0.21723573  0.00000047  1  1.567818  0.000927  0.209923  0.558403  0.000302  4.238124  0.0
C  C27  1  0.21723109  0.78276617  0.99999880  1  1.567835  0.000927  0.209848  0.558254  0.000301  4.238327  0.0
C  C28  1  0.63652417  0.36347710  0.99999941  1  -0.051578  0.013526  -0.018963  -0.035408  0.008108  3.9808  0.01
C  C29  1  0.36347357  0.63652467  0.99999909  1  -0.051148  0.013525  -0.018969  -0.035419  0.008108  3.980807  0.01
C  C30  1  0.49351932  0.35763327  0.10166358  1  -0.108806  0.002863  -0.088828  -0.103711  0.00154  3.983519  0.002
C  C31  1  0.35762900  0.49352233  0.10166423  1  -0.013981  0.002809  -0.0888  -0.103656  0.00154  3.983539  0.002
C  C32  1  0.50648048  0.64236929  0.89833139  1  -0.014263  0.002808  -0.08884  -0.103728  0.00154  3.9836  0.002
C  C33  1  0.64236720  0.50648140  0.89833333  1  -0.108771  0.002863  -0.088833  -0.103706  0.00154  3.983539  0.002
C  C34  1  0.69407616  0.69407657  0.30075461  1  1.53923  -0.003333  0.196994  0.547323  -0.004879  4.228352  -0.006
C  C35  1  0.30592845  0.30592104  0.69924757  1  1.539242  -0.003333  0.197039  0.547404  -0.004879  4.228146  -0.006
C  C36  1  0.59340241  0.59339818  0.40248444  1  -0.045101  0.008206  -0.014289  -0.018652  0.005039  3.994845  0.005
C  C37  1  0.40660821  0.40659635  0.59751319  1  -0.045342  0.008208  -0.014203  -0.018482  0.00504  3.99494  0.005
C  C38  1  0.52230360  0.52229447  0.36310925  1  -0.058885  0.003938  -0.088625  -0.108081  0.002194  3.983976  0.002
C  C39  1  0.47770943  0.47769701  0.63689575  1  -0.058827  0.003935  -0.088683  -0.108233  0.002193  3.98405  0.002
C  C40  1  0.57099257  0.57098593  0.53927920  1  0.017511  0.00409  -0.088108  -0.10594  0.00226  3.987679  0.002
C  C41  1  0.42901805  0.42900291  0.46072567  1  0.016557  0.004091  -0.088155  -0.106021  0.002261  3.987861  0.002
C  C42  1  0.73373570  0.95887407  0.92955808  1  0.477299  -0.004456  0.047463  0.103063  -0.005076  3.934222  -0.003
C  C43  1  0.95886232  0.73374383  0.92956394  1  0.477745  -0.004458  0.047543  0.103341  -0.005078  3.933872  -0.003
C  C44  1  0.26626050  0.04112625  0.07043882  1  0.477336  -0.004457  0.047464  0.103011  -0.005077  3.934267  -0.003
C  C45  1  0.04113508  0.26625724  0.07043589  1  0.477776  -0.004457  0.047578  0.103315  -0.005077  3.933899  -0.003
C  C46  1  0.72668333  0.96085020  0.80727504  1  0.081339  0.004208  -0.080031  -0.165511  0.00235  3.910497  0.004
C  C47  1  0.96084015  0.72668938  0.80727839  1  0.081391  0.004208  -0.080024  -0.165618  0.00235  3.910353  0.004
C  C48  1  0.27331527  0.03915048  0.19272452  1  0.081377  0.004209  -0.080075  -0.165572  0.00235  3.910504  0.004
C  C49  1  0.03916086  0.27331166  0.19272116  1  0.081399  0.004209  -0.080034  -0.165623  0.00235  3.910386  0.004
C  C50  1  0.84526206  0.84526666  0.74048353  1  -0.113502  -0.006394  0.011403  0.10396  -0.007032  3.962373  -0.004
C  C51  1  0.15473895  0.15473210  0.25951408  1  -0.113514  -0.006393  0.011413  0.104024  -0.007031  3.962339  -0.004
C  C52  1  0.85024912  0.85025625  0.60511589  1  -0.072394  -0.006048  0.009533  0.098312  -0.006635  3.970377  -0.004
C  C53  1  0.14975068  0.14974291  0.39488378  1  -0.072501  -0.006047  0.00957  0.098342  -0.006634  3.970414  -0.004
C  C54  1  0.73708941  0.97150354  0.53680214  1  -0.032482  0.004257  -0.083734  -0.174962  0.002348  3.927724  0.004
C  C55  1  0.97149973  0.73708898  0.53680377  1  -0.0324  0.004257  -0.083775  -0.175108  0.002348  3.927732  0.004
C  C56  1  0.26291160  0.02849523  0.46319637  1  -0.032121  0.004257  -0.083734  -0.175007  0.002348  3.927761  0.004
C  C57  1  0.02849887  0.26290829  0.46319513  1  -0.032427  0.004258  -0.08379  -0.175154  0.002348  3.927858  0.004
C  C58  1  0.75087714  0.97659985  0.40701858  1  0.478921  -0.003913  0.047096  0.096801  -0.004427  3.936978  -0.002
C  C59  1  0.97659728  0.75087502  0.40702212  1  0.479108  -0.003912  0.047115  0.09685  -0.004426  3.937021  -0.002
C  C60  1  0.24912386  0.02340005  0.59297955  1  0.478986  -0.003915  0.047127  0.096853  -0.004426  3.936916  -0.002
C  C61  1  0.02340492  0.24912222  0.59297739  1  0.478949  -0.003912  0.047134  0.09687  -0.004426  3.936917  -0.002
N  N62  1  0.85045838  0.85047003  0.98897142  1  -1.1898  0.064379  -0.327089  -0.225733  0.037429  3.596366  0.058
N  N63  1  0.14953661  0.14953295  0.01102857  1  -1.189854  0.06438  -0.327068  -0.22567  0.03743  3.596416  0.058
N  N64  1  0.86903339  0.86903228  0.34193409  1  -1.197074  0.06701  -0.324127  -0.21062  0.039372  3.559316  0.06
N  N65  1  0.13097002  0.13096571  0.65806389  1  -1.197436  0.067009  -0.324154  -0.210651  0.03937  3.559238  0.06
O  O66  1  0.78398215  0.10801286  0.11057342  1  -1.168259  0.070127  -0.310657  -0.554528  0.038913  2.467814  0.064
O  O67  1  0.10800755  0.78398377  0.11057315  1  -1.168243  0.070131  -0.310632  -0.554475  0.038915  2.467905  0.064
O  O68  1  0.21601044  0.89198976  0.88942748  1  -1.168256  0.070124  -0.310657  -0.554486  0.038911  2.467884  0.064
O  O69  1  0.89198864  0.21601427  0.88942897  1  -1.168221  0.070125  -0.310699  -0.554575  0.038911  2.467838  0.064
O  O70  1  0.84536006  0.62744872  0.26085191  1  -1.137319  0.075591  -0.300859  -0.528616  0.042476  2.220693  0.068
O  O71  1  0.62744702  0.84535859  0.26085458  1  -1.137552  0.075585  -0.300833  -0.528578  0.042472  2.220667  0.068
O  O72  1  0.15464576  0.37255305  0.73914849  1  -1.137337  0.075588  -0.300847  -0.528635  0.042474  2.220608  0.068
O  O73  1  0.37255278  0.15463943  0.73914815  1  -1.137491  0.075586  -0.30087  -0.528648  0.042473  2.220696  0.068
