# generated using pymatgen
data_ZnH6C12(N2O)2
_symmetry_space_group_name_H-M   'P 1'
_cell_length_a   4.81953580
_cell_length_b   10.52038569
_cell_length_c   10.73230710
_cell_angle_alpha   90.00010102
_cell_angle_beta   89.99986738
_cell_angle_gamma   98.70649700
_symmetry_Int_Tables_number   1
_chemical_formula_structural   ZnH6C12(N2O)2
_chemical_formula_sum   'Zn2 H12 C24 N8 O4'
_cell_volume   537.89364404
_cell_formula_units_Z   2
loop_
 _symmetry_equiv_pos_site_id
 _symmetry_equiv_pos_as_xyz
  1  'x, y, z'
loop_
 _atom_site_type_symbol
 _atom_site_label
 _atom_site_symmetry_multiplicity
 _atom_site_fract_x
 _atom_site_fract_y
 _atom_site_fract_z
 _atom_site_occupancy
 _atom_site_hle17_bader_spin_density
 _atom_site_hle17_ddec_charge
 _atom_site_hle17_ddec_spin_density
 _atom_site_hle17_ddec_sum_bond_order
 _atom_site_hle17_magmom
 _atom_site_hse06_10hf_bader_spin_density
 _atom_site_hse06_10hf_ddec_charge
 _atom_site_hse06_10hf_ddec_spin_density
 _atom_site_hse06_10hf_ddec_sum_bond_order
 _atom_site_hse06_10hf_magmom
 _atom_site_hse06_bader_spin_density
 _atom_site_hse06_ddec_charge
 _atom_site_hse06_ddec_spin_density
 _atom_site_hse06_ddec_sum_bond_order
 _atom_site_hse06_magmom
 _atom_site_pbe_bader_spin_density
 _atom_site_pbe_cm5_charge
 _atom_site_pbe_ddec_charge
 _atom_site_pbe_ddec_spin_density
 _atom_site_pbe_ddec_sum_bond_order
 _atom_site_pbe_magmom
Zn  Zn0  1  0.77405944  0.20147198  0.64411943  1  0  1.031444  0  1.883543  0  0  0.842233  0  2.371866  0  0  0.886379  0  2.317273  0  0  0.738154  0.811142  0  2.409676  0
Zn  Zn1  1  0.77405589  0.70147140  0.35588081  1  0  1.031403  0  1.883572  0  0  0.84218  0  2.371901  0  0  0.886327  0  2.317309  0  0  0.738155  0.811097  0  2.409695  0
H  H2  1  0.17824660  0.26106038  0.45020156  1  0  0.098531  0  0.961254  0  0  0.105949  0  1.031892  0  0  0.109224  0  1.029962  0  0  0.099561  0.102858  0  1.034455  0
H  H3  1  0.17824780  0.76105820  0.54979940  1  0  0.098508  0  0.961297  0  0  0.105923  0  1.031937  0  0  0.109202  0  1.029999  0  0  0.099551  0.102833  0  1.034503  0
H  H4  1  0.37328240  0.17403326  0.26377642  1  0  0.101712  0  0.971466  0  0  0.105773  0  1.04285  0  0  0.109258  0  1.040685  0  0  0.103052  0.103366  0  1.044293  0
H  H5  1  0.37328688  0.67403137  0.73622326  1  0  0.101703  0  0.971423  0  0  0.105776  0  1.042809  0  0  0.109267  0  1.040626  0  0  0.103043  0.103366  0  1.044248  0
H  H6  1  0.70261441  0.48832091  0.21935270  1  0  0.100164  0  0.977469  0  0  0.109723  0  1.043787  0  0  0.113212  0  1.041524  0  0  0.102377  0.107177  0  1.045397  0
H  H7  1  0.70261898  0.98832006  0.78064717  1  0  0.100169  0  0.977463  0  0  0.109722  0  1.043787  0  0  0.11321  0  1.041527  0  0  0.102378  0.107172  0  1.045398  0
H  H8  1  0.77476922  0.49545654  0.99292726  1  0  0.101662  0  0.934188  0  0  0.115346  0  0.989412  0  0  0.118193  0  0.988898  0  0  0.104915  0.113128  0  0.990417  0
H  H9  1  0.77476730  0.99545544  0.00707163  1  0  0.101719  0  0.934134  0  0  0.115363  0  0.989403  0  0  0.118209  0  0.98889  0  0  0.104929  0.113144  0  0.990406  0
H  H10  1  0.97416643  0.40953304  0.80457336  1  0  0.091591  0  0.975005  0  0  0.096897  0  1.045736  0  0  0.100094  0  1.043531  0  0  0.100731  0.09483  0  1.046847  0
H  H11  1  0.97416155  0.90953221  0.19542517  1  0  0.091637  0  0.974983  0  0  0.096899  0  1.045754  0  0  0.100095  0  1.043548  0  0  0.100719  0.094828  0  1.046868  0
H  H12  1  0.41302233  0.16538886  0.03048266  1  0  0.107043  0  0.938361  0  0  0.118254  0  0.99862  0  0  0.121411  0  0.996975  0  0  0.108152  0.11583  0  1.000386  0
H  H13  1  0.41302394  0.66538827  0.96951790  1  0  0.107047  0  0.938354  0  0  0.118255  0  0.998614  0  0  0.12141  0  0.996972  0  0  0.108141  0.115828  0  1.000388  0
C  C14  1  0.92559340  0.38160106  0.34731846  1  0  -0.00212  0  3.806943  0  0  0.015641  0  4.049057  0  0  0.013595  0  4.070862  0  0  -0.008955  0.017015  0  4.034037  0
C  C15  1  0.92559620  0.88159904  0.65268100  1  0  -0.00214  0  3.806958  0  0  0.015682  0  4.04903  0  0  0.013635  0  4.070845  0  0  -0.008946  0.017055  0  4.034017  0
C  C16  1  0.11645727  0.29141919  0.35842452  1  0  -0.08952  0  3.728082  0  0  -0.118889  0  3.990521  0  0  -0.121237  0  4.011676  0  0  -0.091415  -0.116782  0  3.976413  0
C  C17  1  0.11645863  0.79141907  0.64157469  1  0  -0.089511  0  3.728292  0  0  -0.118894  0  3.990728  0  0  -0.121245  0  4.011891  0  0  -0.091427  -0.116803  0  3.976635  0
C  C18  1  0.79781275  0.43109261  0.45693992  1  0  0.326928  0  3.756675  0  0  0.293691  0  4.015469  0  0  0.308038  0  4.031775  0  0  0.235731  0.284173  0  4.004071  0
C  C19  1  0.79781665  0.93109235  0.54305976  1  0  0.327017  0  3.75649  0  0  0.293697  0  4.015374  0  0  0.30804  0  4.031685  0  0  0.235744  0.284176  0  4.003986  0
C  C20  1  0.22778124  0.24320259  0.25349172  1  0  -0.097639  0  3.731881  0  0  -0.117477  0  3.984472  0  0  -0.119822  0  4.006  0  0  -0.085852  -0.116202  0  3.970044  0
C  C21  1  0.22778389  0.74320167  0.74650637  1  0  -0.097666  0  3.73183  0  0  -0.117533  0  3.984398  0  0  -0.119876  0  4.005927  0  0  -0.085848  -0.116244  0  3.969957  0
C  C22  1  0.85591047  0.42278735  0.23007161  1  0  -0.127372  0  3.6918  0  0  -0.156486  0  3.937719  0  0  -0.158256  0  3.956846  0  0  -0.081245  -0.155241  0  3.924564  0
C  C23  1  0.85591301  0.92278647  0.76992893  1  0  -0.12733  0  3.691791  0  0  -0.156439  0  3.937694  0  0  -0.158212  0  3.956827  0  0  -0.081222  -0.155184  0  3.924529  0
C  C24  1  0.15965362  0.28399950  0.13262961  1  0  0.054456  0  3.779508  0  0  0.074191  0  4.00086  0  0  0.07289  0  4.025338  0  0  -0.003055  0.075095  0  3.984513  0
C  C25  1  0.15965125  0.78399777  0.86736955  1  0  0.054481  0  3.779355  0  0  0.074262  0  4.000645  0  0  0.072962  0  4.025122  0  0  -0.003082  0.075173  0  3.984287  0
C  C26  1  0.91147424  0.42219236  0.00090370  1  0  -0.099253  0  3.723801  0  0  -0.120415  0  3.977256  0  0  -0.124586  0  3.999555  0  0  -0.083098  -0.117721  0  3.962896  0
C  C27  1  0.91147127  0.92219083  0.99909678  1  0  -0.099346  0  3.723814  0  0  -0.120472  0  3.97726  0  0  -0.124642  0  3.999557  0  0  -0.083147  -0.11778  0  3.9629  0
C  C28  1  0.97347311  0.37768481  0.12116202  1  0  0.066024  0  3.778241  0  0  0.082967  0  4.003054  0  0  0.083232  0  4.027542  0  0  -0.004414  0.083104  0  3.986153  0
C  C29  1  0.97347306  0.87768408  0.87883831  1  0  0.065991  0  3.778257  0  0  0.08292  0  4.003057  0  0  0.083184  0  4.027547  0  0  -0.004431  0.083049  0  3.986153  0
C  C30  1  0.31233105  0.22385761  0.79283422  1  0  0.676099  0  3.853153  0  0  0.619978  0  4.145905  0  0  0.655939  0  4.136953  0  0  0.224365  0.595492  0  4.151172  0
C  C31  1  0.31232582  0.72385583  0.20716654  1  0  0.676021  0  3.853271  0  0  0.619924  0  4.145973  0  0  0.655882  0  4.137025  0  0  0.224356  0.595424  0  4.15126  0
C  C32  1  0.19840361  0.27782279  0.90671292  1  0  -0.069629  0  3.769384  0  0  -0.047128  0  4.005924  0  0  -0.055715  0  4.02896  0  0  -0.016414  -0.041832  0  3.99106  0
C  C33  1  0.19840100  0.77782086  0.09328712  1  0  -0.069639  0  3.769338  0  0  -0.047151  0  4.005872  0  0  -0.055733  0  4.028894  0  0  -0.016448  -0.041853  0  3.991008  0
C  C34  1  0.02115425  0.37353338  0.89606393  1  0  -0.064697  0  3.750669  0  0  -0.09022  0  4.005399  0  0  -0.08985  0  4.025445  0  0  -0.086798  -0.09015  0  3.991702  0
C  C35  1  0.02114980  0.87353241  0.10393552  1  0  -0.064698  0  3.750657  0  0  -0.090183  0  4.005376  0  0  -0.089811  0  4.025418  0  0  -0.086757  -0.090103  0  3.991661  0
C  C36  1  0.27108433  0.23642282  0.02316377  1  0  -0.093493  0  3.691249  0  0  -0.126237  0  3.938751  0  0  -0.125349  0  3.958165  0  0  -0.073273  -0.127147  0  3.927173  0
C  C37  1  0.27108591  0.73642224  0.97683613  1  0  -0.093466  0  3.691124  0  0  -0.12622  0  3.938608  0  0  -0.125334  0  3.958021  0  0  -0.073204  -0.127132  0  3.927032  0
N  N38  1  0.71142799  0.54708309  0.46395067  1  0  -0.360231  0  3.228683  0  0  -0.28647  0  3.537188  0  0  -0.306235  0  3.546598  0  0  -0.245005  -0.273044  0  3.530938  0
N  N39  1  0.71143175  0.04708255  0.53604937  1  0  -0.360357  0  3.228713  0  0  -0.286561  0  3.537241  0  0  -0.306326  0  3.54665  0  0  -0.245017  -0.273129  0  3.530992  0
N  N40  1  0.73675080  0.37089882  0.56649882  1  0  -0.359187  0  3.189424  0  0  -0.284983  0  3.494494  0  0  -0.304457  0  3.5041  0  0  -0.242777  -0.271742  0  3.487652  0
N  N41  1  0.73675105  0.87089838  0.43350268  1  0  -0.359203  0  3.189418  0  0  -0.284987  0  3.494529  0  0  -0.304457  0  3.504132  0  0  -0.242815  -0.271744  0  3.487675  0
N  N42  1  0.61206342  0.45171482  0.63972832  1  0  -0.059098  0  2.94267  0  0  -0.05277  0  3.23248  0  0  -0.051999  0  3.244467  0  0  -0.085011  -0.053277  0  3.224164  0
N  N43  1  0.61206638  0.95171524  0.36027252  1  0  -0.059098  0  2.942691  0  0  -0.052765  0  3.232493  0  0  -0.051994  0  3.24448  0  0  -0.084969  -0.053265  0  3.224174  0
N  N44  1  0.59697443  0.55649739  0.57821135  1  0  -0.056883  0  2.96719  0  0  -0.04829  0  3.25789  0  0  -0.046855  0  3.269774  0  0  -0.078097  -0.04913  0  3.250036  0
N  N45  1  0.59697693  0.05649763  0.42179069  1  0  -0.056854  0  2.967302  0  0  -0.048265  0  3.257988  0  0  -0.046825  0  3.269868  0  0  -0.078116  -0.049109  0  3.250139  0
O  O46  1  0.55625514  0.19019791  0.80108299  1  0  -0.624447  0  2.088588  0  0  -0.545652  0  2.357813  0  0  -0.574197  0  2.344291  0  0  -0.309568  -0.524885  0  2.365714  0
O  O47  1  0.55625292  0.69019902  0.19891746  1  0  -0.624405  0  2.088642  0  0  -0.545601  0  2.357823  0  0  -0.57415  0  2.344306  0  0  -0.309547  -0.524829  0  2.365726  0
O  O48  1  0.17659249  0.21397990  0.69025149  1  0  -0.652049  0  2.11102  0  0  -0.585599  0  2.406409  0  0  -0.612878  0  2.38904  0  0  -0.322054  -0.566031  0  2.417883  0
O  O49  1  0.17658946  0.71398022  0.30974846  1  0  -0.652014  0  2.111051  0  0  -0.585561  0  2.406392  0  0  -0.612848  0  2.389057  0  0  -0.32205  -0.565993  0  2.417869  0
