# generated using pymatgen
data_VH8C10Se(NO2)2
_symmetry_space_group_name_H-M   'P 1'
_cell_length_a   11.25001558
_cell_length_b   11.21832360
_cell_length_c   11.53860000
_cell_angle_alpha   111.74424152
_cell_angle_beta   118.09532356
_cell_angle_gamma   98.22944620
_symmetry_Int_Tables_number   1
_chemical_formula_structural   VH8C10Se(NO2)2
_chemical_formula_sum   'V4 H32 C40 Se4 N8 O16'
_cell_volume   1099.95922227
_cell_formula_units_Z   4
loop_
 _symmetry_equiv_pos_site_id
 _symmetry_equiv_pos_as_xyz
  1  'x, y, z'
loop_
 _atom_site_type_symbol
 _atom_site_label
 _atom_site_symmetry_multiplicity
 _atom_site_fract_x
 _atom_site_fract_y
 _atom_site_fract_z
 _atom_site_occupancy
 _atom_site_pbe_bader_charge
 _atom_site_pbe_bader_spin_density
 _atom_site_pbe_cm5_charge
 _atom_site_pbe_ddec_charge
 _atom_site_pbe_ddec_spin_density
 _atom_site_pbe_ddec_sum_bond_order
 _atom_site_pbe_magmom
V  V0  1  0.69565716  0.16141779  0.29456850  1  2.008668  -0.82309  1.340529  1.622847  -0.871858  3.220352  -0.831
V  V1  1  0.36690949  0.40128848  0.20589200  1  2.009143  0.822151  1.341738  1.622385  0.871434  3.220936  0.83
V  V2  1  0.30426543  0.83838871  0.70410489  1  2.033834  -0.004309  1.378349  1.653279  -0.00461  3.284006  -0.003
V  V3  1  0.63412450  0.59967673  0.79532448  1  2.036359  0.005417  1.378801  1.651306  0.005786  3.286312  0.004
H  H4  1  0.44131197  0.90859113  0.21824906  1  0.104298  0.000164  0.114075  0.08137  0.000317  1.033805  0.0
H  H5  1  0.19066970  0.22339889  0.28051637  1  0.08014  -0.000162  0.114634  0.082621  -0.000316  1.033384  0.0
H  H6  1  0.55894170  0.09187540  0.78189826  1  0.103449  1.6e-05  0.11262  0.078604  3.2e-05  1.035988  0.0
H  H7  1  0.80948716  0.77674804  0.71948438  1  0.074379  -1.6e-05  0.112994  0.079967  -3.3e-05  1.035466  0.0
H  H8  1  0.41173095  0.77275658  0.34370369  1  0.12198  6.8e-05  0.107103  0.125753  -0.000123  1.017915  0.0
H  H9  1  0.92825811  0.06826604  0.15486622  1  0.125058  -7.4e-05  0.106832  0.125041  0.000117  1.016854  0.0
H  H10  1  0.58842592  0.22794004  0.65689978  1  0.116906  -1e-06  0.105522  0.124374  4.3e-05  1.020924  0.0
H  H11  1  0.07164371  0.93121461  0.84451918  1  0.122038  -0.0  0.10574  0.124245  -4.9e-05  1.019908  0.0
H  H12  1  0.63023616  0.81779531  0.58237898  1  0.108543  -2.2e-05  0.108074  0.11871  -4.5e-05  1.013056  0.0
H  H13  1  0.73372135  0.04703863  0.91611522  1  0.132225  1.8e-05  0.108315  0.120205  4.4e-05  1.01427  0.0
H  H14  1  0.36995443  0.18216214  0.41739308  1  0.110601  7.6e-05  0.107156  0.120021  -6.4e-05  1.015895  0.0
H  H15  1  0.26638265  0.95327799  0.08401685  1  0.132897  -7.8e-05  0.107476  0.120989  6.3e-05  1.017927  0.0
H  H16  1  0.87500951  0.98346692  0.68328532  1  0.073958  5.9e-05  0.106364  0.108905  8.7e-05  1.028594  0.0
H  H17  1  0.79866224  0.19062395  0.81595148  1  0.068702  -5.5e-05  0.10629  0.108554  -8.6e-05  1.02973  0.0
H  H18  1  0.12519189  0.01659881  0.31658877  1  0.070983  -8.5e-05  0.105078  0.107369  -7.5e-05  1.03  0.0
H  H19  1  0.20154890  0.80964895  0.18420797  1  0.065578  8e-05  0.10512  0.107241  6.9e-05  1.030488  0.0
H  H20  1  0.07396366  0.09408560  0.72476244  1  0.097234  0.000295  0.110314  0.12812  0.000357  1.002267  0.0
H  H21  1  0.86862734  0.34833241  0.77487413  1  0.099539  -0.000296  0.109841  0.127355  -0.000353  1.002507  0.0
H  H22  1  0.92699261  0.90597805  0.27583450  1  0.097494  -0.000173  0.108784  0.125536  -7.4e-05  1.003304  0.0
H  H23  1  0.13086481  0.65219659  0.22464096  1  0.0958  0.000169  0.108407  0.124897  7.2e-05  1.004444  0.0
H  H24  1  0.29306080  0.25590212  0.78137950  1  0.064638  -0.000211  0.107678  0.099366  -0.000142  0.994509  0.0
H  H25  1  0.97441483  0.51051851  0.71895000  1  0.069838  0.000202  0.108063  0.099602  0.000145  0.993194  0.0
H  H26  1  0.70755245  0.74388564  0.21918331  1  0.067684  -0.000137  0.1053  0.096656  -0.000142  0.998751  0.0
H  H27  1  0.02493013  0.48967110  0.28066300  1  0.069729  0.000142  0.105233  0.096329  0.000149  0.998608  0.0
H  H28  1  0.26211985  0.38037652  0.63453553  1  0.144595  0.000142  0.104754  0.129598  0.000283  1.041118  0.0
H  H29  1  0.24667724  0.62690902  0.86645443  1  0.164209  -0.000136  0.105089  0.128591  -0.000286  1.037848  0.0
H  H30  1  0.73942160  0.61964443  0.36669606  1  0.170541  -0.000205  0.103859  0.129092  -0.000686  1.040988  0.0
H  H31  1  0.75225731  0.37344821  0.13249057  1  0.141706  0.000205  0.103715  0.12821  0.00066  1.038412  0.0
H  H32  1  0.00586794  0.33520349  0.43281852  1  0.117252  0.000536  0.118144  0.093707  0.000605  1.003474  0.0
H  H33  1  0.40346898  0.57343657  0.06859114  1  0.132707  -0.00055  0.118328  0.094764  -0.000603  1.00396  0.0
H  H34  1  0.99478518  0.66487785  0.56785966  1  0.110916  -1.7e-05  0.116958  0.093096  3e-06  1.005402  0.0
H  H35  1  0.59597338  0.42650214  0.93090602  1  0.127955  1.7e-05  0.116635  0.093063  2e-06  1.00656  0.0
C  C36  1  0.53389493  0.92052699  0.32107759  1  0.464586  -0.001481  0.047156  0.090345  -0.000963  3.972148  0.0
C  C37  1  0.09925129  0.21289346  0.17786678  1  0.488086  0.001552  0.046618  0.088448  0.001015  3.972012  0.0
C  C38  1  0.46636666  0.07962722  0.67889155  1  0.454029  6.8e-05  0.043656  0.08765  4.5e-05  3.982236  0.0
C  C39  1  0.90079597  0.78740754  0.82227434  1  0.480423  -5.2e-05  0.042886  0.084724  -3e-05  3.983019  0.0
C  C40  1  0.51751885  0.84760321  0.39071671  1  -0.055947  -0.007259  -0.081299  -0.116314  -0.006691  3.93052  -0.004
C  C41  1  0.95609352  0.12682618  0.10808059  1  -0.010423  0.007195  -0.080421  -0.112577  0.006623  3.926258  0.004
C  C42  1  0.48269661  0.15283626  0.60964511  1  -0.044143  2.3e-05  -0.085123  -0.120864  5.3e-05  3.937795  0.0
C  C43  1  0.04383967  0.87298656  0.89159396  1  -0.028978  -0.000144  -0.084392  -0.118072  -0.000165  3.934308  0.0
C  C44  1  0.64140815  0.87183097  0.52435561  1  0.033634  -0.003201  -0.063624  -0.011274  -0.002943  3.910644  -0.002
C  C45  1  0.84622975  0.11654146  0.97443957  1  -0.074689  0.00331  -0.064856  -0.015138  0.002981  3.912587  0.002
C  C46  1  0.35867212  0.12842735  0.47562930  1  0.014082  0.000374  -0.066923  -0.016293  0.000348  3.913909  0.0
C  C47  1  0.15395947  0.88347950  0.02556967  1  -0.062795  -0.000398  -0.068324  -0.019277  -0.000367  3.916319  0.0
C  C48  1  0.77675897  0.96398018  0.58026104  1  -0.051177  -0.004185  -0.081529  -0.161997  -0.003633  3.95477  -0.002
C  C49  1  0.88261401  0.19582305  0.91894236  1  0.00506  0.004081  -0.081505  -0.162008  0.003587  3.956455  0.002
C  C50  1  0.22348648  0.03632499  0.41978538  1  -0.053474  -0.000366  -0.08339  -0.163453  -0.000399  3.962393  0.0
C  C51  1  0.11763321  0.80432804  0.08106411  1  -0.066206  0.000314  -0.083554  -0.164129  0.000351  3.961453  0.0
C  C52  1  0.78534133  0.03202121  0.50249352  1  0.49874  -0.003764  0.117842  0.170318  -0.00364  4.001893  -0.001
C  C53  1  0.02901722  0.28254620  0.99701989  1  0.486533  0.003821  0.11852  0.171909  0.003676  4.00124  0.001
C  C54  1  0.21470840  0.96774365  0.49719130  1  0.489186  0.000434  0.113258  0.16631  0.000341  4.012127  0.0
C  C55  1  0.97103130  0.71786932  0.00344386  1  0.536722  -0.000507  0.113016  0.16792  -0.000403  4.009571  0.0
C  C56  1  0.92199806  0.12830034  0.54769338  1  0.418608  -0.030759  0.114164  0.165169  -0.027365  3.987418  -0.02
C  C57  1  0.08042393  0.37414260  0.95248244  1  0.470652  0.030605  0.113522  0.164579  0.027328  3.984417  0.02
C  C58  1  0.07886807  0.87182161  0.45252611  1  0.403262  0.000963  0.107077  0.158144  0.000886  3.991393  0.001
C  C59  1  0.91946835  0.62657483  0.04741512  1  0.468882  -0.001079  0.106491  0.156209  -0.001005  3.99222  -0.001
C  C60  1  0.06107439  0.14893017  0.66178382  1  0.012367  0.007849  -0.078108  -0.150006  0.007049  3.926981  0.007
C  C61  1  0.98685247  0.39873474  0.83834523  1  -0.008773  -0.007889  -0.077452  -0.148602  -0.007112  3.924878  -0.007
C  C62  1  0.93944002  0.85101584  0.33865627  1  0.007414  -0.000384  -0.080418  -0.15046  -0.000315  3.939597  0.0
C  C63  1  0.01267503  0.60145279  0.16134043  1  -0.012213  0.000376  -0.08086  -0.150317  0.000304  3.940779  0.0
C  C64  1  0.18425400  0.23889521  0.69307002  1  -0.001682  -0.033804  -0.067086  -0.013578  -0.030793  3.950214  -0.021
C  C65  1  0.04588985  0.49052582  0.80742608  1  0.035035  0.034012  -0.066806  -0.013246  0.030928  3.945877  0.021
C  C66  1  0.81645851  0.76130481  0.30754558  1  -0.002814  0.000701  -0.074175  -0.023696  0.000596  3.961188  0.0
C  C67  1  0.95378051  0.50967108  0.19210323  1  0.007223  -0.000745  -0.073848  -0.023372  -0.000634  3.95835  0.0
C  C68  1  0.16710403  0.30738091  0.61021367  1  -0.033697  0.004722  -0.084065  -0.124927  0.004239  3.949005  0.005
C  C69  1  0.19773480  0.55649317  0.89062389  1  -0.047636  -0.004843  -0.083101  -0.123365  -0.004292  3.948202  -0.005
C  C70  1  0.83414404  0.69282536  0.39083643  1  -0.033219  -0.000221  -0.086672  -0.126533  -0.000213  3.956209  0.0
C  C71  1  0.80149490  0.44372767  0.10841184  1  -0.022926  0.000112  -0.085642  -0.125951  0.000116  3.956264  0.0
C  C72  1  0.02664710  0.28338010  0.49957466  1  0.429564  -0.024024  0.044602  0.097935  -0.020897  3.938333  -0.015
C  C73  1  0.28450866  0.52723184  0.00147142  1  0.363531  0.024249  0.043367  0.094708  0.021001  3.940579  0.015
C  C74  1  0.97432775  0.71664502  0.50107153  1  0.382634  -0.000468  0.039125  0.09347  -0.000445  3.945003  0.0
C  C75  1  0.71490463  0.47309103  0.99799476  1  0.366875  0.000508  0.038008  0.091746  0.000484  3.946224  0.0
Se  Se76  1  0.41814648  0.13730246  0.00704514  1  1.867295  0.003836  0.638384  1.187911  0.006093  3.93298  0.004
Se  Se77  1  0.63034665  0.41181577  0.49360479  1  1.867201  -0.003912  0.637129  1.186263  -0.006209  3.936186  -0.004
Se  Se78  1  0.58027159  0.86151085  0.99256868  1  1.876292  -0.017549  0.644599  1.191883  -0.022179  3.916365  -0.014
Se  Se79  1  0.36853778  0.58683618  0.50635137  1  1.869023  0.017469  0.644095  1.191557  0.022012  3.919388  0.014
N  N80  1  0.66386250  0.01108947  0.37601572  1  -1.249656  -0.007746  -0.358889  -0.323894  -0.005079  3.524781  -0.004
N  N81  1  0.13495667  0.28769429  0.12323894  1  -1.25774  0.00776  -0.360676  -0.325875  0.00504  3.529083  0.004
N  N82  1  0.33647951  0.98837348  0.62360356  1  -1.244882  -0.000132  -0.363315  -0.329186  -0.000156  3.526717  0.0
N  N83  1  0.86481053  0.71307728  0.87730447  1  -1.253386  2.3e-05  -0.365422  -0.330707  5.5e-05  3.530213  0.0
N  N84  1  0.90593873  0.19579910  0.46784143  1  -1.219247  -0.008037  -0.384877  -0.33569  -0.003459  3.564148  0.013
N  N85  1  0.22828850  0.43841822  0.03289835  1  -1.244941  0.008219  -0.384485  -0.335631  0.003536  3.559967  -0.013
N  N86  1  0.09566518  0.80394701  0.53267419  1  -1.21472  0.000571  -0.393836  -0.345844  0.000549  3.561474  0.0
N  N87  1  0.77092642  0.56264277  0.96663339  1  -1.242053  -0.000641  -0.392542  -0.34452  -0.000616  3.558042  -0.001
O  O88  1  0.48398040  0.07342141  0.13328096  1  -1.050525  -0.016862  -0.46571  -0.773857  -0.014217  2.148027  -0.004
O  O89  1  0.43967284  0.34984404  0.36546542  1  -1.049459  0.016716  -0.46533  -0.773143  0.014075  2.148356  0.004
O  O90  1  0.51231924  0.92480162  0.86603933  1  -1.039414  -0.003423  -0.463354  -0.762851  -0.002988  2.165454  -0.002
O  O91  1  0.55869818  0.64652380  0.63469936  1  -1.035403  0.003512  -0.463077  -0.763313  0.003065  2.169834  0.002
O  O92  1  0.75531089  0.29216256  0.28022219  1  -0.823599  0.080674  -0.592634  -0.73206  0.077406  1.660275  0.076
O  O93  1  0.51247499  0.47605287  0.22160081  1  -0.824924  -0.080313  -0.592551  -0.733549  -0.07724  1.667639  -0.076
O  O94  1  0.24436268  0.70904001  0.72017607  1  -0.813333  -0.000418  -0.587223  -0.725861  -0.000357  1.66469  0.0
O  O95  1  0.48833597  0.52258659  0.77781499  1  -0.815576  0.000268  -0.587283  -0.726215  0.000211  1.671878  0.0
O  O96  1  0.27847268  0.98901686  0.83847356  1  -1.034648  0.001399  -0.460217  -0.741692  0.001192  2.152978  0.001
O  O97  1  0.64961055  0.43907617  0.66032653  1  -1.034892  -0.001394  -0.459476  -0.741017  -0.001192  2.154916  -0.001
O  O98  1  0.72021847  0.00988808  0.15808768  1  -1.042047  -0.010651  -0.454913  -0.736456  -0.009402  2.158924  0.005
O  O99  1  0.35267836  0.56291761  0.34281509  1  -1.038817  0.010741  -0.454303  -0.735319  0.009537  2.160682  -0.004
O  O100  1  0.30573773  0.20675532  0.04504407  1  -1.039122  0.023383  -0.455903  -0.728273  0.02085  2.143734  0.008
O  O101  1  0.66223300  0.26121365  0.45456679  1  -1.038786  -0.023326  -0.456112  -0.728905  -0.020896  2.146852  -0.007
O  O102  1  0.69174602  0.79137402  0.95139062  1  -1.026297  -0.00011  -0.455742  -0.724065  0.000261  2.148729  0.0
O  O103  1  0.33943475  0.73990251  0.54867465  1  -1.024257  0.000112  -0.456381  -0.725591  -0.000263  2.149039  0.0
