# generated using pymatgen
data_CdH9C13Br2N
_symmetry_space_group_name_H-M   'P 1'
_cell_length_a   7.27068067
_cell_length_b   10.37688312
_cell_length_c   10.11824567
_cell_angle_alpha   120.84865829
_cell_angle_beta   105.47724592
_cell_angle_gamma   89.99990862
_symmetry_Int_Tables_number   1
_chemical_formula_structural   CdH9C13Br2N
_chemical_formula_sum   'Cd2 H18 C26 Br4 N2'
_cell_volume   622.92601070
_cell_formula_units_Z   2
loop_
 _symmetry_equiv_pos_site_id
 _symmetry_equiv_pos_as_xyz
  1  'x, y, z'
loop_
 _atom_site_type_symbol
 _atom_site_label
 _atom_site_symmetry_multiplicity
 _atom_site_fract_x
 _atom_site_fract_y
 _atom_site_fract_z
 _atom_site_occupancy
 _atom_site_hle17_bader_spin_density
 _atom_site_hle17_ddec_charge
 _atom_site_hle17_ddec_spin_density
 _atom_site_hle17_ddec_sum_bond_order
 _atom_site_hle17_magmom
 _atom_site_hse06_10hf_bader_spin_density
 _atom_site_hse06_10hf_ddec_charge
 _atom_site_hse06_10hf_ddec_spin_density
 _atom_site_hse06_10hf_ddec_sum_bond_order
 _atom_site_hse06_10hf_magmom
 _atom_site_hse06_bader_spin_density
 _atom_site_hse06_ddec_charge
 _atom_site_hse06_ddec_spin_density
 _atom_site_hse06_ddec_sum_bond_order
 _atom_site_hse06_magmom
 _atom_site_pbe_bader_spin_density
 _atom_site_pbe_cm5_charge
 _atom_site_pbe_ddec_charge
 _atom_site_pbe_ddec_spin_density
 _atom_site_pbe_ddec_sum_bond_order
 _atom_site_pbe_magmom
Cd  Cd0  1  0.74999710  0.07446076  0.00000082  1  0  0.85506  0  2.01683  0  0  0.696116  0  2.481108  0  0  0.745071  0  2.440757  0  0  0.522137  0.662853  0  2.507325  0
Cd  Cd1  1  0.24999894  0.92554329  0.00000212  1  0  0.855096  0  2.016763  0  0  0.696151  0  2.48103  0  0  0.745109  0  2.440679  0  0  0.522147  0.662891  0  2.50725  0
H  H2  1  0.74999481  0.67274190  0.99999448  1  0  0.106803  0  0.934431  0  0  0.114381  0  1.00479  0  0  0.117432  0  1.001936  0  0  0.104294  0.112564  0  1.005281  0
H  H3  1  0.25000342  0.32725231  0.00000492  1  0  0.106793  0  0.934326  0  0  0.114387  0  1.004681  0  0  0.117444  0  1.00183  0  0  0.104299  0.11257  0  1.005169  0
H  H4  1  0.98605060  0.80747601  0.27523344  1  0  0.095295  0  0.981094  0  0  0.104606  0  1.047455  0  0  0.107709  0  1.045391  0  0  0.08784  0.102865  0  1.048172  0
H  H5  1  0.51394493  0.53224384  0.72475872  1  0  0.095228  0  0.981177  0  0  0.104622  0  1.04745  0  0  0.107714  0  1.045404  0  0  0.087839  0.10288  0  1.04816  0
H  H6  1  0.01394675  0.19252044  0.72476494  1  0  0.095299  0  0.981076  0  0  0.104613  0  1.047441  0  0  0.107725  0  1.045371  0  0  0.087822  0.10287  0  1.04816  0
H  H7  1  0.48605061  0.46775714  0.27523963  1  0  0.095271  0  0.981173  0  0  0.104614  0  1.047499  0  0  0.107706  0  1.045448  0  0  0.08784  0.102869  0  1.048213  0
H  H8  1  0.19593890  0.79953743  0.51036148  1  0  0.093601  0  0.960903  0  0  0.103297  0  1.023691  0  0  0.106239  0  1.022896  0  0  0.090853  0.100365  0  1.025613  0
H  H9  1  0.30405996  0.28917805  0.48962939  1  0  0.093581  0  0.960868  0  0  0.103293  0  1.02364  0  0  0.106235  0  1.022844  0  0  0.090864  0.10036  0  1.025562  0
H  H10  1  0.80405756  0.20046127  0.48963589  1  0  0.093604  0  0.960888  0  0  0.103294  0  1.023677  0  0  0.106236  0  1.022882  0  0  0.090831  0.100361  0  1.025601  0
H  H11  1  0.69594069  0.71082072  0.51037380  1  0  0.093573  0  0.960857  0  0  0.103305  0  1.023614  0  0  0.106247  0  1.022818  0  0  0.090843  0.100371  0  1.025538  0
H  H12  1  0.99151782  0.31948761  0.26246773  1  0  0.087505  0  1.001992  0  0  0.096448  0  1.073965  0  0  0.099497  0  1.072256  0  0  0.084063  0.095353  0  1.073499  0
H  H13  1  0.50846919  0.05702043  0.73752744  1  0  0.087465  0  1.002066  0  0  0.096438  0  1.073994  0  0  0.099492  0  1.072282  0  0  0.084053  0.095345  0  1.073523  0
H  H14  1  0.00848257  0.68051553  0.73752873  1  0  0.08749  0  1.001995  0  0  0.096439  0  1.073954  0  0  0.099488  0  1.072245  0  0  0.084079  0.095341  0  1.073491  0
H  H15  1  0.49153319  0.94297940  0.26247368  1  0  0.087449  0  1.002037  0  0  0.096401  0  1.073979  0  0  0.099455  0  1.072267  0  0  0.084045  0.095308  0  1.073513  0
H  H16  1  0.19790556  0.55539584  0.49920006  1  0  0.090953  0  0.951067  0  0  0.10476  0  1.006537  0  0  0.106955  0  1.005891  0  0  0.097051  0.102079  0  1.008415  0
H  H17  1  0.30208684  0.05619822  0.50079320  1  0  0.090939  0  0.951156  0  0  0.104745  0  1.006582  0  0  0.106941  0  1.005946  0  0  0.097058  0.102071  0  1.008463  0
H  H18  1  0.80209147  0.44460505  0.50079458  1  0  0.090911  0  0.951078  0  0  0.104732  0  1.006526  0  0  0.106941  0  1.005857  0  0  0.097055  0.10205  0  1.008403  0
H  H19  1  0.69791169  0.94379706  0.49920384  1  0  0.090919  0  0.951259  0  0  0.104724  0  1.006683  0  0  0.10692  0  1.006048  0  0  0.097052  0.10205  0  1.008562  0
C  C20  1  0.74999443  0.56746958  0.99999671  1  0  -0.060377  0  3.63441  0  0  -0.09431  0  3.886342  0  0  -0.087993  0  3.900951  0  0  -0.053575  -0.097146  0  3.875616  0
C  C21  1  0.25000120  0.43252579  0.00000276  1  0  -0.060395  0  3.634097  0  0  -0.094348  0  3.88604  0  0  -0.088041  0  3.90066  0  0  -0.053629  -0.097182  0  3.875312  0
C  C22  1  0.86544713  0.42626163  0.12956930  1  0  0.224982  0  3.769346  0  0  0.218585  0  4.006551  0  0  0.228989  0  4.028639  0  0  0.113835  0.211081  0  3.993051  0
C  C23  1  0.63453660  0.29669400  0.87041833  1  0  0.224776  0  3.769441  0  0  0.218506  0  4.006487  0  0  0.22891  0  4.028577  0  0  0.113829  0.211006  0  3.992982  0
C  C24  1  0.13455737  0.57373473  0.87042851  1  0  0.224896  0  3.76933  0  0  0.218595  0  4.006371  0  0  0.228998  0  4.028459  0  0  0.11385  0.211094  0  3.992869  0
C  C25  1  0.36546382  0.70330362  0.12958324  1  0  0.224819  0  3.769482  0  0  0.218596  0  4.006463  0  0  0.229  0  4.028552  0  0  0.113851  0.211095  0  3.992963  0
C  C26  1  0.98804736  0.70198631  0.27435692  1  0  -0.08922  0  3.726687  0  0  -0.108791  0  3.971538  0  0  -0.109203  0  3.99357  0  0  -0.08528  -0.108121  0  3.95625  0
C  C27  1  0.51194099  0.42762504  0.72562735  1  0  -0.08947  0  3.727011  0  0  -0.109108  0  3.97193  0  0  -0.109518  0  3.99398  0  0  -0.085422  -0.108427  0  3.956628  0
C  C28  1  0.01195934  0.29801343  0.72564205  1  0  -0.089217  0  3.726734  0  0  -0.108821  0  3.971568  0  0  -0.10924  0  3.993596  0  0  -0.08524  -0.108146  0  3.956275  0
C  C29  1  0.48805742  0.57237590  0.27437056  1  0  -0.089446  0  3.727083  0  0  -0.109027  0  3.972009  0  0  -0.109432  0  3.994051  0  0  -0.085415  -0.108345  0  3.956707  0
C  C30  1  0.86712739  0.56782184  0.13448743  1  0  0.010368  0  3.789154  0  0  0.029637  0  4.018249  0  0  0.023785  0  4.04311  0  0  -0.005487  0.033075  0  4.001854  0
C  C31  1  0.63285955  0.43333455  0.86549898  1  0  0.010623  0  3.789115  0  0  0.02978  0  4.018304  0  0  0.023931  0  4.043162  0  0  -0.005423  0.033219  0  4.001905  0
C  C32  1  0.13287259  0.43217341  0.86550890  1  0  0.010396  0  3.789222  0  0  0.029675  0  4.018243  0  0  0.023825  0  4.043107  0  0  -0.005506  0.033112  0  4.001845  0
C  C33  1  0.36713950  0.56666299  0.13449832  1  0  0.010561  0  3.789053  0  0  0.029671  0  4.018281  0  0  0.023822  0  4.04314  0  0  -0.00544  0.033109  0  4.001884  0
C  C34  1  0.10323708  0.69738051  0.40308065  1  0  -0.069181  0  3.760511  0  0  -0.08464  0  4.014429  0  0  -0.089853  0  4.037487  0  0  -0.092562  -0.082069  0  4.000092  0
C  C35  1  0.39675479  0.29429419  0.59690940  1  0  -0.069023  0  3.760621  0  0  -0.084498  0  4.014519  0  0  -0.089709  0  4.037575  0  0  -0.092578  -0.081928  0  4.000186  0
C  C36  1  0.89676470  0.30262266  0.59691809  1  0  -0.069236  0  3.760586  0  0  -0.084672  0  4.014471  0  0  -0.089886  0  4.037537  0  0  -0.092569  -0.082102  0  4.000135  0
C  C37  1  0.60324162  0.70570457  0.40309095  1  0  -0.069087  0  3.760661  0  0  -0.084588  0  4.014561  0  0  -0.089801  0  4.037618  0  0  -0.09255  -0.082018  0  4.000225  0
C  C38  1  0.98840858  0.42574147  0.26450296  1  0  -0.173073  0  3.725763  0  0  -0.188842  0  3.973886  0  0  -0.197318  0  3.996106  0  0  -0.100891  -0.184594  0  3.959402  0
C  C39  1  0.51157603  0.16123690  0.73549094  1  0  -0.173013  0  3.725982  0  0  -0.188857  0  3.974095  0  0  -0.197316  0  3.996272  0  0  -0.100876  -0.18461  0  3.959611  0
C  C40  1  0.01159027  0.57426184  0.73550019  1  0  -0.173071  0  3.7258  0  0  -0.188877  0  3.973894  0  0  -0.19736  0  3.996134  0  0  -0.100922  -0.184627  0  3.959409  0
C  C41  1  0.48841849  0.83875955  0.26450588  1  0  -0.172972  0  3.725906  0  0  -0.188782  0  3.973972  0  0  -0.197245  0  3.996159  0  0  -0.100847  -0.184537  0  3.959494  0
C  C42  1  0.10376211  0.55767225  0.39689467  1  0  -0.019253  0  3.737498  0  0  -0.033634  0  3.98289  0  0  -0.031055  0  4.003314  0  0  -0.077926  -0.034131  0  3.970261  0
C  C43  1  0.39623122  0.16077361  0.60309307  1  0  -0.019254  0  3.737665  0  0  -0.033609  0  3.983021  0  0  -0.031041  0  4.003444  0  0  -0.077883  -0.034117  0  3.970407  0
C  C44  1  0.89624009  0.44232634  0.60310083  1  0  -0.019115  0  3.737527  0  0  -0.033509  0  3.982894  0  0  -0.030937  0  4.003315  0  0  -0.077873  -0.034005  0  3.970264  0
C  C45  1  0.60376777  0.83922401  0.39690822  1  0  -0.019206  0  3.737647  0  0  -0.03358  0  3.983028  0  0  -0.031009  0  4.003449  0  0  -0.077894  -0.034085  0  3.97041  0
Br  Br46  1  0.49088400  0.81994094  0.79741664  1  0  -0.495221  0  1.098324  0  0  -0.431476  0  1.409157  0  0  -0.452001  0  1.387378  0  0  -0.22997  -0.414782  0  1.422379  0
Br  Br47  1  0.00911813  0.02252365  0.20258668  1  0  -0.495249  0  1.098355  0  0  -0.43149  0  1.409183  0  0  -0.45202  0  1.387416  0  0  -0.229969  -0.414797  0  1.422412  0
Br  Br48  1  0.50912055  0.18006232  0.20258764  1  0  -0.495246  0  1.098348  0  0  -0.43149  0  1.409181  0  0  -0.452018  0  1.38741  0  0  -0.229972  -0.414794  0  1.422405  0
Br  Br49  1  0.99088774  0.97748521  0.79741676  1  0  -0.495279  0  1.09835  0  0  -0.431508  0  1.409143  0  0  -0.452038  0  1.387381  0  0  -0.22999  -0.414814  0  1.42237  0
N  N50  1  0.74999128  0.29612251  0.99999415  1  0  -0.414826  0  3.228824  0  0  -0.335959  0  3.484485  0  0  -0.361873  0  3.505643  0  0  -0.335866  -0.320396  0  3.472033  0
N  N51  1  0.25000755  0.70388082  0.00000999  1  0  -0.414827  0  3.228581  0  0  -0.335997  0  3.484186  0  0  -0.361909  0  3.505343  0  0  -0.335876  -0.320434  0  3.471736  0
