# generated using pymatgen
data_AlH8C9N3O5
_symmetry_space_group_name_H-M   'P 1'
_cell_length_a   6.68676236
_cell_length_b   8.83083867
_cell_length_c   16.83266274
_cell_angle_alpha   100.66290087
_cell_angle_beta   84.25402173
_cell_angle_gamma   75.73064335
_symmetry_Int_Tables_number   1
_chemical_formula_structural   AlH8C9N3O5
_chemical_formula_sum   'Al2 H16 C18 N6 O10'
_cell_volume   935.51780432
_cell_formula_units_Z   2
loop_
 _symmetry_equiv_pos_site_id
 _symmetry_equiv_pos_as_xyz
  1  'x, y, z'
loop_
 _atom_site_type_symbol
 _atom_site_label
 _atom_site_symmetry_multiplicity
 _atom_site_fract_x
 _atom_site_fract_y
 _atom_site_fract_z
 _atom_site_occupancy
 _atom_site_pbe_bader_charge
 _atom_site_pbe_bader_spin_density
 _atom_site_pbe_cm5_charge
 _atom_site_pbe_ddec_charge
 _atom_site_pbe_ddec_spin_density
 _atom_site_pbe_ddec_sum_bond_order
 _atom_site_pbe_magmom
Al  Al0  1  0.00050338  0.50508454  0.49943707  1  2.503925  0  0.396709  1.641209  0  2.581844  0
Al  Al1  1  0.50087881  0.50663270  0.49879472  1  2.502142  0  0.393886  1.644194  0  2.596385  0
H  H2  1  0.17954761  0.65511516  0.59192630  1  0.63059  0  0.355723  0.432953  0  0.847345  0
H  H3  1  0.82934508  0.31544556  0.43155169  1  0.608439  0  0.351652  0.427233  0  0.858719  0
H  H4  1  0.58279348  0.58795699  0.27593473  1  0.090831  0  0.106261  0.106256  0  1.01257  0
H  H5  1  0.65210242  0.59372845  0.12688963  1  0.098468  0  0.101119  0.108416  0  1.032382  0
H  H6  1  0.09532127  0.44577270  0.09013474  1  0.085476  0  0.107672  0.120905  0  1.005441  0
H  H7  1  0.93947443  0.43545042  0.89590016  1  0.09804  0  0.108789  0.122449  0  1.004023  0
H  H8  1  0.27901059  0.58428965  0.89034308  1  0.093737  0  0.099893  0.1073  0  1.035346  0
H  H9  1  0.35463713  0.58373118  0.74113623  1  0.101453  0  0.103068  0.102402  0  1.023087  0
H  H10  1  0.94317243  0.44945300  0.30480587  1  0.483475  0  0.308574  0.318612  0  0.976626  0
H  H11  1  0.88337365  0.41161781  0.20534780  1  0.440528  0  0.307087  0.304076  0  0.959335  0
H  H12  1  0.09245394  0.42587132  0.68057851  1  0.501779  0  0.310235  0.319338  0  0.972969  0
H  H13  1  0.17780165  0.39341223  0.77310409  1  0.44129  0  0.309236  0.307146  0  0.953121  0
H  H14  1  0.72990099  0.15085310  0.53127416  1  0.452823  0  0.302558  0.30027  0  0.988359  0
H  H15  1  0.88238037  0.96678214  0.54001217  1  0.465173  0  0.29849  0.292147  0  0.981755  0
H  H16  1  0.27026584  0.86014293  0.47704706  1  0.482779  0  0.306166  0.309758  0  0.983051  0
H  H17  1  0.11874216  0.04162732  0.46289532  1  0.4459  0  0.297157  0.287607  0  0.993481  0
C  C18  1  0.65245102  0.79169634  0.50628727  1  1.504599  0  0.259529  0.607742  0  4.081226  0
C  C19  1  0.71404324  0.51231890  0.64589632  1  1.493955  0  0.255783  0.646142  0  4.09299  0
C  C20  1  0.35153717  0.21840372  0.49265057  1  1.522449  0  0.256646  0.606028  0  4.080075  0
C  C21  1  0.28373245  0.50279802  0.35394141  1  1.516588  0  0.258955  0.648141  0  4.097125  0
C  C22  1  0.30575853  0.51009729  0.26694794  1  0.000294  0  -0.03192  -0.178539  0  3.930681  0
C  C23  1  0.47996898  0.55390108  0.23375137  1  -0.039246  0  -0.085826  -0.064226  0  4.042507  0
C  C24  1  0.51994063  0.55667878  0.15204344  1  -0.037997  0  -0.114261  -0.212492  0  4.021401  0
C  C25  1  0.37954550  0.51313044  0.10047330  1  0.318517  0  0.085687  0.197093  0  4.07994  0
C  C26  1  0.20173651  0.47548122  0.13186412  1  -0.014847  0  -0.092132  -0.263381  0  3.878666  0
C  C27  1  0.15894835  0.47309017  0.21562499  1  0.499568  0  0.117301  0.325218  0  4.065555  0
C  C28  1  0.81264015  0.46604478  0.86056041  1  -0.025675  0  -0.092606  -0.264754  0  3.880296  0
C  C29  1  0.60795407  0.50591271  0.90015402  1  0.306059  0  0.087134  0.199152  0  4.076693  0
C  C30  1  0.43787693  0.54871737  0.85756012  1  -0.00879  0  -0.113406  -0.211192  0  4.02219  0
C  C31  1  0.48118861  0.54888619  0.77573848  1  -0.070495  0  -0.090396  -0.067357  0  4.049861  0
C  C32  1  0.68688281  0.50713639  0.73314747  1  -0.003678  0  -0.036789  -0.184464  0  3.930711  0
C  C33  1  0.85857754  0.46360839  0.77628246  1  0.475631  0  0.116534  0.325471  0  4.066981  0
C  C34  1  0.60121447  0.96366054  0.50590067  1  0.478094  0  0.074697  0.041533  0  4.018816  0
C  C35  1  0.40282090  0.04680869  0.49475758  1  0.450049  0  0.08159  0.052303  0  4.026142  0
N  N36  1  0.40388541  0.50774398  0.01546519  1  -0.489455  0  -0.144622  -0.126953  0  3.262987  0
N  N37  1  0.58602987  0.50432912  0.98449965  1  -0.455555  0  -0.148335  -0.133223  0  3.261116  0
N  N38  1  0.98629428  0.43177436  0.24344576  1  -1.254041  0  -0.583949  -0.603227  0  3.350893  0
N  N39  1  0.06091548  0.41919962  0.73988849  1  -1.270163  0  -0.58267  -0.601219  0  3.354933  0
N  N40  1  0.76743894  0.02969871  0.51434332  1  -1.213577  0  -0.602037  -0.592746  0  3.407683  0
N  N41  1  0.23687459  0.98139649  0.48796650  1  -1.225266  0  -0.600592  -0.588265  0  3.417161  0
O  O42  1  0.83904742  0.72383684  0.51544684  1  -1.268548  0  -0.24493  -0.595263  0  2.337184  0
O  O43  1  0.55163825  0.53310208  0.61057522  1  -1.272787  0  -0.249606  -0.618947  0  2.358644  0
O  O44  1  0.49561579  0.29100386  0.49883789  1  -1.258523  0  -0.237808  -0.600615  0  2.399501  0
O  O45  1  0.10256221  0.50853257  0.39008339  1  -1.267526  0  -0.238932  -0.602075  0  2.37355  0
O  O46  1  0.16383001  0.28469162  0.48403142  1  -1.269714  0  -0.246509  -0.602211  0  2.347217  0
O  O47  1  0.44652084  0.48944848  0.38869544  1  -1.271795  0  -0.244049  -0.601637  0  2.351906  0
O  O48  1  0.50913759  0.71917459  0.49814681  1  -1.260657  0  -0.233772  -0.589723  0  2.414028  0
O  O49  1  0.89942889  0.49654867  0.60951200  1  -1.266551  0  -0.243701  -0.614265  0  2.369472  0
O  O50  1  0.21578500  0.58075690  0.53932909  1  -1.43515  0  -0.450596  -0.995401  0  2.207021  0
O  O51  1  0.78641840  0.42750731  0.45907539  1  -1.412614  0  -0.448687  -0.988923  0  2.194841  0
