# generated using pymatgen
data_Zn4H68C80N28O5
_symmetry_space_group_name_H-M   'P 1'
_cell_length_a   19.80254579
_cell_length_b   19.75500656
_cell_length_c   20.63852480
_cell_angle_alpha   106.45210509
_cell_angle_beta   106.03110739
_cell_angle_gamma   111.26094747
_symmetry_Int_Tables_number   1
_chemical_formula_structural   Zn4H68C80N28O5
_chemical_formula_sum   'Zn4 H68 C80 N28 O5'
_cell_volume   6535.84101556
_cell_formula_units_Z   1
loop_
 _symmetry_equiv_pos_site_id
 _symmetry_equiv_pos_as_xyz
  1  'x, y, z'
loop_
 _atom_site_type_symbol
 _atom_site_label
 _atom_site_symmetry_multiplicity
 _atom_site_fract_x
 _atom_site_fract_y
 _atom_site_fract_z
 _atom_site_occupancy
 _atom_site_pbe_bader_charge
 _atom_site_pbe_bader_spin_density
 _atom_site_pbe_cm5_charge
 _atom_site_pbe_ddec_charge
 _atom_site_pbe_ddec_spin_density
 _atom_site_pbe_ddec_sum_bond_order
 _atom_site_pbe_magmom
Zn  Zn0  1  0.59988222  0.61196641  0.50470995  1  1.186276  0  0.747366  0.61351  0  2.473332  0
Zn  Zn1  1  0.39139753  0.37936019  0.49759302  1  1.21233  0  0.753182  0.692257  0  2.288062  0
Zn  Zn2  1  0.47298629  0.58007074  0.57943777  1  1.187617  0  0.740753  0.647091  0  2.381387  0
Zn  Zn3  1  0.51842690  0.41489817  0.41907891  1  1.194743  0  0.748428  0.633707  0  2.455449  0
H  H4  1  0.75957727  0.64540484  0.63469011  1  0.108375  0  0.116197  0.108761  0  0.997652  0
H  H5  1  0.66805275  0.04139952  0.55693609  1  0.043163  0  0.100128  0.101321  0  0.987888  0
H  H6  1  0.53364600  0.06901694  0.53358903  1  0.051381  0  0.100114  0.088992  0  0.990984  0
H  H7  1  0.51697993  0.03096341  0.65346325  1  0.058587  0  0.097248  0.084012  0  0.996295  0
H  H8  1  0.61874473  0.19578855  0.75381009  1  0.058868  0  0.097574  0.084531  0  0.996746  0
H  H9  1  0.39999880  0.58311515  0.81830547  1  0.060422  0  0.094005  0.096976  0  1.011387  0
H  H10  1  0.46533480  0.60123191  0.73860525  1  0.101115  0  0.110213  0.095164  0  1.041477  0
H  H11  1  0.38127251  0.58527466  0.93338811  1  0.105299  0  0.097971  0.103773  0  1.023799  0
H  H12  1  0.40448230  0.64052042  0.14389552  1  0.07652  0  0.102848  0.105253  0  0.999207  0
H  H13  1  0.42489564  0.63916634  0.26779231  1  0.038717  0  0.098453  0.100175  0  1.001204  0
H  H14  1  0.30286813  0.38359324  0.04128939  1  0.087316  0  0.100976  0.10173  0  1.015741  0
H  H15  1  0.22020856  0.34314420  0.37923042  1  0.114103  0  0.117652  0.111804  0  1.010454  0
H  H16  1  0.32102897  0.38077932  0.16375622  1  0.044175  0  0.099453  0.100795  0  1.001016  0
H  H17  1  0.31344038  0.09674246  0.16957604  1  0.033602  0  0.09707  0.104269  0  1.015804  0
H  H18  1  0.97041956  0.80837623  0.90615280  1  0.07447  0  0.10207  0.102374  0  1.021372  0
H  H19  1  0.65633568  0.40273669  0.36512392  1  0.090715  0  0.121611  0.110637  0  0.988134  0
H  H20  1  0.84818080  0.69365921  0.79568193  1  0.052527  0  0.100206  0.102636  0  0.99509  0
H  H21  1  0.14350186  0.16854936  0.21448816  1  0.041342  0  0.096313  0.096942  0  1.022832  0
H  H22  1  0.86799144  0.96444476  0.89073422  1  0.053135  0  0.102821  0.105826  0  0.998884  0
H  H23  1  0.03678421  0.05724912  0.09282829  1  0.093463  0  0.104043  0.105633  0  1.018864  0
H  H24  1  0.74665922  0.85062399  0.77795319  1  0.048208  0  0.100148  0.102801  0  1.002161  0
H  H25  1  0.35585775  0.34187658  0.63894929  1  0.093981  0  0.116924  0.110827  0  1.007295  0
H  H26  1  0.41394643  0.24978888  0.25870363  1  0.069382  0  0.116407  0.105171  0  0.991669  0
H  H27  1  0.76892036  0.66195352  0.47847298  1  0.082906  0  0.120917  0.111582  0  0.991452  0
H  H28  1  0.48673879  0.64026585  0.38364133  1  0.095022  0  0.117347  0.105589  0  0.999059  0
H  H29  1  0.42012666  0.71114568  0.61403249  1  0.411485  0  0.309436  0.250715  0  0.947945  0
H  H30  1  0.41650932  0.82132905  0.68814634  1  0.066153  0  0.106813  0.112628  0  0.976032  0
H  H31  1  0.44600810  0.85351205  0.62295605  1  0.034099  0  0.093303  0.09336  0  0.989746  0
H  H32  1  0.51906652  0.88495091  0.71344816  1  0.024303  0  0.102903  0.11378  0  0.99335  0
H  H33  1  0.18403262  0.16102372  0.31288171  1  0.598086  0  0.331566  0.365164  0  0.896168  0
H  H34  1  0.97997166  0.32319012  0.35641269  1  0.396738  0  0.292881  0.233495  0  0.964782  0
H  H35  1  0.92844786  0.28058831  0.43787318  1  0.034734  0  0.096468  0.099673  0  0.990422  0
H  H36  1  0.85569245  0.29801834  0.38113714  1  0.030013  0  0.082227  0.078072  0  1.020301  0
H  H37  1  0.68249325  0.81459078  0.57224704  1  0.107179  0  0.121238  0.112283  0  0.983995  0
H  H38  1  0.92543081  0.37196733  0.47318312  1  0.037196  0  0.099525  0.105162  0  0.988266  0
H  H39  1  0.16940773  0.59626231  0.45637555  1  0.590208  0  0.302614  0.33423  0  0.949729  0
H  H40  1  0.48267522  0.27317078  0.62356376  1  0.615619  0  0.340013  0.370828  0  0.872686  0
H  H41  1  0.98237939  0.66437428  0.38356889  1  0.399078  0  0.294436  0.237784  0  0.958716  0
H  H42  1  0.03771167  0.71229312  0.30625074  1  0.0357  0  0.097609  0.101943  0  0.988254  0
H  H43  1  0.04386122  0.62275958  0.27080939  1  0.044946  0  0.098179  0.103268  0  0.989952  0
H  H44  1  0.10978393  0.69549064  0.36445420  1  0.023886  0  0.083379  0.081359  0  1.009681  0
H  H45  1  0.79115238  0.39255275  0.26223501  1  0.390072  0  0.292905  0.237637  0  0.962864  0
H  H46  1  0.75189486  0.25914219  0.18400641  1  0.038128  0  0.098765  0.102386  0  0.986428  0
H  H47  1  0.84661901  0.27100530  0.23568261  1  0.016816  0  0.095678  0.098245  0  0.994848  0
H  H48  1  0.37170669  0.37975641  0.27695893  1  0.10446  0  0.114598  0.099703  0  1.028317  0
H  H49  1  0.83848690  0.31978091  0.17544635  1  0.018801  0  0.082402  0.07378  0  1.008087  0
H  H50  1  0.82247558  0.20349614  0.66909594  1  0.601624  0  0.329837  0.360677  0  0.888263  0
H  H51  1  0.42401455  0.31898665  0.80851550  1  0.419527  0  0.291526  0.229941  0  0.996207  0
H  H52  1  0.51804409  0.33459417  0.76230537  1  0.032823  0  0.093517  0.09438  0  0.996529  0
H  H53  1  0.55173936  0.43265024  0.83076124  1  0.022858  0  0.088531  0.089715  0  0.990598  0
H  H54  1  0.50304270  0.40690311  0.73397879  1  0.072698  0  0.094503  0.105743  0  1.036758  0
H  H55  1  0.37112781  0.35373889  0.93826588  1  0.423885  0  0.291152  0.23114  0  0.995933  0
H  H56  1  0.30054910  0.21482122  0.84965968  1  0.032125  0  0.097496  0.104903  0  0.982563  0
H  H57  1  0.30050860  0.24654947  0.77700255  1  0.060763  0  0.099618  0.104226  0  1.008387  0
H  H58  1  0.24457681  0.26531364  0.82741544  1  0.020907  0  0.088433  0.087726  0  0.99206  0
H  H59  1  0.33918788  0.60357928  0.47056423  1  0.084859  0  0.115683  0.105548  0  1.00554  0
H  H60  1  0.27564770  0.99789023  0.06354069  1  0.438106  0  0.313998  0.249543  0  0.943678  0
H  H61  1  0.12698983  0.91061295  0.92844553  1  0.081594  0  0.102367  0.109482  0  1.010495  0
H  H62  1  0.13179876  0.85847261  0.98515169  1  0.058012  0  0.096941  0.099821  0  0.992613  0
H  H63  1  0.20863929  0.88934063  0.95376190  1  0.033779  0  0.10296  0.105746  0  0.983218  0
H  H64  1  0.69760731  0.36628632  0.53768926  1  0.631894  0  0.348145  0.382538  0  0.85407  0
H  H65  1  0.56858217  0.72856750  0.72124626  1  0.434207  0  0.291079  0.228989  0  1.017507  0
H  H66  1  0.58958438  0.73894927  0.84516157  1  0.045255  0  0.099032  0.101472  0  0.986872  0
H  H67  1  0.68445396  0.80217481  0.85101414  1  0.026169  0  0.085793  0.084068  0  1.027808  0
H  H68  1  0.66049900  0.70401042  0.84494972  1  0.064015  0  0.107474  0.11938  0  0.970093  0
H  H69  1  0.00051279  0.52093238  0.49909749  1  0.078048  0  0.103793  0.115998  0  0.982322  0
H  H70  1  0.96620218  0.47019512  0.24072435  1  0.053569  0  0.096943  0.104602  0  1.001063  0
H  H71  1  0.75284017  0.16896299  0.77765204  1  0.074089  0  0.09957  0.102114  0  0.993118  0
C  C72  1  0.71126972  0.64615289  0.64970365  1  0.37719  0  0.000335  -0.053279  0  4.013022  0
C  C73  1  0.62910665  0.78757052  0.58074866  1  0.478098  0  0.015388  -0.039401  0  4.012165  0
C  C74  1  0.40629811  0.44359128  0.31351374  1  0.389522  0  0.010553  -0.03721  0  3.941246  0
C  C75  1  0.51277833  0.33968580  0.57537458  1  1.072145  0  0.190363  0.380686  0  4.123538  0
C  C76  1  0.32205050  0.54053497  0.45556790  1  0.382878  0  0.009532  -0.062032  0  3.96158  0
C  C77  1  0.40946442  0.50993562  0.29890897  1  -0.038773  0  -0.034604  -0.042313  0  4.058638  0
C  C78  1  0.24693512  0.47214861  0.40768129  1  0.164361  0  -0.03325  0.04121  0  4.199928  0
C  C79  1  0.59588439  0.82723380  0.61954656  1  0.141385  0  -0.04703  -0.074695  0  4.197744  0
C  C80  1  0.29978921  0.20278506  0.27316837  1  0.03514  0  -0.055652  -0.18591  0  4.116959  0
C  C81  1  0.97640494  0.42815808  0.38167344  1  0.463788  0  0.09606  0.15238  0  3.731118  0
C  C82  1  0.99333120  0.50885815  0.44186711  1  -0.07764  0  -0.085665  -0.206053  0  3.638886  0
C  C83  1  0.58281501  0.33525174  0.57678702  1  0.16092  0  -0.068896  -0.247197  0  4.289164  0
C  C84  1  0.81029221  0.53630625  0.40538326  1  -0.25411  0  -0.070777  -0.131035  0  4.21608  0
C  C85  1  0.17305720  0.47052094  0.37719137  1  -0.330951  0  -0.062509  -0.118424  0  4.201446  0
C  C86  1  0.90818411  0.43180596  0.32142979  1  0.436642  0  0.090678  0.134372  0  3.71446  0
C  C87  1  0.43588470  0.53752563  0.70242836  1  0.360887  0  0.003768  -0.050421  0  4.00035  0
C  C88  1  0.92616354  0.51280021  0.38294240  1  0.104075  0  -0.002026  0.051039  0  3.855079  0
C  C89  1  0.97313350  0.48086964  0.29773948  1  -0.079505  0  -0.091837  -0.209565  0  3.654408  0
C  C90  1  0.03956859  0.47654549  0.35651015  1  0.066691  0  -0.011861  0.023497  0  3.880766  0
C  C91  1  0.98899227  0.56132153  0.35785158  1  0.450458  0  0.09059  0.132497  0  3.74836  0
C  C92  1  0.05656489  0.55746591  0.41845554  1  0.557945  0  0.078319  0.228794  0  3.714394  0
C  C93  1  0.86542126  0.52835222  0.39530192  1  -0.135983  0  -0.062652  -0.118151  0  4.173527  0
C  C94  1  0.40941042  0.47124095  0.71945946  1  0.002668  0  -0.037395  -0.031829  0  4.070215  0
C  C95  1  0.10721522  0.46728733  0.35658293  1  -0.060711  0  -0.072053  -0.140622  0  4.166061  0
C  C96  1  0.70386016  0.14635772  0.72334483  1  -0.075432  0  -0.086477  -0.178202  0  3.638301  0
C  C97  1  0.71285636  0.16682612  0.65676094  1  0.575077  0  0.084116  0.278718  0  3.749453  0
C  C98  1  0.61158098  0.28934106  0.60446393  1  -0.464042  0  -0.079531  -0.108621  0  4.316323  0
C  C99  1  0.67126973  0.46497750  0.39385825  1  0.463127  0  0.018308  -0.038131  0  3.963191  0
C  C100  1  0.62157034  0.91008688  0.64878759  1  -0.296109  0  -0.066427  -0.089086  0  4.260206  0
C  C101  1  0.62944814  0.16074842  0.71011147  1  -0.037633  0  -0.074866  -0.069325  0  3.657122  0
C  C102  1  0.63810982  0.18220527  0.64333592  1  0.093659  0  -0.001175  0.076337  0  3.799026  0
C  C103  1  0.57275352  0.07059198  0.65390771  1  -0.027404  0  -0.07539  -0.078705  0  3.642539  0
C  C104  1  0.64711358  0.05458564  0.66652024  1  0.116724  0  0.002104  0.156991  0  3.818228  0
C  C105  1  0.74265583  0.53479717  0.41597396  1  0.120412  0  -0.031836  0.044426  0  4.21622  0
C  C106  1  0.58205720  0.08987053  0.58761334  1  -0.015205  0  -0.075945  -0.071517  0  3.653287  0
C  C107  1  0.65649490  0.07613333  0.60010266  1  -0.032606  0  -0.084378  -0.165208  0  3.635242  0
C  C108  1  0.62905263  0.24449167  0.62754947  1  0.064965  0  -0.067403  -0.131027  0  4.141677  0
C  C109  1  0.64272582  0.98179898  0.66826029  1  -0.10717  0  -0.082315  -0.183645  0  4.136387  0
C  C110  1  0.37901350  0.51027324  0.22608337  1  -0.046689  0  -0.005534  0.093747  0  4.029137  0
C  C111  1  0.38100867  0.40521962  0.65135213  1  0.471343  0  0.010655  -0.035589  0  3.975295  0
C  C112  1  0.33997101  0.43823693  0.16008470  1  0.014556  0  -0.092757  -0.124052  0  3.991253  0
C  C113  1  0.32955741  0.43920352  0.09128594  1  -0.010441  0  -0.092871  -0.147484  0  3.997458  0
C  C114  1  0.35701947  0.51300191  0.08573689  1  0.316278  0  0.077972  0.162301  0  4.078331  0
C  C115  1  0.38616409  0.58402084  0.14933989  1  -0.084626  0  -0.088485  -0.141633  0  3.986703  0
C  C116  1  0.46478668  0.57639294  0.36789404  1  0.453439  0  0.012057  -0.040353  0  3.952448  0
C  C117  1  0.39745045  0.58266877  0.21840658  1  0.037161  0  -0.098505  -0.137667  0  3.994858  0
C  C118  1  0.38520398  0.53576165  0.89765649  1  -0.040663  0  -0.107295  -0.163859  0  4.051785  0
C  C119  1  0.39742658  0.53473751  0.83479595  1  -0.075599  0  -0.105473  -0.140706  0  4.056338  0
C  C120  1  0.37424372  0.46935580  0.91468129  1  0.373423  0  0.072786  0.085269  0  4.079748  0
C  C121  1  0.40487395  0.47163611  0.78898694  1  0.049378  0  -0.010102  0.015836  0  3.998237  0
C  C122  1  0.40367017  0.40980236  0.81122558  1  0.3418  0  0.082573  0.093066  0  3.989961  0
C  C123  1  0.72946332  0.59751900  0.45234036  1  0.422939  0  0.01082  -0.060946  0  3.973161  0
C  C124  1  0.38142297  0.40532138  0.87008677  1  0.381021  0  0.088535  0.074796  0  3.984453  0
C  C125  1  0.78835881  0.76382898  0.78007574  1  -0.024132  0  -0.007324  0.104157  0  4.02631  0
C  C126  1  0.79509672  0.84106809  0.80693583  1  0.021064  0  -0.094601  -0.132555  0  3.997748  0
C  C127  1  0.26125899  0.40725242  0.40820167  1  0.407361  0  0.016671  -0.040548  0  3.918686  0
C  C128  1  0.86262064  0.90464414  0.86894308  1  -0.04603  0  -0.088509  -0.146134  0  3.986962  0
C  C129  1  0.92642698  0.89340806  0.90506233  1  0.363234  0  0.076766  0.162181  0  4.083948  0
C  C130  1  0.92129298  0.81695501  0.87722011  1  -0.070872  0  -0.09275  -0.148562  0  3.982774  0
C  C131  1  0.85320817  0.75345411  0.81579600  1  -0.027207  0  -0.095107  -0.131409  0  3.99877  0
C  C132  1  0.19329042  0.02659124  0.08214753  1  0.420699  0  0.11099  0.189262  0  4.051511  0
C  C133  1  0.25277165  0.08909551  0.15239684  1  -0.010857  0  -0.117154  -0.272891  0  3.978967  0
C  C134  1  0.11359035  0.01579845  0.06116879  1  0.432732  0  0.073788  0.06783  0  4.012911  0
C  C135  1  0.60736267  0.37979748  0.53713742  1  1.073662  0  0.188637  0.378001  0  4.121749  0
C  C136  1  0.23677986  0.13939611  0.20121414  1  -0.011571  0  -0.01321  0.131507  0  4.106219  0
C  C137  1  0.15723795  0.12750230  0.17936913  1  -0.049287  0  -0.123316  -0.201109  0  4.063987  0
C  C138  1  0.52699088  0.76267569  0.61226026  1  0.882937  0  0.193712  0.259952  0  4.106821  0
C  C139  1  0.09810582  0.06721202  0.11107867  1  -0.055418  0  -0.091173  -0.119387  0  4.028594  0
C  C140  1  0.63476021  0.67343705  0.70252488  1  0.879781  0  0.190428  0.265811  0  4.054747  0
C  C141  1  0.71589257  0.69665982  0.71602235  1  0.012436  0  -0.0418  -0.137025  0  4.069976  0
C  C142  1  0.46308861  0.83461030  0.66762708  1  0.309074  0  -0.136421  -0.203419  0  3.977292  0
C  C143  1  0.91811257  0.32616502  0.42282217  1  0.26887  0  -0.146494  -0.208364  0  4.018781  0
C  C144  1  0.04825682  0.66654172  0.32075635  1  0.259951  0  -0.146722  -0.210733  0  4.020985  0
C  C145  1  0.81603721  0.30224393  0.21485615  1  0.284657  0  -0.144403  -0.204399  0  4.03029  0
C  C146  1  0.50367795  0.38405916  0.77653954  1  0.235686  0  -0.148271  -0.217142  0  3.981298  0
C  C147  1  0.30045713  0.26255474  0.83246223  1  0.238969  0  -0.143818  -0.212066  0  3.970466  0
C  C148  1  0.16826435  0.90629085  0.97307996  1  0.285346  0  -0.135273  -0.217752  0  4.013133  0
C  C149  1  0.38154592  0.25020279  0.29348540  1  0.425725  0  0.003536  -0.043223  0  4.047095  0
C  C150  1  0.63584184  0.73971948  0.82527392  1  0.269264  0  -0.138603  -0.19945  0  3.984942  0
C  C151  1  0.29288949  0.23259350  0.34051187  1  1.008624  0  0.179386  0.351662  0  4.118888  0
N  N152  1  0.63391440  0.59685105  0.59953041  1  -0.784894  0  -0.295956  -0.203166  0  3.558118  0
N  N153  1  0.36085769  0.46174645  0.97574376  1  -0.562682  0  -0.165874  -0.144438  0  3.380357  0
N  N154  1  0.99016750  0.96022392  0.96941295  1  -0.509838  0  -0.175577  -0.179585  0  3.308305  0
N  N155  1  0.49881855  0.38429524  0.54110049  1  -0.825469  0  -0.296312  -0.297469  0  3.505563  0
N  N156  1  0.05333031  0.95378780  0.99287077  1  -0.548627  0  -0.161435  -0.125971  0  3.348068  0
N  N157  1  0.42375937  0.51305231  0.63055762  1  -0.800287  0  -0.277865  -0.193351  0  3.554901  0
N  N158  1  0.62034213  0.48458825  0.41528348  1  -0.795313  0  -0.271474  -0.170728  0  3.556331  0
N  N159  1  0.38917269  0.43035618  0.59853390  1  -0.79589  0  -0.271795  -0.192622  0  3.53379  0
N  N160  1  0.65635658  0.56696735  0.45169405  1  -0.801447  0  -0.270963  -0.17199  0  3.56408  0
N  N161  1  0.55787290  0.40884802  0.51595786  1  -0.811367  0  -0.299753  -0.292548  0  3.529169  0
N  N162  1  0.58749736  0.61116948  0.63406158  1  -0.78799  0  -0.291658  -0.266887  0  3.561612  0
N  N163  1  0.33805725  0.43585349  0.45384851  1  -0.741896  0  -0.271283  -0.177096  0  3.614078  0
N  N164  1  0.49295874  0.55088347  0.41783127  1  -0.770652  0  -0.285504  -0.188086  0  3.654954  0
N  N165  1  0.47292446  0.76325119  0.64289293  1  -1.171244  0  -0.451219  -0.332673  0  3.545218  0
N  N166  1  0.97811603  0.36403626  0.39813424  1  -1.132625  0  -0.475579  -0.348206  0  3.517369  0
N  N167  1  0.98625565  0.62538083  0.34199212  1  -1.10663  0  -0.475782  -0.346709  0  3.521669  0
N  N168  1  0.82836025  0.36964829  0.27765372  1  -1.120684  0  -0.474676  -0.349378  0  3.525459  0
N  N169  1  0.42510668  0.35249783  0.77872780  1  -1.1178  0  -0.466973  -0.324944  0  3.48214  0
N  N170  1  0.37231399  0.33910307  0.88702029  1  -1.104804  0  -0.47308  -0.341319  0  3.492375  0
N  N171  1  0.21724858  0.98273238  0.03856786  1  -1.215458  0  -0.433604  -0.262478  0  3.607625  0
N  N172  1  0.59881387  0.70290098  0.74413207  1  -1.189651  0  -0.461392  -0.347136  0  3.593475  0
N  N173  1  0.52057480  0.69189632  0.57194661  1  -0.809089  0  -0.28307  -0.313749  0  3.442164  0
N  N174  1  0.41913240  0.30339673  0.36553821  1  -0.806397  0  -0.278712  -0.185401  0  3.546236  0
N  N175  1  0.36329683  0.29184827  0.39526955  1  -0.799623  0  -0.277697  -0.287587  0  3.447887  0
N  N176  1  0.58470456  0.70799280  0.55264631  1  -0.856801  0  -0.27693  -0.174028  0  3.586635  0
N  N177  1  0.45716038  0.46929395  0.38453807  1  -0.821959  0  -0.28402  -0.192549  0  3.627285  0
N  N178  1  0.37530767  0.51741847  0.48309298  1  -0.818419  0  -0.278441  -0.174925  0  3.647821  0
N  N179  1  0.36369279  0.52230095  0.02234963  1  -0.488549  0  -0.172598  -0.165629  0  3.284492  0
O  O180  1  0.22836597  0.20871405  0.35664274  1  -1.126947  0  -0.351637  -0.460375  0  2.262792  0
O  O181  1  0.13401561  0.61831557  0.46572650  1  -1.144726  0  -0.39569  -0.48911  0  2.223529  0
O  O182  1  0.46123771  0.30232746  0.60072778  1  -1.151073  0  -0.333253  -0.44274  0  2.308778  0
O  O183  1  0.78187932  0.22040924  0.65721637  1  -1.132941  0  -0.386711  -0.504117  0  2.224116  0
O  O184  1  0.66971358  0.39297166  0.51827289  1  -1.147996  0  -0.338768  -0.446663  0  2.26269  0
