# generated using pymatgen
data_ZnH7C26N6O14F5
_symmetry_space_group_name_H-M   'P 1'
_cell_length_a   17.23838132
_cell_length_b   18.36974661
_cell_length_c   19.50028380
_cell_angle_alpha   88.41023047
_cell_angle_beta   87.58874055
_cell_angle_gamma   84.27533683
_symmetry_Int_Tables_number   1
_chemical_formula_structural   ZnH7C26N6O14F5
_chemical_formula_sum   'Zn2 H14 C52 N12 O28 F10'
_cell_volume   6137.09234681
_cell_formula_units_Z   2
loop_
 _symmetry_equiv_pos_site_id
 _symmetry_equiv_pos_as_xyz
  1  'x, y, z'
loop_
 _atom_site_type_symbol
 _atom_site_label
 _atom_site_symmetry_multiplicity
 _atom_site_fract_x
 _atom_site_fract_y
 _atom_site_fract_z
 _atom_site_occupancy
 _atom_site_pbe_bader_charge
 _atom_site_pbe_bader_spin_density
 _atom_site_pbe_cm5_charge
 _atom_site_pbe_ddec_charge
 _atom_site_pbe_ddec_spin_density
 _atom_site_pbe_ddec_sum_bond_order
 _atom_site_pbe_magmom
Zn  Zn0  1  0.49373928  0.42161447  0.51514050  1  1.28352  0  0.678021  0.848817  0  2.35887  0
Zn  Zn1  1  0.49329059  0.57680873  0.49886516  1  1.306171  0  0.684539  0.853011  0  2.385309  0
H  H2  1  0.27103694  0.60024793  0.40750112  1  0.115633  0  0.108139  0.116323  0  1.019177  0
H  H3  1  0.75711831  0.37237513  0.50967255  1  0.108023  0  0.112289  0.116063  0  0.982593  0
H  H4  1  0.98971773  0.59203523  0.42880635  1  0.102924  0  0.112667  0.118414  0  0.993281  0
H  H5  1  0.00464946  0.42307053  0.43255533  1  0.095179  0  0.110434  0.1139  0  0.998051  0
H  H6  1  0.89861757  0.37060355  0.47767479  1  0.08386  0  0.114369  0.122715  0  0.978439  0
H  H7  1  0.13142735  0.61243023  0.37762298  1  0.087602  0  0.114686  0.12336  0  0.973192  0
H  H8  1  0.45648634  0.37832696  0.29777864  1  0.139071  0  0.124356  0.160168  0  0.966709  0
H  H9  1  0.59245524  0.54600681  0.72156817  1  0.107028  0  0.126639  0.159988  0  0.952593  0
H  H10  1  0.60693509  0.31091451  0.46546446  1  0.176923  0  0.13688  0.120115  0  0.986118  0
H  H11  1  0.61923444  0.66754828  0.50408801  1  0.20932  0  0.135277  0.119685  0  0.996428  0
H  H12  1  0.62844857  0.17562881  0.44584756  1  0.117457  0  0.130048  0.143183  0  0.953361  0
H  H13  1  0.64348762  0.79984202  0.50882603  1  0.115698  0  0.1323  0.146465  0  0.948961  0
H  H14  1  0.53612619  0.05904040  0.60128254  1  0.163117  0  0.131127  0.148687  0  0.971214  0
H  H15  1  0.53088232  0.93201615  0.38054371  1  0.150301  0  0.134347  0.154166  0  0.95735  0
C  C16  1  0.47947768  0.52475277  0.63560648  1  1.627501  0  0.221445  0.608328  0  4.196676  0
C  C17  1  0.50616155  0.48296113  0.37436741  1  1.586269  0  0.218648  0.598315  0  4.171006  0
C  C18  1  0.64461338  0.48467133  0.49798431  1  1.588079  0  0.217346  0.616914  0  4.174196  0
C  C19  1  0.34471456  0.50500895  0.49584792  1  1.617233  0  0.226394  0.634587  0  4.139872  0
C  C20  1  0.72801373  0.48225400  0.47313336  1  0.088792  0  -0.021695  -0.136962  0  3.972359  0
C  C21  1  0.25957806  0.51351154  0.48198861  1  -0.000831  0  -0.015217  -0.126262  0  3.949289  0
C  C22  1  0.75788622  0.54203346  0.43865935  1  0.552938  0  0.120436  0.24346  0  4.01363  0
C  C23  1  0.20686292  0.47029489  0.51575666  1  0.5528  0  0.11931  0.239783  0  4.031767  0
C  C24  1  0.83621110  0.54000887  0.41756735  1  0.218756  0  0.070555  -0.086909  0  3.893194  0
C  C25  1  0.12844641  0.47788135  0.49981862  1  0.239525  0  0.071254  -0.084949  0  3.899514  0
C  C26  1  0.88959084  0.47949741  0.43340617  1  0.039954  0  0.00895  0.108288  0  4.015095  0
C  C27  1  0.09928896  0.52806696  0.44909414  1  0.042701  0  0.004012  0.092931  0  4.026974  0
C  C28  1  0.85847040  0.41828030  0.46501673  1  -0.013361  0  -0.081589  -0.131776  0  3.954607  0
C  C29  1  0.15238264  0.57250268  0.41666893  1  -0.021356  0  -0.082944  -0.133552  0  3.96136  0
C  C30  1  0.77985736  0.41958406  0.48384401  1  -0.032566  0  -0.073595  -0.060628  0  3.992634  0
C  C31  1  0.23052760  0.56540933  0.43292664  1  0.031562  0  -0.072418  -0.057261  0  3.964694  0
C  C32  1  0.97428663  0.47809325  0.42932501  1  -0.109294  0  -0.088211  -0.129411  0  3.975773  0
C  C33  1  0.01656011  0.53576726  0.43326928  1  0.013735  0  -0.077329  -0.102005  0  3.936641  0
C  C34  1  0.52498688  0.54168955  0.25644357  1  0.209645  0  0.073363  -0.054124  0  3.920428  0
C  C35  1  0.40340898  0.50817808  0.74907047  1  0.396255  0  0.073532  -0.070498  0  3.884806  0
C  C36  1  0.51590364  0.54203416  0.18598092  1  0.538779  0  0.116705  0.220353  0  4.033454  0
C  C37  1  0.40258444  0.50147336  0.82090601  1  0.478428  0  0.126231  0.245085  0  4.016695  0
C  C38  1  0.48598451  0.48454816  0.15341871  1  0.145208  0  -0.016189  -0.110858  0  4.03831  0
C  C39  1  0.46907919  0.50923897  0.85772936  1  0.189764  0  -0.023961  -0.135759  0  4.050754  0
C  C40  1  0.46618484  0.42586075  0.19572570  1  0.408115  0  0.111416  0.274103  0  4.052544  0
C  C41  1  0.53602194  0.52544319  0.81955728  1  0.363347  0  0.117394  0.289762  0  4.049516  0
C  C42  1  0.47415297  0.42406488  0.26620546  1  0.081781  0  -0.087501  -0.220272  0  3.959552  0
C  C43  1  0.53859164  0.53377282  0.74864520  1  0.146377  0  -0.091292  -0.23698  0  3.96034  0
C  C44  1  0.50346887  0.48261596  0.29747050  1  0.085575  0  0.00087  -0.015281  0  3.948265  0
C  C45  1  0.47195199  0.52457297  0.71307313  1  0.0082  0  0.015133  0.020002  0  3.93275  0
C  C46  1  0.52087282  0.43742792  0.03552386  1  0.51465  0  0.096103  0.144813  0  4.076926  0
C  C47  1  0.42447308  0.54943156  0.97623279  1  0.552117  0  0.095649  0.144555  0  4.078567  0
C  C48  1  0.51711125  0.44408073  0.96440565  1  0.632203  0  0.094635  0.142241  0  4.07752  0
C  C49  1  0.42871282  0.54316269  0.04733758  1  0.533124  0  0.095451  0.142183  0  4.079194  0
C  C50  1  0.46936726  0.50055944  0.93324648  1  0.082998  0  -0.019874  -0.086357  0  4.084324  0
C  C51  1  0.47750381  0.48745175  0.07842035  1  0.142634  0  -0.02142  -0.091373  0  4.087572  0
C  C52  1  0.56458133  0.27380159  0.48367050  1  0.52613  0  0.076807  0.135337  0  3.851382  0
C  C53  1  0.57326043  0.71150894  0.49494956  1  0.412048  0  0.085828  0.151994  0  3.822102  0
C  C54  1  0.57546749  0.19906400  0.47258481  1  -0.023377  0  -0.060853  -0.145641  0  3.908675  0
C  C55  1  0.58576895  0.78485488  0.49802306  1  0.112167  0  -0.057334  -0.14329  0  3.890096  0
C  C56  1  0.51814680  0.15447355  0.49575825  1  0.047459  0  0.031125  0.087445  0  3.990679  0
C  C57  1  0.52354266  0.83867786  0.48895386  1  0.043903  0  0.033565  0.091905  0  3.990857  0
C  C58  1  0.45212979  0.18850264  0.53045394  1  0.304063  0  0.09948  -0.043709  0  3.876089  0
C  C59  1  0.45203280  0.81518118  0.47216440  1  0.214245  0  0.098652  -0.050825  0  3.874309  0
C  C60  1  0.44702742  0.26330803  0.54160410  1  0.810709  0  0.234744  0.192078  0  3.905305  0
C  C61  1  0.44528785  0.74069604  0.46754025  1  0.912669  0  0.239478  0.201725  0  3.907153  0
C  C62  1  0.53426976  0.03240243  0.55222979  1  0.088941  0  -0.061072  -0.143513  0  3.901932  0
C  C63  1  0.53146228  0.95895114  0.42959772  1  0.089853  0  -0.05918  -0.142219  0  3.893137  0
C  C64  1  0.53523930  0.95669155  0.55210887  1  0.166593  0  0.097682  0.061475  0  3.869364  0
C  C65  1  0.52822626  0.03488740  0.42994077  1  0.175079  0  0.097548  0.060806  0  3.873759  0
C  C66  1  0.53155514  0.91835812  0.49136654  1  0.03077  0  0.017918  0.043408  0  3.971867  0
C  C67  1  0.52748401  0.07354580  0.49096546  1  0.05921  0  0.013778  0.039779  0  3.967937  0
N  N68  1  0.50140833  0.30545088  0.51867121  1  -1.210396  0  -0.290323  -0.217363  0  3.456461  0
N  N69  1  0.50331523  0.68963822  0.48059150  1  -1.218833  0  -0.289295  -0.217487  0  3.442165  0
N  N70  1  0.38983960  0.14351595  0.55607671  1  0.45253  0  0.058944  0.507173  0  4.279972  0
N  N71  1  0.38419120  0.86911269  0.46013648  1  0.420483  0  0.061023  0.512713  0  4.254191  0
N  N72  1  0.37860124  0.29807333  0.58226494  1  0.469228  0  0.067698  0.475201  0  4.244374  0
N  N73  1  0.36981864  0.71559131  0.44798581  1  0.434649  0  0.065246  0.469858  0  4.266614  0
N  N74  1  0.53589264  0.91828896  0.62012083  1  0.415266  0  0.06796  0.512245  0  4.194859  0
N  N75  1  0.52118595  0.07410754  0.36258723  1  0.43245  0  0.06486  0.507946  0  4.208318  0
N  N76  1  0.07556130  0.43488835  0.54242955  1  0.393168  0  0.058174  0.531946  0  4.245196  0
N  N77  1  0.86101478  0.60342202  0.37729970  1  0.380713  0  0.059683  0.537978  0  4.230337  0
N  N78  1  0.56123525  0.60433004  0.28348891  1  0.431754  0  0.062047  0.544746  0  4.248232  0
N  N79  1  0.33362625  0.49793803  0.71095625  1  0.389105  0  0.060914  0.533599  0  4.216656  0
O  O80  1  0.49006594  0.46094130  0.61128770  1  -1.160949  0  -0.311565  -0.544858  0  2.362592  0
O  O81  1  0.51587696  0.54412831  0.39982988  1  -1.151707  0  -0.309531  -0.541918  0  2.384584  0
O  O82  1  0.48013395  0.58548658  0.60369359  1  -1.145428  0  -0.311696  -0.523418  0  2.278817  0
O  O83  1  0.49684599  0.42357995  0.40705550  1  -1.145476  0  -0.311149  -0.537909  0  2.296063  0
O  O84  1  0.61437419  0.42401847  0.50275087  1  -1.16896  0  -0.31403  -0.553951  0  2.311538  0
O  O85  1  0.37953815  0.56292664  0.48981697  1  -1.153876  0  -0.313588  -0.547855  0  2.365732  0
O  O86  1  0.61012260  0.54690872  0.51298137  1  -1.16469  0  -0.317568  -0.558073  0  2.363483  0
O  O87  1  0.37602832  0.44099396  0.50961303  1  -1.150744  0  -0.314974  -0.546638  0  2.353337  0
O  O88  1  0.38048516  0.13800266  0.61909205  1  -0.427625  0  -0.106531  -0.28937  0  1.859683  0
O  O89  1  0.35568536  0.11340846  0.51227359  1  -0.391372  0  -0.092706  -0.271719  0  1.88031  0
O  O90  1  0.34990084  0.86336409  0.40650200  1  -0.402906  0  -0.105507  -0.289117  0  1.866416  0
O  O91  1  0.36877650  0.91599176  0.50414030  1  -0.413327  0  -0.100054  -0.285653  0  1.894775  0
O  O92  1  0.31440654  0.28258957  0.56500002  1  -0.399591  0  -0.091105  -0.266467  0  1.91553  0
O  O93  1  0.39363196  0.33643825  0.62958198  1  -0.388468  0  -0.081158  -0.248041  0  1.93808  0
O  O94  1  0.31398456  0.72907369  0.48870511  1  -0.382059  0  -0.093721  -0.266899  0  1.877149  0
O  O95  1  0.37118266  0.68464661  0.39282867  1  -0.384336  0  -0.074097  -0.245526  0  1.943225  0
O  O96  1  0.51054853  0.85755399  0.62365710  1  -0.426977  0  -0.103426  -0.294928  0  1.903844  0
O  O97  1  0.56140648  0.95010139  0.66808693  1  -0.410991  0  -0.112985  -0.300123  0  1.8557  0
O  O98  1  0.48769704  0.13692723  0.36269101  1  -0.429414  0  -0.107129  -0.299061  0  1.898189  0
O  O99  1  0.54902187  0.04085955  0.31163942  1  -0.420099  0  -0.111077  -0.298862  0  1.856347  0
O  O100  1  0.07977591  0.36828653  0.53257229  1  -0.453872  0  -0.13217  -0.331714  0  1.863967  0
O  O101  1  0.03119795  0.46869626  0.58448671  1  -0.404134  0  -0.121837  -0.310296  0  1.851016  0
O  O102  1  0.88559720  0.59200735  0.31779352  1  -0.412269  0  -0.119853  -0.308658  0  1.844793  0
O  O103  1  0.85522515  0.66315453  0.40608884  1  -0.424591  0  -0.140286  -0.341911  0  1.854533  0
O  O104  1  0.63128118  0.59338158  0.29532112  1  -0.411282  0  -0.128432  -0.321587  0  1.894436  0
O  O105  1  0.51985072  0.66282193  0.28851891  1  -0.41189  0  -0.127764  -0.32006  0  1.891125  0
O  O106  1  0.32670339  0.53207515  0.65529105  1  -0.44963  0  -0.123  -0.316569  0  1.924259  0
O  O107  1  0.28737501  0.45653324  0.73618345  1  -0.403745  0  -0.123555  -0.314594  0  1.885834  0
F  F108  1  0.71101238  0.60285487  0.42254326  1  -0.622551  0  -0.077449  -0.109037  0  1.432959  0
F  F109  1  0.22910684  0.42337577  0.56695818  1  -0.616148  0  -0.075915  -0.100955  0  1.435262  0
F  F110  1  0.56924752  0.38306368  0.06312913  1  -0.613345  0  -0.088389  -0.103547  0  1.355204  0
F  F111  1  0.37770638  0.60497314  0.94865707  1  -0.611218  0  -0.087185  -0.101146  0  1.356044  0
F  F112  1  0.56095488  0.39506348  0.92504761  1  -0.620855  0  -0.0885  -0.10363  0  1.356938  0
F  F113  1  0.38514677  0.59227337  0.08676136  1  -0.615575  0  -0.086444  -0.100647  0  1.357987  0
F  F114  1  0.53864693  0.59888113  0.14730610  1  -0.612554  0  -0.081964  -0.106165  0  1.354417  0
F  F115  1  0.33731379  0.48798518  0.85714771  1  -0.608878  0  -0.074401  -0.100006  0  1.389487  0
F  F116  1  0.43645244  0.36933849  0.16625854  1  -0.622336  0  -0.093401  -0.128342  0  1.321542  0
F  F117  1  0.60102998  0.53406884  0.85385271  1  -0.62018  0  -0.088671  -0.125611  0  1.322651  0
