# generated using pymatgen
data_AgH4C6SBrO4
_symmetry_space_group_name_H-M   'P 1'
_cell_length_a   5.43078038
_cell_length_b   15.69915744
_cell_length_c   19.66412027
_cell_angle_alpha   92.79453821
_cell_angle_beta   90.00029252
_cell_angle_gamma   89.99984812
_symmetry_Int_Tables_number   1
_chemical_formula_structural   AgH4C6SBrO4
_chemical_formula_sum   'Ag8 H32 C48 S8 Br8 O32'
_cell_volume   1674.54310783
_cell_formula_units_Z   8
loop_
 _symmetry_equiv_pos_site_id
 _symmetry_equiv_pos_as_xyz
  1  'x, y, z'
loop_
 _atom_site_type_symbol
 _atom_site_label
 _atom_site_symmetry_multiplicity
 _atom_site_fract_x
 _atom_site_fract_y
 _atom_site_fract_z
 _atom_site_occupancy
 _atom_site_hle17_bader_spin_density
 _atom_site_hle17_ddec_charge
 _atom_site_hle17_ddec_spin_density
 _atom_site_hle17_ddec_sum_bond_order
 _atom_site_hle17_magmom
 _atom_site_hse06_10hf_bader_spin_density
 _atom_site_hse06_10hf_ddec_charge
 _atom_site_hse06_10hf_ddec_spin_density
 _atom_site_hse06_10hf_ddec_sum_bond_order
 _atom_site_hse06_10hf_magmom
 _atom_site_hse06_bader_spin_density
 _atom_site_hse06_ddec_charge
 _atom_site_hse06_ddec_spin_density
 _atom_site_hse06_ddec_sum_bond_order
 _atom_site_hse06_magmom
 _atom_site_pbe_bader_spin_density
 _atom_site_pbe_cm5_charge
 _atom_site_pbe_ddec_charge
 _atom_site_pbe_ddec_spin_density
 _atom_site_pbe_ddec_sum_bond_order
 _atom_site_pbe_magmom
Ag  Ag0  1  0.45451314  0.52897912  0.27157189  1  0  0.696813  0  1.292383  0  0  0.587616  0  1.743131  0  0  0.619632  0  1.679195  0  0  0.448275  0.564253  0  1.788227  0
Ag  Ag1  1  0.95450741  0.47102171  0.22843318  1  0  0.696814  0  1.292339  0  0  0.58763  0  1.743078  0  0  0.619649  0  1.679143  0  0  0.44829  0.564271  0  1.78818  0
Ag  Ag2  1  0.54549261  0.47101796  0.72842940  1  0  0.696792  0  1.292403  0  0  0.587624  0  1.743152  0  0  0.619641  0  1.679215  0  0  0.448262  0.56426  0  1.788248  0
Ag  Ag3  1  0.04548730  0.52897414  0.77156551  1  0  0.696791  0  1.292416  0  0  0.587605  0  1.743175  0  0  0.619617  0  1.679238  0  0  0.448269  0.564241  0  1.788273  0
Ag  Ag4  1  0.29762065  0.51476766  0.45039659  1  0  0.72987  0  1.214381  0  0  0.631207  0  1.623659  0  0  0.660983  0  1.568685  0  0  0.458117  0.609164  0  1.662451  0
Ag  Ag5  1  0.79760707  0.48523207  0.04960316  1  0  0.729865  0  1.214301  0  0  0.631219  0  1.623581  0  0  0.660996  0  1.56861  0  0  0.458133  0.609182  0  1.66238  0
Ag  Ag6  1  0.70239616  0.48523261  0.54960487  1  0  0.729843  0  1.214328  0  0  0.63122  0  1.623597  0  0  0.660996  0  1.568622  0  0  0.458117  0.609168  0  1.6624  0
Ag  Ag7  1  0.20238580  0.51477016  0.95039585  1  0  0.729886  0  1.214301  0  0  0.631249  0  1.623571  0  0  0.661013  0  1.568614  0  0  0.458137  0.609211  0  1.662363  0
H  H8  1  0.28426154  0.34489392  0.52715698  1  0  0.415244  0  0.864159  0  0  0.390491  0  0.932127  0  0  0.400717  0  0.920816  0  0  0.312937  0.383309  0  0.939944  0
H  H9  1  0.78425747  0.65510756  0.97284275  1  0  0.415268  0  0.864169  0  0  0.390513  0  0.932139  0  0  0.400734  0  0.920838  0  0  0.312962  0.383325  0  0.939971  0
H  H10  1  0.71574053  0.65511087  0.47284166  1  0  0.415329  0  0.864017  0  0  0.390577  0  0.931984  0  0  0.400794  0  0.920691  0  0  0.313014  0.383385  0  0.939817  0
H  H11  1  0.21575013  0.34489211  0.02715664  1  0  0.415336  0  0.864009  0  0  0.390575  0  0.932003  0  0  0.400796  0  0.920701  0  0  0.312963  0.383391  0  0.939826  0
H  H12  1  0.78929979  0.69130942  0.23036102  1  0  0.399981  0  0.864289  0  0  0.375188  0  0.933199  0  0  0.384947  0  0.922654  0  0  0.311137  0.368297  0  0.940552  0
H  H13  1  0.28928759  0.30869210  0.26964542  1  0  0.399987  0  0.864277  0  0  0.375158  0  0.933235  0  0  0.384916  0  0.922691  0  0  0.31118  0.368267  0  0.940589  0
H  H14  1  0.21072070  0.30868507  0.76964218  1  0  0.400019  0  0.864274  0  0  0.375198  0  0.933215  0  0  0.384954  0  0.922674  0  0  0.31121  0.368306  0  0.940568  0
H  H15  1  0.71070711  0.69131776  0.73035551  1  0  0.400109  0  0.864069  0  0  0.375299  0  0.932995  0  0  0.385054  0  0.922454  0  0  0.311246  0.368408  0  0.940349  0
H  H16  1  0.03955324  0.25005641  0.36533469  1  0  0.13636  0  0.966095  0  0  0.14152  0  1.032368  0  0  0.145548  0  1.029328  0  0  0.110648  0.138618  0  1.034544  0
H  H17  1  0.53954792  0.74994149  0.13466671  1  0  0.136403  0  0.966005  0  0  0.141496  0  1.032349  0  0  0.145524  0  1.029311  0  0  0.110629  0.138592  0  1.034525  0
H  H18  1  0.96045068  0.74994696  0.63467150  1  0  0.136414  0  0.966042  0  0  0.141541  0  1.03235  0  0  0.145569  0  1.029313  0  0  0.110639  0.138639  0  1.034526  0
H  H19  1  0.46044863  0.25005950  0.86533072  1  0  0.136386  0  0.966051  0  0  0.14148  0  1.032415  0  0  0.145506  0  1.02938  0  0  0.1106  0.138578  0  1.034591  0
H  H20  1  0.65064827  0.08594939  0.49888567  1  0  0.096011  0  0.969633  0  0  0.09876  0  1.045642  0  0  0.102766  0  1.041749  0  0  0.091207  0.095875  0  1.048416  0
H  H21  1  0.15064194  0.91405103  0.00111497  1  0  0.096012  0  0.969654  0  0  0.098736  0  1.045683  0  0  0.102742  0  1.041791  0  0  0.091199  0.095852  0  1.048456  0
H  H22  1  0.34935196  0.91405403  0.50111799  1  0  0.095997  0  0.969606  0  0  0.098745  0  1.045612  0  0  0.102751  0  1.041719  0  0  0.091206  0.095863  0  1.048386  0
H  H23  1  0.84935276  0.08594932  0.99888242  1  0  0.095916  0  0.969756  0  0  0.098692  0  1.045735  0  0  0.102697  0  1.041841  0  0  0.091178  0.09581  0  1.04851  0
H  H24  1  0.35808044  0.20282157  0.52830467  1  0  0.118709  0  0.966696  0  0  0.124983  0  1.033698  0  0  0.128921  0  1.031345  0  0  0.101572  0.122178  0  1.035509  0
H  H25  1  0.85806929  0.79717668  0.97169548  1  0  0.118776  0  0.966717  0  0  0.125072  0  1.033673  0  0  0.12901  0  1.031318  0  0  0.101647  0.122267  0  1.035479  0
H  H26  1  0.64190874  0.79717746  0.47169468  1  0  0.118685  0  0.966748  0  0  0.124947  0  1.033782  0  0  0.128894  0  1.031417  0  0  0.10155  0.122143  0  1.035589  0
H  H27  1  0.14191437  0.20282236  0.02830388  1  0  0.118678  0  0.966805  0  0  0.124972  0  1.033765  0  0  0.128908  0  1.031414  0  0  0.101565  0.122167  0  1.035573  0
H  H28  1  0.39125704  0.76548846  0.38533598  1  0  0.11249  0  0.972337  0  0  0.12208  0  1.035762  0  0  0.124985  0  1.03412  0  0  0.102711  0.119975  0  1.036984  0
H  H29  1  0.89122185  0.23451569  0.11466359  1  0  0.112222  0  0.972247  0  0  0.121865  0  1.035666  0  0  0.124769  0  1.034023  0  0  0.102618  0.119713  0  1.03695  0
H  H30  1  0.60877081  0.23450986  0.61466690  1  0  0.112252  0  0.972349  0  0  0.12192  0  1.035716  0  0  0.124823  0  1.034076  0  0  0.102641  0.119803  0  1.036956  0
H  H31  1  0.10876365  0.76548216  0.88533113  1  0  0.112406  0  0.972204  0  0  0.122013  0  1.03563  0  0  0.124918  0  1.033986  0  0  0.102661  0.119884  0  1.036884  0
H  H32  1  0.35394113  0.96676645  0.24376462  1  0  0.096097  0  0.977626  0  0  0.101669  0  1.050164  0  0  0.104987  0  1.047504  0  0  0.091764  0.099277  0  1.052111  0
H  H33  1  0.85392601  0.03323634  0.25624043  1  0  0.096088  0  0.977616  0  0  0.101673  0  1.050083  0  0  0.104994  0  1.047418  0  0  0.091745  0.099281  0  1.052026  0
H  H34  1  0.64606647  0.03322994  0.75623918  1  0  0.09599  0  0.977621  0  0  0.101553  0  1.050138  0  0  0.104868  0  1.047486  0  0  0.091732  0.09916  0  1.052085  0
H  H35  1  0.14604844  0.96677089  0.74376443  1  0  0.09609  0  0.977497  0  0  0.101636  0  1.050065  0  0  0.104953  0  1.047408  0  0  0.09174  0.099246  0  1.052012  0
H  H36  1  0.01669651  0.88944589  0.18211946  1  0  0.104955  0  0.976485  0  0  0.108607  0  1.05051  0  0  0.112326  0  1.048988  0  0  0.092873  0.10596  0  1.051763  0
H  H37  1  0.51670219  0.11055958  0.31788688  1  0  0.104869  0  0.976553  0  0  0.108529  0  1.050589  0  0  0.112253  0  1.049076  0  0  0.092839  0.105879  0  1.051845  0
H  H38  1  0.98331109  0.11055307  0.81788346  1  0  0.104798  0  0.976669  0  0  0.108475  0  1.05068  0  0  0.112195  0  1.04916  0  0  0.092834  0.105828  0  1.051931  0
H  H39  1  0.48329988  0.88945214  0.68211668  1  0  0.104835  0  0.976514  0  0  0.108523  0  1.050527  0  0  0.112241  0  1.049009  0  0  0.09285  0.105874  0  1.051784  0
C  C40  1  0.54065524  0.29425365  0.46783488  1  0  0.355467  0  3.765465  0  0  0.336496  0  4.025103  0  0  0.350983  0  4.039553  0  0  0.087667  0.326569  0  4.015395  0
C  C41  1  0.04065554  0.70574425  0.03216602  1  0  0.355461  0  3.765206  0  0  0.336473  0  4.024883  0  0  0.350956  0  4.039335  0  0  0.087604  0.326549  0  4.015165  0
C  C42  1  0.45932289  0.70574405  0.53216747  1  0  0.355331  0  3.765632  0  0  0.336368  0  4.025271  0  0  0.350857  0  4.039714  0  0  0.087585  0.32644  0  4.015546  0
C  C43  1  0.95932812  0.29425420  0.96783026  1  0  0.355346  0  3.765524  0  0  0.336457  0  4.025142  0  0  0.350947  0  4.039585  0  0  0.087671  0.326533  0  4.015425  0
C  C44  1  0.72945440  0.30609126  0.41994436  1  0  -0.21595  0  3.673355  0  0  -0.191066  0  3.922667  0  0  -0.201909  0  3.94224  0  0  -0.029437  -0.184202  0  3.909939  0
C  C45  1  0.22945037  0.69391040  0.08005592  1  0  -0.215926  0  3.673282  0  0  -0.191066  0  3.922605  0  0  -0.2019  0  3.94217  0  0  -0.029478  -0.184201  0  3.90987  0
C  C46  1  0.27055136  0.69390841  0.58005503  1  0  -0.215996  0  3.673443  0  0  -0.191131  0  3.922754  0  0  -0.201966  0  3.942314  0  0  -0.029529  -0.184264  0  3.910016  0
C  C47  1  0.77055539  0.30609315  0.91994113  1  0  -0.215697  0  3.67337  0  0  -0.191045  0  3.922901  0  0  -0.201886  0  3.942466  0  0  -0.029511  -0.184182  0  3.910169  0
C  C48  1  0.89403495  0.24009555  0.40218445  1  0  -0.079565  0  3.711846  0  0  -0.114913  0  3.962264  0  0  -0.111849  0  3.980601  0  0  -0.087762  -0.116674  0  3.949981  0
C  C49  1  0.39402325  0.75990406  0.09781896  1  0  -0.07966  0  3.711751  0  0  -0.114916  0  3.962189  0  0  -0.111853  0  3.980518  0  0  -0.087738  -0.116673  0  3.949899  0
C  C50  1  0.10597817  0.75990527  0.59782162  1  0  -0.079647  0  3.711788  0  0  -0.114947  0  3.962195  0  0  -0.11189  0  3.980533  0  0  -0.087756  -0.116704  0  3.949906  0
C  C51  1  0.60597146  0.24009628  0.90217894  1  0  -0.079706  0  3.711676  0  0  -0.114917  0  3.962161  0  0  -0.111853  0  3.980496  0  0  -0.087703  -0.116676  0  3.949873  0
C  C52  1  0.86773010  0.16198230  0.43213442  1  0  0.074625  0  3.702623  0  0  0.091835  0  3.969118  0  0  0.09132  0  3.991444  0  0  -0.025616  0.091761  0  3.954114  0
C  C53  1  0.36772793  0.83801989  0.06786808  1  0  0.074595  0  3.702738  0  0  0.09177  0  3.969262  0  0  0.091258  0  3.99158  0  0  -0.025674  0.091697  0  3.954254  0
C  C54  1  0.13227198  0.83801474  0.56786891  1  0  0.074581  0  3.702735  0  0  0.091799  0  3.969209  0  0  0.091285  0  3.991534  0  0  -0.025644  0.091727  0  3.9542  0
C  C55  1  0.63227231  0.16198492  0.93212954  1  0  0.07463  0  3.702811  0  0  0.091804  0  3.969329  0  0  0.09129  0  3.991654  0  0  -0.025633  0.091732  0  3.954321  0
C  C56  1  0.67493150  0.14775707  0.47692750  1  0  -0.084501  0  3.798552  0  0  -0.109965  0  4.054769  0  0  -0.107393  0  4.073205  0  0  -0.095291  -0.111312  0  4.042172  0
C  C57  1  0.17492817  0.85224399  0.02307217  1  0  -0.084491  0  3.798499  0  0  -0.109909  0  4.054706  0  0  -0.107338  0  4.07314  0  0  -0.095267  -0.111255  0  4.042107  0
C  C58  1  0.32505953  0.85224260  0.52307189  1  0  -0.08439  0  3.798722  0  0  -0.109841  0  4.054946  0  0  -0.107269  0  4.073381  0  0  -0.095244  -0.111191  0  4.042353  0
C  C59  1  0.82505181  0.14775384  0.97692356  1  0  -0.084396  0  3.798437  0  0  -0.109873  0  4.05468  0  0  -0.107301  0  4.073114  0  0  -0.095242  -0.111223  0  4.042084  0
C  C60  1  0.51119059  0.21360072  0.49389843  1  0  -0.196306  0  3.751078  0  0  -0.211227  0  4.001691  0  0  -0.219386  0  4.021859  0  0  -0.107087  -0.205945  0  3.988245  0
C  C61  1  0.01119312  0.78639726  0.00609938  1  0  -0.196399  0  3.751027  0  0  -0.211309  0  4.001602  0  0  -0.219472  0  4.021787  0  0  -0.10711  -0.206024  0  3.988149  0
C  C62  1  0.48879123  0.78640152  0.50610007  1  0  -0.196222  0  3.751278  0  0  -0.211102  0  4.001773  0  0  -0.219277  0  4.021954  0  0  -0.106971  -0.205818  0  3.988321  0
C  C63  1  0.98880343  0.21360179  0.99389947  1  0  -0.19613  0  3.750768  0  0  -0.211058  0  4.001338  0  0  -0.219219  0  4.021518  0  0  -0.10696  -0.205772  0  3.987883  0
C  C64  1  0.00779118  0.78544242  0.24900933  1  0  0.348259  0  3.798552  0  0  0.325541  0  4.065642  0  0  0.340733  0  4.079675  0  0  0.088959  0.315222  0  4.056079  0
C  C65  1  0.50778504  0.21455858  0.25099779  1  0  0.348278  0  3.798359  0  0  0.325645  0  4.065333  0  0  0.340836  0  4.079378  0  0  0.089002  0.315327  0  4.055773  0
C  C66  1  0.99222010  0.21455076  0.75099583  1  0  0.348175  0  3.798385  0  0  0.325593  0  4.065287  0  0  0.340783  0  4.079338  0  0  0.088956  0.315276  0  4.05572  0
C  C67  1  0.49220599  0.78544810  0.74900247  1  0  0.348284  0  3.798251  0  0  0.325557  0  4.065383  0  0  0.34075  0  4.07943  0  0  0.088921  0.315236  0  4.055824  0
C  C68  1  0.11511176  0.75169090  0.30722937  1  0  -0.261246  0  3.735907  0  0  -0.23892  0  3.994437  0  0  -0.250924  0  4.014356  0  0  -0.041224  -0.231177  0  3.981302  0
C  C69  1  0.61509106  0.24830954  0.19277072  1  0  -0.261197  0  3.735792  0  0  -0.23894  0  3.994336  0  0  -0.250946  0  4.014258  0  0  -0.041236  -0.231197  0  3.98119  0
C  C70  1  0.88491425  0.24830616  0.69277294  1  0  -0.261194  0  3.73571  0  0  -0.238971  0  3.994282  0  0  -0.250976  0  4.014203  0  0  -0.041174  -0.231228  0  3.981144  0
C  C71  1  0.38489996  0.75169017  0.80722664  1  0  -0.261217  0  3.735883  0  0  -0.238909  0  3.994418  0  0  -0.25092  0  4.014344  0  0  -0.041145  -0.231164  0  3.981278  0
C  C72  1  0.30927554  0.79397412  0.34145263  1  0  -0.078022  0  3.759579  0  0  -0.114467  0  4.010425  0  0  -0.110663  0  4.028469  0  0  -0.09625  -0.116772  0  3.998285  0
C  C73  1  0.80925085  0.20602424  0.15855164  1  0  -0.07774  0  3.759546  0  0  -0.114208  0  4.010345  0  0  -0.110404  0  4.028397  0  0  -0.096194  -0.116477  0  3.998232  0
C  C74  1  0.69074126  0.20602099  0.65855162  1  0  -0.077799  0  3.759393  0  0  -0.114246  0  4.010233  0  0  -0.110445  0  4.028286  0  0  -0.096199  -0.116539  0  3.9981  0
C  C75  1  0.19073097  0.79397292  0.84144559  1  0  -0.077999  0  3.759695  0  0  -0.114448  0  4.010571  0  0  -0.110642  0  4.028627  0  0  -0.096315  -0.116735  0  3.998438  0
C  C76  1  0.39185969  0.87114332  0.31903712  1  0  0.068686  0  3.720615  0  0  0.084449  0  3.9895  0  0  0.084265  0  4.010784  0  0  -0.0341  0.084182  0  3.975228  0
C  C77  1  0.89185474  0.12885701  0.18096225  1  0  0.068505  0  3.720736  0  0  0.084288  0  3.989599  0  0  0.084099  0  4.01089  0  0  -0.034148  0.084023  0  3.975319  0
C  C78  1  0.60814975  0.12885314  0.68096363  1  0  0.068664  0  3.720542  0  0  0.084333  0  3.989531  0  0  0.084143  0  4.010826  0  0  -0.034064  0.084065  0  3.975255  0
C  C79  1  0.10812892  0.87114017  0.81903396  1  0  0.068694  0  3.720715  0  0  0.084439  0  3.989591  0  0  0.084241  0  4.010894  0  0  -0.034027  0.08418  0  3.975312  0
C  C80  1  0.28722012  0.90644325  0.26181634  1  0  -0.085551  0  3.783815  0  0  -0.111989  0  4.03913  0  0  -0.108942  0  4.056831  0  0  -0.097758  -0.113702  0  4.027047  0
C  C81  1  0.78721500  0.09356221  0.23818470  1  0  -0.085431  0  3.783716  0  0  -0.111819  0  4.039027  0  0  -0.108768  0  4.056736  0  0  -0.097608  -0.113519  0  4.026912  0
C  C82  1  0.71278932  0.09355448  0.73818448  1  0  -0.085281  0  3.783354  0  0  -0.111629  0  4.038694  0  0  -0.108579  0  4.056409  0  0  -0.097609  -0.113347  0  4.026626  0
C  C83  1  0.21277050  0.90644067  0.76181383  1  0  -0.085517  0  3.783725  0  0  -0.111919  0  4.039056  0  0  -0.108868  0  4.056775  0  0  -0.097706  -0.113615  0  4.026921  0
C  C84  1  0.09861908  0.86340000  0.22721905  1  0  -0.168558  0  3.722295  0  0  -0.184046  0  3.977161  0  0  -0.191738  0  3.996877  0  0  -0.103118  -0.179078  0  3.964011  0
C  C85  1  0.59861058  0.13660610  0.27278589  1  0  -0.16846  0  3.722392  0  0  -0.184099  0  3.977395  0  0  -0.191773  0  3.997044  0  0  -0.103124  -0.179123  0  3.964239  0
C  C86  1  0.90139588  0.13659955  0.77278695  1  0  -0.168443  0  3.722142  0  0  -0.184102  0  3.977133  0  0  -0.191753  0  3.996741  0  0  -0.103188  -0.179132  0  3.96398  0
C  C87  1  0.40136755  0.86340183  0.72721545  1  0  -0.168416  0  3.722184  0  0  -0.184016  0  3.9772  0  0  -0.191664  0  3.996802  0  0  -0.10309  -0.179043  0  3.964056  0
S  S88  1  0.76838339  0.40598608  0.38282482  1  0  1.332284  0  5.540708  0  0  1.231879  0  6.035855  0  0  1.28109  0  6.017961  0  0  0.515661  1.197795  0  6.046972  0
S  S89  1  0.26838496  0.59400915  0.11717721  1  0  1.332236  0  5.54068  0  0  1.231846  0  6.035828  0  0  1.281061  0  6.017934  0  0  0.515654  1.197761  0  6.046927  0
S  S90  1  0.23162421  0.59400908  0.61717688  1  0  1.332249  0  5.540934  0  0  1.231849  0  6.036072  0  0  1.281065  0  6.018179  0  0  0.515668  1.197767  0  6.047181  0
S  S91  1  0.73161159  0.40598862  0.88282158  1  0  1.332359  0  5.540233  0  0  1.232025  0  6.035393  0  0  1.281236  0  6.017497  0  0  0.515733  1.197945  0  6.046506  0
S  S92  1  0.00510823  0.65905033  0.34464257  1  0  1.362235  0  5.539274  0  0  1.259745  0  6.048117  0  0  1.308913  0  6.026096  0  0  0.523876  1.225667  0  6.062281  0
S  S93  1  0.50508754  0.34094958  0.15535432  1  0  1.36212  0  5.538973  0  0  1.259719  0  6.047791  0  0  1.308893  0  6.025767  0  0  0.523812  1.225645  0  6.06196  0
S  S94  1  0.99491041  0.34094675  0.65535872  1  0  1.362475  0  5.53885  0  0  1.260043  0  6.047664  0  0  1.309226  0  6.025642  0  0  0.52395  1.225963  0  6.061842  0
S  S95  1  0.49489981  0.65904896  0.84463739  1  0  1.362678  0  5.538577  0  0  1.260262  0  6.047341  0  0  1.309445  0  6.025312  0  0  0.524112  1.226183  0  6.061518  0
Br  Br96  1  0.09634028  0.07236492  0.41053184  1  0  -0.051297  0  1.371076  0  0  -0.040241  0  1.654731  0  0  -0.046619  0  1.649285  0  0  0.055686  -0.035567  0  1.658698  0
Br  Br97  1  0.59633940  0.92762657  0.08946981  1  0  -0.051223  0  1.371223  0  0  -0.040171  0  1.654901  0  0  -0.046545  0  1.64945  0  0  0.05575  -0.035499  0  1.658866  0
Br  Br98  1  0.90364891  0.92762449  0.58947008  1  0  -0.051303  0  1.371107  0  0  -0.040258  0  1.654758  0  0  -0.046638  0  1.649311  0  0  0.055699  -0.03558  0  1.658724  0
Br  Br99  1  0.40366820  0.07237060  0.91052742  1  0  -0.051323  0  1.371084  0  0  -0.040269  0  1.654763  0  0  -0.046647  0  1.649314  0  0  0.055677  -0.035595  0  1.65873  0
Br  Br100  1  0.65106022  0.93062495  0.36671362  1  0  -0.065234  0  1.391964  0  0  -0.051413  0  1.677491  0  0  -0.056706  0  1.672094  0  0  0.050729  -0.047694  0  1.681507  0
Br  Br101  1  0.15105308  0.06937805  0.13328511  1  0  -0.065163  0  1.391966  0  0  -0.051343  0  1.677468  0  0  -0.056636  0  1.672068  0  0  0.050756  -0.047623  0  1.681483  0
Br  Br102  1  0.34893264  0.06937664  0.63328536  1  0  -0.065234  0  1.391802  0  0  -0.05137  0  1.677356  0  0  -0.056669  0  1.671958  0  0  0.050755  -0.047646  0  1.681372  0
Br  Br103  1  0.84894347  0.93062036  0.86671371  1  0  -0.065232  0  1.39199  0  0  -0.051366  0  1.677482  0  0  -0.056663  0  1.672086  0  0  0.050729  -0.04765  0  1.681498  0
O  O104  1  0.52140558  0.43287864  0.35938445  1  0  -0.683889  0  2.12608  0  0  -0.609118  0  2.422103  0  0  -0.637147  0  2.404616  0  0  -0.341074  -0.589086  0  2.433281  0
O  O105  1  0.02140797  0.56711985  0.14061950  1  0  -0.683875  0  2.126044  0  0  -0.609095  0  2.422033  0  0  -0.637135  0  2.404559  0  0  -0.341046  -0.589093  0  2.433296  0
O  O106  1  0.47860754  0.56712354  0.64061710  1  0  -0.683816  0  2.126195  0  0  -0.609072  0  2.422241  0  0  -0.637116  0  2.404766  0  0  -0.340996  -0.589021  0  2.433388  0
O  O107  1  0.97858674  0.43288872  0.85938187  1  0  -0.683932  0  2.125858  0  0  -0.609152  0  2.421854  0  0  -0.63718  0  2.404366  0  0  -0.341081  -0.589121  0  2.433029  0
O  O108  1  0.94491916  0.39238388  0.32674829  1  0  -0.642998  0  2.04095  0  0  -0.572962  0  2.319529  0  0  -0.598867  0  2.303472  0  0  -0.32732  -0.554641  0  2.330036  0
O  O109  1  0.44492552  0.60761828  0.17325429  1  0  -0.643031  0  2.040807  0  0  -0.573005  0  2.319386  0  0  -0.598909  0  2.303325  0  0  -0.32733  -0.554679  0  2.329889  0
O  O110  1  0.05509028  0.60761448  0.67325307  1  0  -0.642986  0  2.041047  0  0  -0.572949  0  2.319619  0  0  -0.598855  0  2.303562  0  0  -0.327364  -0.554629  0  2.330124  0
O  O111  1  0.55507287  0.39237947  0.82674552  1  0  -0.643091  0  2.040829  0  0  -0.57304  0  2.319376  0  0  -0.598947  0  2.303318  0  0  -0.327346  -0.55472  0  2.32988  0
O  O112  1  0.86216209  0.46652230  0.43723410  1  0  -0.709033  0  2.137729  0  0  -0.641381  0  2.446609  0  0  -0.667669  0  2.425697  0  0  -0.348511  -0.622556  0  2.460361  0
O  O113  1  0.36215757  0.53347739  0.06276623  1  0  -0.708936  0  2.137859  0  0  -0.641285  0  2.446781  0  0  -0.667572  0  2.425868  0  0  -0.348452  -0.622458  0  2.460532  0
O  O114  1  0.13784919  0.53347609  0.56276574  1  0  -0.70901  0  2.137781  0  0  -0.641349  0  2.446697  0  0  -0.667639  0  2.425786  0  0  -0.348495  -0.622523  0  2.460445  0
O  O115  1  0.63783346  0.46652164  0.93723364  1  0  -0.709005  0  2.137649  0  0  -0.641356  0  2.446532  0  0  -0.667645  0  2.42562  0  0  -0.348498  -0.622531  0  2.460285  0
O  O116  1  0.39268559  0.36073437  0.48852015  1  0  -0.565211  0  2.234623  0  0  -0.508846  0  2.482305  0  0  -0.529766  0  2.468076  0  0  -0.351418  -0.49364  0  2.491415  0
O  O117  1  0.89267318  0.63926473  0.01147662  1  0  -0.565246  0  2.234314  0  0  -0.508849  0  2.481973  0  0  -0.529769  0  2.46774  0  0  -0.35147  -0.493663  0  2.491126  0
O  O118  1  0.60730544  0.63926480  0.51147209  1  0  -0.565191  0  2.234369  0  0  -0.508807  0  2.482025  0  0  -0.529729  0  2.46779  0  0  -0.351462  -0.493649  0  2.491244  0
O  O119  1  0.10731232  0.36073682  0.98852440  1  0  -0.565406  0  2.234271  0  0  -0.509026  0  2.481919  0  0  -0.52995  0  2.467682  0  0  -0.351539  -0.493838  0  2.491068  0
O  O120  1  0.22582466  0.60702082  0.35915103  1  0  -0.703076  0  2.136976  0  0  -0.632112  0  2.449391  0  0  -0.658745  0  2.428132  0  0  -0.349671  -0.61304  0  2.463348  0
O  O121  1  0.72580491  0.39297956  0.14084969  1  0  -0.703136  0  2.136846  0  0  -0.632261  0  2.449312  0  0  -0.658887  0  2.428032  0  0  -0.349716  -0.613186  0  2.46327  0
O  O122  1  0.77419583  0.39297755  0.64084982  1  0  -0.703132  0  2.136793  0  0  -0.632305  0  2.449337  0  0  -0.658914  0  2.428012  0  0  -0.349698  -0.613235  0  2.463303  0
O  O123  1  0.27419164  0.60702268  0.85914882  1  0  -0.703174  0  2.136883  0  0  -0.632324  0  2.449374  0  0  -0.658936  0  2.428062  0  0  -0.349699  -0.613254  0  2.463335  0
O  O124  1  0.84390446  0.61593424  0.29244710  1  0  -0.720511  0  2.121648  0  0  -0.652347  0  2.414356  0  0  -0.67654  0  2.393051  0  0  -0.342165  -0.63513  0  2.428491  0
O  O125  1  0.34389743  0.38407125  0.20755045  1  0  -0.720475  0  2.121448  0  0  -0.652303  0  2.41409  0  0  -0.6765  0  2.392787  0  0  -0.342183  -0.635085  0  2.428228  0
O  O126  1  0.15610314  0.38406602  0.70755486  1  0  -0.720599  0  2.121626  0  0  -0.65244  0  2.41435  0  0  -0.676637  0  2.39304  0  0  -0.342223  -0.635223  0  2.428487  0
O  O127  1  0.65608992  0.61593243  0.79243949  1  0  -0.720682  0  2.121605  0  0  -0.652491  0  2.414228  0  0  -0.67669  0  2.392926  0  0  -0.342261  -0.635275  0  2.428364  0
O  O128  1  0.87464496  0.68653837  0.40705192  1  0  -0.642698  0  1.966088  0  0  -0.585451  0  2.20991  0  0  -0.607792  0  2.196618  0  0  -0.323118  -0.569699  0  2.218561  0
O  O129  1  0.37462691  0.31345816  0.09294673  1  0  -0.642485  0  1.966015  0  0  -0.585283  0  2.209835  0  0  -0.607632  0  2.196547  0  0  -0.322953  -0.569533  0  2.21848  0
O  O130  1  0.12537737  0.31345871  0.59294988  1  0  -0.642724  0  1.965821  0  0  -0.58546  0  2.209603  0  0  -0.607829  0  2.19632  0  0  -0.323108  -0.569713  0  2.218253  0
O  O131  1  0.62538621  0.68653397  0.90704668  1  0  -0.64288  0  1.965587  0  0  -0.585645  0  2.209387  0  0  -0.608003  0  2.196093  0  0  -0.323244  -0.569896  0  2.21804  0
O  O132  1  0.82350983  0.74794176  0.21242415  1  0  -0.494465  0  2.128454  0  0  -0.441676  0  2.340542  0  0  -0.460541  0  2.332844  0  0  -0.342957  -0.428241  0  2.345483  0
O  O133  1  0.32350418  0.25206169  0.28758039  1  0  -0.494591  0  2.128521  0  0  -0.441702  0  2.340496  0  0  -0.460564  0  2.332794  0  0  -0.343043  -0.42828  0  2.345464  0
O  O134  1  0.17650513  0.25205848  0.78757883  1  0  -0.494609  0  2.12848  0  0  -0.441717  0  2.340387  0  0  -0.460585  0  2.332688  0  0  -0.343081  -0.428294  0  2.345351  0
O  O135  1  0.67649974  0.74794748  0.71242305  1  0  -0.494654  0  2.12837  0  0  -0.441814  0  2.340462  0  0  -0.460678  0  2.33276  0  0  -0.343067  -0.428393  0  2.345433  0
