# generated using pymatgen
data_ZnCr2H24C33(NO5)2
_symmetry_space_group_name_H-M   'P 1'
_cell_length_a   12.00729628
_cell_length_b   12.00729343
_cell_length_c   12.25961920
_cell_angle_alpha   72.99328257
_cell_angle_beta   72.99349737
_cell_angle_gamma   74.73632903
_symmetry_Int_Tables_number   1
_chemical_formula_structural   ZnCr2H24C33(NO5)2
_chemical_formula_sum   'Zn2 Cr4 H48 C66 N4 O20'
_cell_volume   1585.51059862
_cell_formula_units_Z   2
loop_
 _symmetry_equiv_pos_site_id
 _symmetry_equiv_pos_as_xyz
  1  'x, y, z'
loop_
 _atom_site_type_symbol
 _atom_site_label
 _atom_site_symmetry_multiplicity
 _atom_site_fract_x
 _atom_site_fract_y
 _atom_site_fract_z
 _atom_site_occupancy
 _atom_site_hle17_bader_spin_density
 _atom_site_hle17_ddec_charge
 _atom_site_hle17_ddec_spin_density
 _atom_site_hle17_ddec_sum_bond_order
 _atom_site_hle17_magmom
 _atom_site_hse06_10hf_bader_spin_density
 _atom_site_hse06_10hf_ddec_charge
 _atom_site_hse06_10hf_ddec_spin_density
 _atom_site_hse06_10hf_ddec_sum_bond_order
 _atom_site_hse06_10hf_magmom
 _atom_site_hse06_bader_spin_density
 _atom_site_hse06_ddec_charge
 _atom_site_hse06_ddec_spin_density
 _atom_site_hse06_ddec_sum_bond_order
 _atom_site_hse06_magmom
 _atom_site_pbe_bader_spin_density
 _atom_site_pbe_cm5_charge
 _atom_site_pbe_ddec_charge
 _atom_site_pbe_ddec_spin_density
 _atom_site_pbe_ddec_sum_bond_order
 _atom_site_pbe_magmom
Zn  Zn0  1  0.07963024  0.22427596  0.17132615  1  0  0.986976  0  1.82446  0  0  0.788799  0  2.290457  0  0  0.838548  0  2.236715  0  0  0.69091  0.753985  0  2.327399  0
Zn  Zn1  1  0.77572356  0.92036886  0.82867591  1  0  0.987013  0  1.824469  0  0  0.788854  0  2.290458  0  0  0.838601  0  2.236712  0  0  0.690943  0.75404  0  2.327398  0
Cr  Cr2  1  0.99791722  0.73894239  0.28233762  1  0  0.249419  0  4.465243  0  0  0.378356  0  4.801614  0  0  0.328776  0  4.880608  0  0  0.719149  0.411566  0  4.745626  0
Cr  Cr3  1  0.26105877  0.00208013  0.71765945  1  0  0.249504  0  4.465054  0  0  0.378492  0  4.801359  0  0  0.32894  0  4.880283  0  0  0.71918  0.411701  0  4.745387  0
Cr  Cr4  1  0.24560139  0.51897877  0.75959812  1  0  0.257462  0  4.434943  0  0  0.38693  0  4.767003  0  0  0.337009  0  4.845727  0  0  0.718435  0.420416  0  4.71113  0
Cr  Cr5  1  0.48102544  0.75439680  0.24040181  1  0  0.257408  0  4.434893  0  0  0.386895  0  4.766922  0  0  0.336971  0  4.845646  0  0  0.718389  0.42036  0  4.711074  0
H  H6  1  0.21587906  0.84402258  0.16368153  1  0  0.115768  0  0.960827  0  0  0.123028  0  1.031741  0  0  0.124995  0  1.03137  0  0  0.110477  0.121502  0  1.032182  0
H  H7  1  0.15597717  0.78411887  0.83631670  1  0  0.115817  0  0.960893  0  0  0.123089  0  1.031781  0  0  0.125052  0  1.031421  0  0  0.110516  0.121563  0  1.032223  0
H  H8  1  0.23205291  0.64205947  0.13533807  1  0  0.125396  0  0.929855  0  0  0.135362  0  0.987357  0  0  0.137953  0  0.986234  0  0  0.115961  0.133389  0  0.988344  0
H  H9  1  0.35794124  0.76794443  0.86465961  1  0  0.125394  0  0.929864  0  0  0.135369  0  0.987363  0  0  0.137963  0  0.986234  0  0  0.115968  0.133399  0  0.988346  0
H  H10  1  0.05458177  0.58650804  0.10870291  1  0  0.133277  0  0.961035  0  0  0.14295  0  1.019861  0  0  0.145842  0  1.01848  0  0  0.112575  0.140762  0  1.021031  0
H  H11  1  0.41349278  0.94541661  0.89129341  1  0  0.133321  0  0.961005  0  0  0.142985  0  1.019834  0  0  0.145876  0  1.018454  0  0  0.112598  0.140797  0  1.021004  0
H  H12  1  0.86513969  0.73440054  0.10867358  1  0  0.119984  0  0.932557  0  0  0.130615  0  0.993436  0  0  0.13311  0  0.991957  0  0  0.114633  0.128671  0  0.994796  0
H  H13  1  0.26560175  0.13485971  0.89132155  1  0  0.119981  0  0.932527  0  0  0.130604  0  0.993431  0  0  0.1331  0  0.991949  0  0  0.114638  0.12866  0  0.994791  0
H  H14  1  0.85123557  0.93892943  0.13401255  1  0  0.131336  0  0.927772  0  0  0.141452  0  0.988529  0  0  0.145126  0  0.985247  0  0  0.117468  0.13869  0  0.991057  0
H  H15  1  0.06107394  0.14876206  0.86598484  1  0  0.131234  0  0.927882  0  0  0.14143  0  0.988559  0  0  0.145055  0  0.985337  0  0  0.117428  0.138669  0  0.991088  0
H  H16  1  0.02289758  0.64342436  0.89896189  1  0  0.122898  0  0.939883  0  0  0.133847  0  1.00276  0  0  0.136602  0  1.000473  0  0  0.114135  0.131781  0  1.004533  0
H  H17  1  0.35657206  0.97710433  0.10103862  1  0  0.122944  0  0.939905  0  0  0.133872  0  1.00278  0  0  0.136626  0  1.000495  0  0  0.11414  0.131805  0  1.004554  0
H  H18  1  0.08157273  0.75714302  0.69238425  1  0  0.128768  0  0.944695  0  0  0.136479  0  1.008856  0  0  0.139492  0  1.007036  0  0  0.112996  0.13423  0  1.010315  0
H  H19  1  0.24285939  0.91842644  0.30761848  1  0  0.128796  0  0.944652  0  0  0.136487  0  1.008831  0  0  0.1395  0  1.007011  0  0  0.112989  0.134238  0  1.01029  0
H  H20  1  0.17588614  0.64674893  0.53196615  1  0  0.118359  0  0.941747  0  0  0.130991  0  0.997265  0  0  0.132624  0  0.997141  0  0  0.114568  0.129627  0  0.997661  0
H  H21  1  0.35325701  0.82411343  0.46803254  1  0  0.118392  0  0.941696  0  0  0.130998  0  0.997248  0  0  0.132642  0  0.997109  0  0  0.11454  0.129632  0  0.997649  0
H  H22  1  0.19730984  0.42722653  0.57707111  1  0  0.129232  0  0.959453  0  0  0.13396  0  1.028051  0  0  0.137531  0  1.025245  0  0  0.115014  0.131311  0  1.03025  0
H  H23  1  0.57277833  0.80269204  0.42292764  1  0  0.12926  0  0.959392  0  0  0.133983  0  1.028028  0  0  0.137556  0  1.025219  0  0  0.115025  0.131334  0  1.030228  0
H  H24  1  0.13605586  0.31471265  0.78536846  1  0  0.122554  0  0.937032  0  0  0.136308  0  0.993841  0  0  0.138206  0  0.992737  0  0  0.11645  0.134841  0  0.994754  0
H  H25  1  0.68528916  0.86394927  0.21462951  1  0  0.122518  0  0.937059  0  0  0.136289  0  0.993857  0  0  0.138185  0  0.992756  0  0  0.116414  0.134822  0  0.99477  0
H  H26  1  0.89116159  0.93555455  0.58290380  1  0  0.080552  0  0.960834  0  0  0.088241  0  1.027246  0  0  0.090918  0  1.024607  0  0  0.116882  0.086249  0  1.02919  0
H  H27  1  0.06444429  0.10883660  0.41709971  1  0  0.080515  0  0.960866  0  0  0.088204  0  1.027272  0  0  0.090881  0  1.024631  0  0  0.116872  0.086211  0  1.029217  0
H  H28  1  0.83719386  0.02077623  0.38963129  1  0  0.113654  0  0.963811  0  0  0.120938  0  1.030025  0  0  0.123279  0  1.03095  0  0  0.107227  0.119205  0  1.029608  0
H  H29  1  0.97922726  0.16280337  0.61037101  1  0  0.113613  0  0.96382  0  0  0.120882  0  1.030059  0  0  0.123222  0  1.030986  0  0  0.107218  0.119154  0  1.029637  0
H  H30  1  0.51488917  0.21927861  0.56720221  1  0  0.111234  0  0.953122  0  0  0.120768  0  1.013881  0  0  0.123573  0  1.013898  0  0  0.109261  0.118732  0  1.014053  0
H  H31  1  0.78072256  0.48511029  0.43280003  1  0  0.111242  0  0.95313  0  0  0.120782  0  1.013886  0  0  0.123588  0  1.013902  0  0  0.109269  0.118745  0  1.014058  0
H  H32  1  0.57891558  0.12198607  0.75371509  1  0  0.092902  0  0.973834  0  0  0.098009  0  1.043444  0  0  0.101439  0  1.039224  0  0  0.117176  0.095438  0  1.046598  0
H  H33  1  0.87801225  0.42108334  0.24628840  1  0  0.09297  0  0.973798  0  0  0.098087  0  1.04339  0  0  0.101518  0  1.03917  0  0  0.11722  0.095516  0  1.046544  0
H  H34  1  0.70070290  0.13173215  0.27994711  1  0  0.094312  0  0.930371  0  0  0.113504  0  0.986102  0  0  0.115275  0  0.984959  0  0  0.098395  0.112211  0  0.986954  0
H  H35  1  0.86826918  0.29929511  0.72005678  1  0  0.094372  0  0.930207  0  0  0.113542  0  0.985958  0  0  0.115317  0  0.984815  0  0  0.098402  0.112248  0  0.986812  0
H  H36  1  0.55192078  0.12802257  0.36025686  1  0  0.085053  0  0.916667  0  0  0.105568  0  0.969983  0  0  0.106053  0  0.971211  0  0  0.096033  0.105214  0  0.969158  0
H  H37  1  0.87198068  0.44807699  0.63974631  1  0  0.085068  0  0.916629  0  0  0.105553  0  0.969963  0  0  0.106039  0  0.971195  0  0  0.096036  0.105206  0  0.969129  0
H  H38  1  0.67209921  0.34186750  0.30011884  1  0  0.070896  0  0.945649  0  0  0.08918  0  1.00603  0  0  0.089608  0  1.007385  0  0  0.090754  0.088809  0  1.005151  0
H  H39  1  0.65813467  0.32790263  0.69987922  1  0  0.07091  0  0.945681  0  0  0.089163  0  1.006084  0  0  0.089602  0  1.007428  0  0  0.090749  0.088794  0  1.005201  0
H  H40  1  0.52202968  0.33942450  0.37089020  1  0  0.06771  0  0.944103  0  0  0.085299  0  1.006468  0  0  0.086139  0  1.006672  0  0  0.091211  0.084626  0  1.006423  0
H  H41  1  0.66057970  0.47797125  0.62910891  1  0  0.067716  0  0.94415  0  0  0.085323  0  1.006474  0  0  0.086158  0  1.006691  0  0  0.091224  0.084649  0  1.00643  0
H  H42  1  0.55947747  0.43711944  0.15372718  1  0  0.091951  0  0.92236  0  0  0.111453  0  0.978171  0  0  0.111599  0  0.979265  0  0  0.101627  0.111325  0  0.977433  0
H  H43  1  0.56287992  0.44052162  0.84627131  1  0  0.091951  0  0.92234  0  0  0.111455  0  0.97815  0  0  0.111601  0  0.979245  0  0  0.101628  0.111328  0  0.977412  0
H  H44  1  0.64179022  0.30023949  0.12244342  1  0  0.082024  0  0.92128  0  0  0.101391  0  0.976642  0  0  0.102854  0  0.975726  0  0  0.098829  0.100335  0  0.97735  0
H  H45  1  0.69975881  0.35820943  0.87755886  1  0  0.08201  0  0.921265  0  0  0.101374  0  0.97664  0  0  0.102837  0  0.975723  0  0  0.098818  0.100318  0  0.977349  0
H  H46  1  0.15971894  0.33975576  0.31592104  1  0  0.073609  0  0.983209  0  0  0.079204  0  1.051325  0  0  0.081101  0  1.050657  0  0  0.113482  0.077767  0  1.051922  0
H  H47  1  0.66024469  0.84028029  0.68408065  1  0  0.07361  0  0.983227  0  0  0.079208  0  1.051344  0  0  0.081106  0  1.050675  0  0  0.113479  0.077785  0  1.051928  0
H  H48  1  0.34168503  0.38824757  0.32744285  1  0  0.114647  0  0.967735  0  0  0.120723  0  1.034992  0  0  0.124242  0  1.033423  0  0  0.108671  0.11818  0  1.036299  0
H  H49  1  0.61175169  0.65831597  0.67255809  1  0  0.11456  0  0.967859  0  0  0.120645  0  1.035095  0  0  0.124164  0  1.033528  0  0  0.108637  0.118104  0  1.036402  0
H  H50  1  0.52969757  0.22462890  0.03641039  1  0  0.113122  0  0.936268  0  0  0.126857  0  0.989096  0  0  0.129663  0  0.989081  0  0  0.112292  0.124842  0  0.989285  0
H  H51  1  0.77537029  0.47030146  0.96359256  1  0  0.113136  0  0.936202  0  0  0.126836  0  0.989073  0  0  0.129642  0  0.989058  0  0  0.112272  0.124821  0  0.989262  0
H  H52  1  0.33823914  0.18692078  0.03339129  1  0  0.078029  0  0.936559  0  0  0.088578  0  1.000334  0  0  0.090768  0  0.998053  0  0  0.117838  0.086955  0  1.00203  0
H  H53  1  0.81307848  0.66175994  0.96661136  1  0  0.078063  0  0.936654  0  0  0.088618  0  1.000411  0  0  0.090809  0  0.998132  0  0  0.117847  0.086994  0  1.00211  0
C  C54  1  0.03179744  0.90470126  0.15021866  1  0  -0.065825  0  3.705992  0  0  -0.053557  0  3.957067  0  0  -0.05799  0  3.97469  0  0  -0.055013  -0.050856  0  3.945188  0
C  C55  1  0.09530066  0.96820102  0.84977837  1  0  -0.065782  0  3.706056  0  0  -0.053494  0  3.957132  0  0  -0.057923  0  3.974741  0  0  -0.055013  -0.050791  0  3.945253  0
C  C56  1  0.14084712  0.82046255  0.14923590  1  0  -0.083966  0  3.687077  0  0  -0.120459  0  3.960129  0  0  -0.118236  0  3.976215  0  0  -0.122665  -0.12193  0  3.949272  0
C  C57  1  0.17953683  0.85915091  0.85076232  1  0  -0.08408  0  3.687264  0  0  -0.120591  0  3.9603  0  0  -0.118368  0  3.976392  0  0  -0.122717  -0.122065  0  3.949449  0
C  C58  1  0.14959524  0.70683180  0.13367405  1  0  -0.063505  0  3.696741  0  0  -0.093252  0  3.975995  0  0  -0.092053  0  3.990335  0  0  -0.121207  -0.094195  0  3.966345  0
C  C59  1  0.29316900  0.85040168  0.86632348  1  0  -0.06344  0  3.696753  0  0  -0.093213  0  3.975989  0  0  -0.092016  0  3.990332  0  0  -0.121156  -0.094151  0  3.96633  0
C  C60  1  0.04991817  0.67519267  0.11817426  1  0  -0.076805  0  3.666514  0  0  -0.108571  0  3.947273  0  0  -0.107011  0  3.960732  0  0  -0.123373  -0.109589  0  3.938159  0
C  C61  1  0.32480918  0.95008040  0.88182156  1  0  -0.076886  0  3.666633  0  0  -0.108652  0  3.947393  0  0  -0.107095  0  3.960854  0  0  -0.123419  -0.10967  0  3.938283  0
C  C62  1  0.94255689  0.75863199  0.11791852  1  0  -0.057213  0  3.680101  0  0  -0.090402  0  3.970808  0  0  -0.08879  0  3.984412  0  0  -0.117018  -0.091633  0  3.961621  0
C  C63  1  0.24137102  0.05744039  0.88207873  1  0  -0.057232  0  3.680159  0  0  -0.090411  0  3.970854  0  0  -0.088806  0  3.984464  0  0  -0.117022  -0.091643  0  3.96167  0
C  C64  1  0.93340772  0.87336694  0.13372030  1  0  -0.075682  0  3.667567  0  0  -0.119365  0  3.951352  0  0  -0.11635  0  3.964364  0  0  -0.113439  -0.121319  0  3.942515  0
C  C65  1  0.12663593  0.06659036  0.86627736  1  0  -0.075632  0  3.667749  0  0  -0.119419  0  3.951577  0  0  -0.116364  0  3.964597  0  0  -0.113448  -0.121376  0  3.942742  0
C  C66  1  0.01931835  0.02612570  0.16972433  1  0  0.637076  0  3.915601  0  0  0.592842  0  4.203467  0  0  0.625542  0  4.198017  0  0  0.197284  0.570679  0  4.206448  0
C  C67  1  0.97387619  0.98068043  0.83027574  1  0  0.637129  0  3.915733  0  0  0.592866  0  4.203619  0  0  0.625567  0  4.198167  0  0  0.197312  0.570702  0  4.206601  0
C  C68  1  0.04740937  0.59033231  0.36483765  1  0  0.05556  0  3.409229  0  0  -0.009324  0  3.752361  0  0  0.018275  0  3.765851  0  0  -0.027781  -0.027392  0  3.74169  0
C  C69  1  0.40966868  0.95259585  0.63515908  1  0  0.055498  0  3.409308  0  0  -0.009401  0  3.752427  0  0  0.018192  0  3.765913  0  0  -0.027823  -0.027469  0  3.741759  0
C  C70  1  0.85172463  0.72624171  0.37737434  1  0  0.034646  0  3.420332  0  0  -0.031662  0  3.767624  0  0  -0.003478  0  3.77995  0  0  -0.038226  -0.049946  0  3.757528  0
C  C71  1  0.27375554  0.14827646  0.62262418  1  0  0.034666  0  3.420111  0  0  -0.031663  0  3.767422  0  0  -0.003485  0  3.779744  0  0  -0.03817  -0.049948  0  3.757329  0
C  C72  1  0.02357265  0.79783884  0.39076511  1  0  0.042375  0  3.429845  0  0  -0.024528  0  3.778396  0  0  0.002503  0  3.791982  0  0  -0.036072  -0.042216  0  3.767664  0
C  C73  1  0.20216305  0.97642329  0.60923283  1  0  0.042446  0  3.429707  0  0  -0.024491  0  3.778299  0  0  0.002538  0  3.791872  0  0  -0.036061  -0.04218  0  3.767569  0
C  C74  1  0.07190877  0.47114955  0.85613760  1  0  -0.085535  0  3.728666  0  0  -0.075437  0  3.988263  0  0  -0.081492  0  4.006194  0  0  -0.060982  -0.071779  0  3.976341  0
C  C75  1  0.52884867  0.92809555  0.14386289  1  0  -0.08572  0  3.728823  0  0  -0.075605  0  3.988425  0  0  -0.081658  0  4.006354  0  0  -0.061024  -0.071926  0  3.976465  0
C  C76  1  0.05779489  0.59726723  0.82817968  1  0  -0.081564  0  3.709546  0  0  -0.123105  0  3.990438  0  0  -0.119181  0  4.004051  0  0  -0.119598  -0.125641  0  3.98118  0
C  C77  1  0.40273095  0.94220522  0.17181852  1  0  -0.081606  0  3.709574  0  0  -0.123133  0  3.990458  0  0  -0.119208  0  4.00407  0  0  -0.119609  -0.125672  0  3.981194  0
C  C78  1  0.09193282  0.66108813  0.71170627  1  0  -0.081747  0  3.682415  0  0  -0.111076  0  3.965982  0  0  -0.110773  0  3.979855  0  0  -0.122283  -0.111417  0  3.956631  0
C  C79  1  0.33891301  0.90806555  0.28829481  1  0  -0.081684  0  3.682374  0  0  -0.110983  0  3.965893  0  0  -0.110679  0  3.979768  0  0  -0.122241  -0.111324  0  3.956541  0
C  C80  1  0.14390489  0.59877565  0.62117510  1  0  -0.050036  0  3.69136  0  0  -0.085337  0  3.972563  0  0  -0.082257  0  3.98654  0  0  -0.118971  -0.087387  0  3.963114  0
C  C81  1  0.40122858  0.85609404  0.37882266  1  0  -0.050126  0  3.691324  0  0  -0.085387  0  3.972501  0  0  -0.082316  0  3.986474  0  0  -0.118964  -0.087437  0  3.963051  0
C  C82  1  0.15603639  0.47464988  0.64629981  1  0  -0.078841  0  3.688746  0  0  -0.112637  0  3.978071  0  0  -0.112521  0  3.99189  0  0  -0.123134  -0.112902  0  3.968786  0
C  C83  1  0.52535353  0.84396439  0.35369952  1  0  -0.078712  0  3.688485  0  0  -0.11256  0  3.977879  0  0  -0.112445  0  3.991699  0  0  -0.123088  -0.112824  0  3.968594  0
C  C84  1  0.12140948  0.41107433  0.76403937  1  0  -0.059035  0  3.660768  0  0  -0.096227  0  3.928954  0  0  -0.091485  0  3.942183  0  0  -0.115536  -0.099317  0  3.920007  0
C  C85  1  0.58892697  0.87859648  0.23595831  1  0  -0.05901  0  3.660761  0  0  -0.096223  0  3.928987  0  0  -0.091478  0  3.942215  0  0  -0.115507  -0.099315  0  3.920034  0
C  C86  1  0.04576597  0.40448419  0.98239122  1  0  0.637109  0  3.945597  0  0  0.588709  0  4.242298  0  0  0.62285  0  4.235326  0  0  0.199771  0.565563  0  4.246301  0
C  C87  1  0.59551245  0.95423814  0.01760822  1  0  0.637155  0  3.945564  0  0  0.588762  0  4.242265  0  0  0.622901  0  4.235294  0  0  0.199757  0.565612  0  4.246268  0
C  C88  1  0.35605533  0.38284649  0.76772260  1  0  0.054207  0  3.419383  0  0  -0.011341  0  3.766234  0  0  0.016488  0  3.77859  0  0  -0.029285  -0.029573  0  3.756283  0
C  C89  1  0.61715691  0.64393935  0.23227492  1  0  0.05419  0  3.419554  0  0  -0.011322  0  3.766371  0  0  0.016508  0  3.778721  0  0  -0.029178  -0.029552  0  3.756425  0
C  C90  1  0.28389299  0.53214706  0.88781112  1  0  0.042355  0  3.407974  0  0  -0.020803  0  3.753876  0  0  0.006149  0  3.767316  0  0  -0.033099  -0.038388  0  3.743202  0
C  C91  1  0.46785125  0.71610393  0.11219092  1  0  0.042444  0  3.407917  0  0  -0.020691  0  3.753749  0  0  0.006259  0  3.767193  0  0  -0.03311  -0.038273  0  3.74308  0
C  C92  1  0.36374337  0.59738247  0.66792619  1  0  0.037619  0  3.409931  0  0  -0.02847  0  3.754576  0  0  -0.000408  0  3.767238  0  0  -0.033074  -0.046753  0  3.744317  0
C  C93  1  0.40261803  0.63625705  0.33207261  1  0  0.037693  0  3.409853  0  0  -0.028451  0  3.754551  0  0  -0.000388  0  3.767216  0  0  -0.033067  -0.046731  0  3.744291  0
C  C94  1  0.80799076  0.99806001  0.57580213  1  0  0.118484  0  3.72738  0  0  0.084814  0  3.981653  0  0  0.092412  0  4.000503  0  0  0.040387  0.079999  0  3.968769  0
C  C95  1  0.00194088  0.19200862  0.42419937  1  0  0.118507  0  3.72742  0  0  0.084866  0  3.981668  0  0  0.092463  0  4.000519  0  0  0.040415  0.080052  0  3.968784  0
C  C96  1  0.77742993  0.04565807  0.46844346  1  0  -0.162672  0  3.687016  0  0  -0.179574  0  3.93193  0  0  -0.188742  0  3.954759  0  0  -0.081898  -0.173701  0  3.916694  0
C  C97  1  0.95434457  0.22256877  0.53155932  1  0  -0.162647  0  3.687051  0  0  -0.179541  0  3.931946  0  0  -0.188711  0  3.954777  0  0  -0.081888  -0.173673  0  3.916709  0
C  C98  1  0.66911122  0.12456379  0.46170305  1  0  0.176604  0  3.683306  0  0  0.190803  0  3.922032  0  0  0.197709  0  3.942715  0  0  0.023683  0.186394  0  3.907866  0
C  C99  1  0.87543757  0.33088766  0.53829973  1  0  0.176643  0  3.683474  0  0  0.190849  0  3.922164  0  0  0.197762  0  3.94284  0  0  0.023669  0.186439  0  3.908003  0
C  C100  1  0.59927055  0.15676342  0.56564371  1  0  -0.167687  0  3.688527  0  0  -0.187463  0  3.940676  0  0  -0.196749  0  3.963162  0  0  -0.082188  -0.18158  0  3.925713  0
C  C101  1  0.84323842  0.40072786  0.43436052  1  0  -0.167772  0  3.688673  0  0  -0.187556  0  3.940844  0  0  -0.196844  0  3.963328  0  0  -0.082233  -0.181671  0  3.925878  0
C  C102  1  0.63420658  0.10420138  0.67056201  1  0  0.129663  0  3.696484  0  0  0.094095  0  3.953507  0  0  0.10225  0  3.97059  0  0  0.045655  0.088884  0  3.941902  0
C  C103  1  0.89579914  0.36579299  0.32944160  1  0  0.129609  0  3.696424  0  0  0.094038  0  3.95347  0  0  0.102192  0  3.970554  0  0  0.045617  0.088829  0  3.941862  0
C  C104  1  0.62955515  0.16710599  0.34827980  1  0  -0.162954  0  3.678953  0  0  -0.204131  0  3.926186  0  0  -0.206063  0  3.938  0  0  -0.157482  -0.202636  0  3.917773  0
C  C105  1  0.83289761  0.37044295  0.65172242  1  0  -0.163061  0  3.678793  0  0  -0.204189  0  3.925982  0  0  -0.206134  0  3.937817  0  0  -0.15753  -0.202698  0  3.91757  0
C  C106  1  0.59694487  0.30248742  0.30644094  1  0  -0.091737  0  3.665381  0  0  -0.132009  0  3.925779  0  0  -0.133248  0  3.940228  0  0  -0.15958  -0.130914  0  3.915652  0
C  C107  1  0.69751639  0.40305664  0.69355913  1  0  -0.09177  0  3.665548  0  0  -0.132004  0  3.925869  0  0  -0.133249  0  3.940323  0  0  -0.159545  -0.130906  0  3.915743  0
C  C108  1  0.56730596  0.34012289  0.18545032  1  0  -0.161411  0  3.68317  0  0  -0.20429  0  3.936919  0  0  -0.205649  0  3.949127  0  0  -0.152882  -0.203238  0  3.928317  0
C  C109  1  0.65987739  0.43269452  0.81454931  1  0  -0.161335  0  3.683145  0  0  -0.204245  0  3.936913  0  0  -0.205602  0  3.949125  0  0  -0.152875  -0.203195  0  3.928312  0
C  C110  1  0.24324495  0.31557195  0.25504115  1  0  0.130172  0  3.718784  0  0  0.100267  0  3.96615  0  0  0.107552  0  3.985364  0  0  0.043134  0.095656  0  3.953001  0
C  C111  1  0.68442859  0.75675519  0.74496044  1  0  0.13014  0  3.718812  0  0  0.100226  0  3.966196  0  0  0.10751  0  3.985411  0  0  0.043125  0.095603  0  3.953044  0
C  C112  1  0.34647869  0.34225783  0.26121457  1  0  -0.163579  0  3.686063  0  0  -0.182013  0  3.933168  0  0  -0.190561  0  3.95432  0  0  -0.081547  -0.176592  0  3.919073  0
C  C113  1  0.65774205  0.65352164  0.73878565  1  0  -0.163471  0  3.68605  0  0  -0.181916  0  3.933161  0  0  -0.190462  0  3.954312  0  0  -0.081514  -0.1765  0  3.919075  0
C  C114  1  0.45398641  0.31011218  0.18287102  1  0  0.166077  0  3.693463  0  0  0.180676  0  3.93366  0  0  0.186597  0  3.955506  0  0  0.020389  0.176913  0  3.918747  0
C  C115  1  0.68988848  0.54601309  0.81713027  1  0  0.166027  0  3.693494  0  0  0.180665  0  3.933647  0  0  0.186585  0  3.955493  0  0  0.020413  0.176902  0  3.918735  0
C  C116  1  0.44979526  0.25245086  0.10027482  1  0  -0.170519  0  3.694002  0  0  -0.190187  0  3.941607  0  0  -0.199324  0  3.964323  0  0  -0.081545  -0.184322  0  3.926362  0
C  C117  1  0.74755021  0.55020353  0.89972583  1  0  -0.170571  0  3.693997  0  0  -0.190217  0  3.941593  0  0  -0.199351  0  3.964308  0  0  -0.081578  -0.18435  0  3.926346  0
C  C118  1  0.34252201  0.23023529  0.09833689  1  0  0.145598  0  3.702535  0  0  0.114807  0  3.953607  0  0  0.122422  0  3.973172  0  0  0.049024  0.109934  0  3.940254  0
C  C119  1  0.76976455  0.65747751  0.90166540  1  0  0.145545  0  3.702607  0  0  0.114744  0  3.953678  0  0  0.122356  0  3.973243  0  0  0.049027  0.109872  0  3.940323  0
N  N120  1  0.73629846  0.02406707  0.67638443  1  0  -0.349762  0  3.345699  0  0  -0.260522  0  3.625796  0  0  -0.281643  0  3.640199  0  0  -0.339435  -0.246301  0  3.615767  0
N  N121  1  0.97593222  0.26370073  0.32361751  1  0  -0.349676  0  3.345655  0  0  -0.260468  0  3.625787  0  0  -0.281591  0  3.640198  0  0  -0.339386  -0.246246  0  3.615751  0
N  N122  1  0.24003809  0.26014971  0.17513117  1  0  -0.34612  0  3.291511  0  0  -0.26075  0  3.561756  0  0  -0.281547  0  3.578347  0  0  -0.330232  -0.246674  0  3.550242  0
N  N123  1  0.73984954  0.75996052  0.82487051  1  0  -0.34603  0  3.29147  0  0  -0.260659  0  3.561707  0  0  -0.281454  0  3.578297  0  0  -0.330198  -0.246582  0  3.550196  0
O  O124  1  0.11588667  0.04980575  0.17755427  1  0  -0.635402  0  1.998325  0  0  -0.55469  0  2.25205  0  0  -0.58416  0  2.240404  0  0  -0.331497  -0.534062  0  2.259399  0
O  O125  1  0.95019337  0.88411137  0.82244857  1  0  -0.635369  0  1.998345  0  0  -0.554656  0  2.252098  0  0  -0.584128  0  2.240451  0  0  -0.331464  -0.534026  0  2.259446  0
O  O126  1  0.92146090  0.09611690  0.17561235  1  0  -0.591556  0  1.881784  0  0  -0.552511  0  2.096396  0  0  -0.573705  0  2.087295  0  0  -0.318889  -0.537802  0  2.102277  0
O  O127  1  0.90388490  0.07853723  0.82438774  1  0  -0.591627  0  1.8819  0  0  -0.55257  0  2.09651  0  0  -0.573767  0  2.087414  0  0  -0.318933  -0.53786  0  2.102393  0
O  O128  1  0.07912857  0.49451648  0.41907777  1  0  -0.217984  0  2.268829  0  0  -0.156282  0  2.499869  0  0  -0.174104  0  2.49952  0  0  -0.180439  -0.144294  0  2.499428  0
O  O129  1  0.50548558  0.92087879  0.58091989  1  0  -0.217992  0  2.268876  0  0  -0.156249  0  2.499876  0  0  -0.174079  0  2.499547  0  0  -0.180412  -0.14425  0  2.499409  0
O  O130  1  0.76037744  0.71373940  0.44423399  1  0  -0.221013  0  2.253999  0  0  -0.160923  0  2.48485  0  0  -0.178139  0  2.482382  0  0  -0.188472  -0.149335  0  2.485804  0
O  O131  1  0.28625731  0.23962256  0.55576405  1  0  -0.220998  0  2.25386  0  0  -0.160895  0  2.484701  0  0  -0.178111  0  2.482236  0  0  -0.188503  -0.149305  0  2.485649  0
O  O132  1  0.04084871  0.83709651  0.46038077  1  0  -0.220431  0  2.280414  0  0  -0.158467  0  2.5179  0  0  -0.175969  0  2.515707  0  0  -0.182964  -0.146668  0  2.51874  0
O  O133  1  0.16290395  0.95914776  0.53961658  1  0  -0.220508  0  2.280298  0  0  -0.158524  0  2.517788  0  0  -0.176028  0  2.515595  0  0  -0.182986  -0.146721  0  2.518627  0
O  O134  1  0.08201736  0.29064577  0.00183698  1  0  -0.632004  0  2.039396  0  0  -0.559588  0  2.306696  0  0  -0.589274  0  2.293916  0  0  -0.327665  -0.538814  0  2.314688  0
O  O135  1  0.70935237  0.91798396  0.99816065  1  0  -0.632009  0  2.039391  0  0  -0.559627  0  2.306713  0  0  -0.589317  0  2.293944  0  0  -0.327689  -0.538854  0  2.31471  0
O  O136  1  0.99407882  0.46104318  0.06030191  1  0  -0.602474  0  1.928007  0  0  -0.554236  0  2.150029  0  0  -0.576823  0  2.1404  0  0  -0.313716  -0.538476  0  2.156202  0
O  O137  1  0.53894977  0.00592709  0.93970043  1  0  -0.602462  0  1.928017  0  0  -0.554207  0  2.150017  0  0  -0.576792  0  2.140391  0  0  -0.31368  -0.538447  0  2.156193  0
O  O138  1  0.42628199  0.29347333  0.77653893  1  0  -0.22591  0  2.251336  0  0  -0.164931  0  2.485572  0  0  -0.1829  0  2.483667  0  0  -0.182678  -0.152785  0  2.486169  0
O  O139  1  0.70652607  0.57371332  0.22345821  1  0  -0.225894  0  2.251564  0  0  -0.164946  0  2.485817  0  0  -0.182914  0  2.483913  0  0  -0.182759  -0.1528  0  2.486412  0
O  O140  1  0.31188578  0.53622367  0.97055399  1  0  -0.215361  0  2.24689  0  0  -0.157267  0  2.479087  0  0  -0.174431  0  2.479021  0  0  -0.184033  -0.145683  0  2.478398  0
O  O141  1  0.46376812  0.68810687  0.02945121  1  0  -0.215469  0  2.246821  0  0  -0.157365  0  2.478997  0  0  -0.174529  0  2.478931  0  0  -0.184013  -0.145781  0  2.478309  0
O  O142  1  0.44195556  0.64599456  0.60987500  1  0  -0.220355  0  2.262458  0  0  -0.160445  0  2.497472  0  0  -0.178033  0  2.495278  0  0  -0.183919  -0.148616  0  2.498254  0
O  O143  1  0.35400346  0.55804384  0.39012078  1  0  -0.220419  0  2.262451  0  0  -0.16048  0  2.49747  0  0  -0.178071  0  2.495279  0  0  -0.183931  -0.14865  0  2.498249  0
