# generated using pymatgen
data_AlH5C10O5F2
_symmetry_space_group_name_H-M   'P 1'
_cell_length_a   6.66745812
_cell_length_b   13.55232794
_cell_length_c   16.57523790
_cell_angle_alpha   89.99779009
_cell_angle_beta   89.72220623
_cell_angle_gamma   90.34921210
_symmetry_Int_Tables_number   1
_chemical_formula_structural   AlH5C10O5F2
_chemical_formula_sum   'Al4 H20 C40 O20 F8'
_cell_volume   1497.68609212
_cell_formula_units_Z   4
loop_
 _symmetry_equiv_pos_site_id
 _symmetry_equiv_pos_as_xyz
  1  'x, y, z'
loop_
 _atom_site_type_symbol
 _atom_site_label
 _atom_site_symmetry_multiplicity
 _atom_site_fract_x
 _atom_site_fract_y
 _atom_site_fract_z
 _atom_site_occupancy
 _atom_site_pbe_bader_charge
 _atom_site_pbe_bader_spin_density
 _atom_site_pbe_cm5_charge
 _atom_site_pbe_ddec_charge
 _atom_site_pbe_ddec_spin_density
 _atom_site_pbe_ddec_sum_bond_order
 _atom_site_pbe_magmom
Al  Al0  1  0.01817288  0.99721339  0.50293948  1  2.503549  0  0.399486  1.634484  0  2.588866  0
Al  Al1  1  0.51845849  0.00167975  0.50212830  1  2.502483  0  0.397863  1.63981  0  2.585741  0
Al  Al2  1  0.98708093  0.49755619  0.00136542  1  2.501161  0  0.401769  1.638276  0  2.58011  0
Al  Al3  1  0.48662179  0.50194512  0.00232105  1  2.501461  0  0.399198  1.64477  0  2.579051  0
H  H4  1  0.27238254  0.88054059  0.46618002  1  0.621056  0  0.35073  0.427747  0  0.862001  0
H  H5  1  0.77637943  0.11516564  0.45986266  1  0.611141  0  0.349899  0.426665  0  0.864621  0
H  H6  1  0.23328691  0.62629858  0.97739794  1  0.632631  0  0.356073  0.439803  0  0.841947  0
H  H7  1  0.72878329  0.37476975  0.97392899  1  0.635207  0  0.354759  0.438689  0  0.844832  0
H  H8  1  0.22034571  0.65331649  0.78984719  1  0.067982  0  0.095055  0.11277  0  1.009948  0
H  H9  1  0.08297863  0.56719018  0.73026972  1  0.046252  0  0.092749  0.098486  0  1.0105  0
H  H10  1  0.09083441  0.68397823  0.61292083  1  0.041139  0  0.09484  0.101277  0  0.983693  0
H  H11  1  0.22727625  0.77201628  0.67113177  1  0.086216  0  0.097854  0.117982  0  1.005992  0
H  H12  1  0.71736503  0.36006756  0.21210286  1  0.084243  0  0.100284  0.120871  0  0.994319  0
H  H13  1  0.57746517  0.44328809  0.27372359  1  0.041872  0  0.096536  0.105112  0  0.982198  0
H  H14  1  0.59920014  0.32544623  0.39060585  1  0.02826  0  0.094777  0.101755  0  0.983691  0
H  H15  1  0.73547554  0.24062136  0.32885718  1  0.085934  0  0.092567  0.105017  0  1.017943  0
H  H16  1  0.77028493  0.34157892  0.77801511  1  0.084858  0  0.094384  0.110111  0  1.013209  0
H  H17  1  0.90430192  0.43292746  0.72196372  1  0.052351  0  0.093155  0.098613  0  1.008379  0
H  H18  1  0.92359549  0.31919782  0.60285072  1  0.030918  0  0.094961  0.101609  0  0.981583  0
H  H19  1  0.78868700  0.22648556  0.65734296  1  0.069944  0  0.098504  0.120429  0  1.004653  0
H  H20  1  0.08392682  0.55467207  0.27347102  1  0.031787  0  0.096486  0.105668  0  0.981347  0
H  H21  1  0.22096050  0.64128565  0.21326117  1  0.098921  0  0.099683  0.120402  0  0.998774  0
H  H22  1  0.23650003  0.75787557  0.33204406  1  0.056089  0  0.092417  0.105243  0  1.019859  0
H  H23  1  0.10318326  0.66970317  0.39241115  1  0.046783  0  0.093666  0.099839  0  0.986196  0
C  C24  1  0.76856829  0.88065162  0.39240556  1  1.597255  0  0.271043  0.675702  0  4.089897  0
C  C25  1  0.76058140  0.89141848  0.61685873  1  1.599703  0  0.275695  0.67128  0  4.094589  0
C  C26  1  0.26591592  0.11454687  0.61213474  1  1.611328  0  0.275839  0.672384  0  4.091541  0
C  C27  1  0.26966058  0.11265282  0.38822452  1  1.60058  0  0.271486  0.67518  0  4.088678  0
C  C28  1  0.74590755  0.61540301  0.11117271  1  1.599111  0  0.271829  0.661937  0  4.105096  0
C  C29  1  0.73526899  0.62146318  0.89469751  1  1.590182  0  0.271537  0.672674  0  4.092601  0
C  C30  1  0.23293192  0.38104983  0.89252343  1  1.594906  0  0.270524  0.669524  0  4.095672  0
C  C31  1  0.24304382  0.38239370  0.10987257  1  1.61111  0  0.272074  0.662948  0  4.101996  0
C  C32  1  0.74553387  0.69362207  0.82697429  1  0.039736  0  -0.014395  -0.169586  0  3.991189  0
C  C33  1  0.75720505  0.82835994  0.69020217  1  0.047218  0  -0.012697  -0.171538  0  3.986465  0
C  C34  1  0.90274059  0.69534147  0.77100813  1  -0.008937  0  -0.007269  0.060913  0  3.905094  0
C  C35  1  0.60085804  0.82937962  0.74771707  1  0.554763  0  0.101408  0.155435  0  4.056663  0
C  C36  1  0.90765194  0.75991925  0.70559133  1  0.001657  0  -0.004184  0.070157  0  3.911446  0
C  C37  1  0.59577805  0.76433531  0.81344672  1  0.517546  0  0.097178  0.148389  0  4.057252  0
C  C38  1  0.09718338  0.64545691  0.74666126  1  -0.015573  0  -0.149622  -0.191964  0  3.8535  0
C  C39  1  0.10227954  0.71907623  0.67252258  1  -0.032786  0  -0.150167  -0.195401  0  3.862573  0
C  C40  1  0.24726299  0.31148851  0.17840883  1  0.046541  0  -0.013154  -0.174043  0  3.985578  0
C  C41  1  0.26548739  0.17666474  0.31526151  1  0.053111  0  -0.013606  -0.16697  0  3.986707  0
C  C42  1  0.40361261  0.31229841  0.23425860  1  0.009121  0  -0.003755  0.070034  0  3.905814  0
C  C43  1  0.10886857  0.17378159  0.25858837  1  0.494054  0  0.097415  0.14799  0  4.057899  0
C  C44  1  0.41310536  0.24754547  0.29934854  1  -0.01469  0  -0.008088  0.061582  0  3.912164  0
C  C45  1  0.10006258  0.23842395  0.19259601  1  0.529387  0  0.100981  0.154569  0  4.057522  0
C  C46  1  0.59605805  0.36541924  0.25683841  1  -0.007361  0  -0.148178  -0.192151  0  3.853358  0
C  C47  1  0.60772936  0.29128732  0.33053794  1  -0.032368  0  -0.151874  -0.197148  0  3.87277  0
C  C48  1  0.24089314  0.31134683  0.82320031  1  0.073009  0  -0.015742  -0.174536  0  3.984939  0
C  C49  1  0.25974338  0.17972239  0.68434857  1  0.014607  0  -0.010712  -0.166384  0  3.987486  0
C  C50  1  0.09328011  0.30848452  0.76359650  1  -0.020347  0  -0.005866  0.064869  0  3.903341  0
C  C51  1  0.40799929  0.18075355  0.74438422  1  0.512691  0  0.101192  0.153839  0  4.058755  0
C  C52  1  0.10248573  0.24529277  0.69741126  1  0.044871  0  -0.004622  0.066832  0  3.913209  0
C  C53  1  0.39848716  0.24388226  0.81130055  1  0.523674  0  0.098842  0.151425  0  4.050493  0
C  C54  1  0.89707891  0.35396875  0.73680121  1  -0.053764  0  -0.150317  -0.191884  0  3.859696  0
C  C55  1  0.90823930  0.28216425  0.66160434  1  0.011731  0  -0.150976  -0.196993  0  3.857221  0
C  C56  1  0.75096768  0.68545200  0.18025434  1  0.014757  0  -0.013497  -0.172893  0  3.986166  0
C  C57  1  0.76564440  0.81705492  0.31925629  1  0.058166  0  -0.01501  -0.170235  0  3.990373  0
C  C58  1  0.90653543  0.68463376  0.23640302  1  0.017448  0  -0.003356  0.070282  0  3.906299  0
C  C59  1  0.61042454  0.82032989  0.26204065  1  0.499425  0  0.09846  0.149797  0  4.057204  0
C  C60  1  0.91434247  0.74782618  0.30260353  1  0.005946  0  -0.007272  0.062927  0  3.907705  0
C  C61  1  0.60328136  0.75723940  0.19505054  1  0.55426  0  0.100908  0.153724  0  4.058999  0
C  C62  1  0.10017455  0.63319827  0.25800996  1  -0.019188  0  -0.14864  -0.193253  0  3.852803  0
C  C63  1  0.11020349  0.70556294  0.33296082  1  -0.024692  0  -0.15167  -0.196496  0  3.868612  0
O  O64  1  0.94099746  0.90368463  0.41957173  1  -1.24782  0  -0.232335  -0.588416  0  2.314069  0
O  O65  1  0.59330425  0.91961103  0.58946560  1  -1.246457  0  -0.22779  -0.580381  0  2.369144  0
O  O66  1  0.43564672  0.09514493  0.58122846  1  -1.246129  0  -0.228427  -0.583379  0  2.347397  0
O  O67  1  0.10111591  0.08931384  0.41926199  1  -1.252079  0  -0.237965  -0.608773  0  2.364166  0
O  O68  1  0.09626398  0.08613232  0.58607144  1  -1.247822  0  -0.222346  -0.56639  0  2.323677  0
O  O69  1  0.44212647  0.08979752  0.41491784  1  -1.249944  0  -0.232808  -0.588242  0  2.308167  0
O  O70  1  0.60002167  0.90427517  0.42281221  1  -1.252836  0  -0.238027  -0.608505  0  2.357567  0
O  O71  1  0.93211115  0.90884991  0.58572993  1  -1.252078  0  -0.2261  -0.573927  0  2.315891  0
O  O72  1  0.26928775  0.93872261  0.50026869  1  -1.423058  0  -0.447425  -0.984773  0  2.180284  0
O  O73  1  0.77074421  0.06011322  0.49726328  1  -1.414424  0  -0.447105  -0.984498  0  2.18196  0
O  O74  1  0.91294714  0.57654933  0.09248036  1  -1.241182  0  -0.224853  -0.567273  0  2.322995  0
O  O75  1  0.56317375  0.58760650  0.91380448  1  -1.242344  0  -0.235318  -0.59694  0  2.340277  0
O  O76  1  0.39730331  0.40199001  0.92738523  1  -1.253647  0  -0.235673  -0.604034  0  2.366523  0
O  O77  1  0.07728296  0.39834788  0.07485544  1  -1.244364  0  -0.230603  -0.587007  0  2.35227  0
O  O78  1  0.06036824  0.41469247  0.91067026  1  -1.250202  0  -0.23108  -0.581748  0  2.305704  0
O  O79  1  0.41105084  0.42212338  0.09242728  1  -1.249097  0  -0.223605  -0.566118  0  2.328757  0
O  O80  1  0.57877134  0.59914962  0.07706813  1  -1.243151  0  -0.229989  -0.586182  0  2.36181  0
O  O81  1  0.90221502  0.59925297  0.92670498  1  -1.247581  0  -0.230745  -0.5881  0  2.317958  0
O  O82  1  0.23577891  0.56051741  0.00035014  1  -1.431234  0  -0.448409  -0.997532  0  2.191664  0
O  O83  1  0.73456069  0.43920360  0.99933189  1  -1.43521  0  -0.448194  -0.996168  0  2.185112  0
F  F84  1  0.44952536  0.89506780  0.74293652  1  -0.621806  0  -0.080956  -0.103619  0  1.400267  0
F  F85  1  0.44015759  0.77408804  0.86589137  1  -0.627286  0  -0.08903  -0.11421  0  1.375367  0
F  F86  1  0.96015039  0.10549605  0.26443121  1  -0.617243  0  -0.087288  -0.108941  0  1.382168  0
F  F87  1  0.94375593  0.22597312  0.14182976  1  -0.62005  0  -0.084685  -0.104234  0  1.383706  0
F  F88  1  0.56476029  0.11794455  0.74111121  1  -0.620233  0  -0.08122  -0.104591  0  1.396852  0
F  F89  1  0.54816583  0.23479965  0.86590204  1  -0.633281  0  -0.087647  -0.112404  0  1.3854  0
F  F90  1  0.46181640  0.88771520  0.26826593  1  -0.627847  0  -0.08616  -0.10794  0  1.384579  0
F  F91  1  0.44821997  0.77019669  0.14388079  1  -0.622026  0  -0.083653  -0.104026  0  1.387741  0
