# generated using pymatgen
data_FeH8(C4O3)2
_symmetry_space_group_name_H-M   'P 1'
_cell_length_a   6.35325678
_cell_length_b   7.29462322
_cell_length_c   9.38789072
_cell_angle_alpha   98.36884683
_cell_angle_beta   109.77292461
_cell_angle_gamma   90.02309000
_symmetry_Int_Tables_number   1
_chemical_formula_structural   FeH8(C4O3)2
_chemical_formula_sum   'Fe2 H16 C16 O12'
_cell_volume   404.49038962
_cell_formula_units_Z   2
loop_
 _symmetry_equiv_pos_site_id
 _symmetry_equiv_pos_as_xyz
  1  'x, y, z'
loop_
 _atom_site_type_symbol
 _atom_site_label
 _atom_site_symmetry_multiplicity
 _atom_site_fract_x
 _atom_site_fract_y
 _atom_site_fract_z
 _atom_site_occupancy
 _atom_site_pbe_cm5_charge
 _atom_site_pbe_ddec_charge
 _atom_site_pbe_ddec_spin_density
 _atom_site_pbe_ddec_sum_bond_order
 _atom_site_pbe_magmom
Fe  Fe0  1  0.50000107  0.99999977  0.50000018  1  0.610345  0.823564  0.072616  3.009435  0.046
Fe  Fe1  1  0.99999711  0.49999787  0.50000132  1  0.609015  0.822169  -0.069329  3.008745  -0.042
H  H2  1  0.40822577  0.06185305  0.14380281  1  0.106749  0.111155  2.5e-05  1.020576  0.0
H  H3  1  0.73525487  0.56207121  0.14356977  1  0.106414  0.111366  -2.4e-05  1.020053  0.0
H  H4  1  0.59176308  0.93815355  0.85619360  1  0.106728  0.111112  2.5e-05  1.020495  0.0
H  H5  1  0.26475705  0.43792984  0.85643220  1  0.106397  0.1113  -2.4e-05  1.020079  0.0
H  H6  1  0.72536978  0.12037627  0.12076214  1  0.105541  0.109899  0.000122  1.020263  0.0
H  H7  1  0.39561303  0.62001042  0.12099345  1  0.10514  0.109403  -0.000122  1.020816  0.0
H  H8  1  0.27461881  0.87962617  0.87923480  1  0.105533  0.109912  0.000122  1.020371  0.0
H  H9  1  0.60439388  0.37999062  0.87900848  1  0.105134  0.109424  -0.000122  1.020693  0.0
H  H10  1  0.83355800  0.10517332  0.45792889  1  0.300222  0.366949  -0.000234  0.980746  0.0
H  H11  1  0.62441777  0.60508807  0.45778381  1  0.300105  0.367285  0.000228  0.980786  0.0
H  H12  1  0.16644509  0.89482079  0.54206927  1  0.300233  0.366935  -0.000234  0.980735  0.0
H  H13  1  0.37557515  0.39490326  0.54221496  1  0.300096  0.367259  0.000227  0.98084  0.0
H  H14  1  0.80733259  0.88994989  0.38271217  1  0.311917  0.396658  -0.000516  0.913108  -0.001
H  H15  1  0.57538870  0.38976640  0.38264836  1  0.312089  0.396829  0.000517  0.913011  0.001
H  H16  1  0.19266055  0.11004422  0.61728909  1  0.311906  0.396598  -0.000516  0.913149  -0.001
H  H17  1  0.42461418  0.61022354  0.61735353  1  0.312082  0.396839  0.000517  0.913009  0.001
C  C18  1  0.07424268  0.10297189  0.14763516  1  -0.016493  -0.038416  0.000119  3.986994  0.0
C  C19  1  0.07339976  0.60301813  0.14768894  1  -0.016764  -0.037975  -0.000345  3.986393  0.0
C  C20  1  0.92574975  0.89703887  0.85236146  1  -0.016538  -0.038405  0.000119  3.987059  0.0
C  C21  1  0.92661704  0.39698014  0.85231701  1  -0.016858  -0.038185  -0.000345  3.98661  0.0
C  C22  1  0.23020553  0.03582139  0.07957133  1  -0.080734  -0.08322  -0.000175  3.954437  0.0
C  C23  1  0.84927143  0.53588572  0.07952446  1  -0.080075  -0.084684  1.7e-05  3.954219  0.0
C  C24  1  0.76978845  0.96418660  0.92042850  1  -0.080724  -0.083238  -0.000175  3.954224  0.0
C  C25  1  0.15073922  0.46412087  0.92048106  1  -0.080056  -0.084503  1.7e-05  3.954465  0.0
C  C26  1  0.84381827  0.06600005  0.06665026  1  -0.081773  -0.090559  7.6e-05  3.954648  0.0
C  C27  1  0.22294592  0.56587419  0.06674002  1  -0.082149  -0.090089  -0.000197  3.953975  0.0
C  C28  1  0.15617727  0.93400655  0.93334871  1  -0.081806  -0.090671  7.6e-05  3.954923  0.0
C  C29  1  0.77707072  0.43412270  0.93326040  1  -0.08209  -0.090006  -0.000196  3.95388  0.0
C  C30  1  0.14724259  0.21913560  0.30005159  1  0.21885  0.55096  -0.002965  4.096376  -0.002
C  C31  1  0.15245874  0.71908718  0.30004483  1  0.218158  0.55044  0.002304  4.095631  0.001
C  C32  1  0.85274789  0.78086961  0.69994821  1  0.218872  0.551042  -0.002965  4.096263  -0.002
C  C33  1  0.84755298  0.28091109  0.69995573  1  0.218285  0.550665  0.002303  4.095661  0.001
O  O34  1  0.35499194  0.22548058  0.39317251  1  -0.314165  -0.567587  0.002868  2.40436  0.005
O  O35  1  0.03738456  0.72556963  0.39290504  1  -0.314487  -0.568106  -0.003074  2.404044  -0.005
O  O36  1  0.64500125  0.77451492  0.60682680  1  -0.314154  -0.567642  0.002869  2.404333  0.005
O  O37  1  0.96263203  0.27442586  0.60709841  1  -0.314596  -0.568213  -0.003074  2.404094  -0.005
O  O38  1  0.99902357  0.31629397  0.33305475  1  -0.296686  -0.478911  -0.004917  2.545072  -0.007
O  O39  1  0.33410517  0.81606465  0.33327708  1  -0.296668  -0.479475  0.004775  2.543359  0.007
O  O40  1  0.00096509  0.68370846  0.66694647  1  -0.296692  -0.478924  -0.004916  2.545006  -0.007
O  O41  1  0.66590713  0.18394194  0.66672775  1  -0.296622  -0.479569  0.004772  2.543576  0.007
O  O42  1  0.72319913  0.00236842  0.39246506  1  -0.557525  -0.687246  0.004337  2.262811  0.005
O  O43  1  0.66936788  0.50213499  0.39243390  1  -0.557331  -0.687488  -0.00446  2.26323  -0.005
O  O44  1  0.27679729  0.99762568  0.60753267  1  -0.557513  -0.687162  0.004337  2.262758  0.005
O  O45  1  0.33062848  0.49785772  0.60756579  1  -0.557314  -0.687486  -0.00446  2.263254  -0.005
