# generated using pymatgen
data_Nd2H37C36N7O22
_symmetry_space_group_name_H-M   'P 1'
_cell_length_a   13.83584415
_cell_length_b   13.83587209
_cell_length_c   16.40219259
_cell_angle_alpha   67.22910380
_cell_angle_beta   67.22905141
_cell_angle_gamma   75.92267478
_symmetry_Int_Tables_number   1
_chemical_formula_structural   Nd2H37C36N7O22
_chemical_formula_sum   'Nd4 H74 C72 N14 O44'
_cell_volume   2653.34755874
_cell_formula_units_Z   2
loop_
 _symmetry_equiv_pos_site_id
 _symmetry_equiv_pos_as_xyz
  1  'x, y, z'
loop_
 _atom_site_type_symbol
 _atom_site_label
 _atom_site_symmetry_multiplicity
 _atom_site_fract_x
 _atom_site_fract_y
 _atom_site_fract_z
 _atom_site_occupancy
 _atom_site_pbe_bader_charge
 _atom_site_pbe_bader_spin_density
 _atom_site_pbe_cm5_charge
 _atom_site_pbe_ddec_charge
 _atom_site_pbe_ddec_spin_density
 _atom_site_pbe_ddec_sum_bond_order
 _atom_site_pbe_magmom
Nd  Nd0  1  0.95079329  0.67047591  0.49828242  1  2.264646  0  1.505736  2.113328  0  2.179136  0
Nd  Nd1  1  0.32952374  0.04920770  0.00171727  1  2.264661  0  1.505744  2.113282  0  2.179178  0
Nd  Nd2  1  0.04920738  0.32952453  0.50171706  1  2.264651  0  1.505745  2.11332  0  2.179158  0
Nd  Nd3  1  0.67047772  0.95079109  0.99828309  1  2.264646  0  1.505746  2.113308  0  2.179181  0
H  H4  1  0.72761508  0.83234468  0.74846957  1  0.129792  0  0.118257  0.129574  0  0.992994  0
H  H5  1  0.16765621  0.27238550  0.75153094  1  0.129825  0  0.118254  0.129572  0  0.993017  0
H  H6  1  0.27238559  0.16765655  0.25152965  1  0.129812  0  0.118247  0.129558  0  0.993017  0
H  H7  1  0.83234367  0.72761425  0.24846962  1  0.129828  0  0.118261  0.129579  0  0.993021  0
H  H8  1  0.40336402  0.96355885  0.78542626  1  0.1608  0  0.125288  0.134522  0  1.00598  0
H  H9  1  0.03644085  0.59663663  0.71457585  1  0.160897  0  0.125321  0.134547  0  1.005946  0
H  H10  1  0.59663586  0.03644011  0.21457335  1  0.160865  0  0.125278  0.134511  0  1.005981  0
H  H11  1  0.96355824  0.40336399  0.28542469  1  0.160913  0  0.125327  0.134565  0  1.00595  0
H  H12  1  0.58169985  0.84377609  0.55559068  1  0.151809  0  0.119538  0.131566  0  0.995928  0
H  H13  1  0.15622401  0.41830006  0.94441031  1  0.151903  0  0.119533  0.13156  0  0.995936  0
H  H14  1  0.41830082  0.15622436  0.44440818  1  0.151634  0  0.119543  0.131553  0  0.995914  0
H  H15  1  0.84377508  0.58170055  0.05558962  1  0.151951  0  0.119567  0.131646  0  0.995895  0
H  H16  1  0.74027219  0.25972883  0.74999955  1  0.127505  0  0.116382  0.121726  0  1.021124  0
H  H17  1  0.25972848  0.74027162  0.24999993  1  0.127502  0  0.116378  0.121731  0  1.021124  0
H  H18  1  0.63280772  0.58893440  0.64634860  1  0.172611  0  0.123872  0.142364  0  0.995178  0
H  H19  1  0.41106672  0.36719491  0.85364994  1  0.172581  0  0.123892  0.142373  0  0.995187  0
H  H20  1  0.36719374  0.41106753  0.35364952  1  0.172288  0  0.123886  0.142374  0  0.995182  0
H  H21  1  0.58893395  0.63280710  0.14634902  1  0.172616  0  0.123876  0.142367  0  0.99518  0
H  H22  1  0.19754794  0.62686505  0.52875052  1  0.097312  0  0.126864  0.046099  0  1.000335  0
H  H23  1  0.37313486  0.80245575  0.97124869  1  0.097311  0  0.126875  0.046109  0  1.000353  0
H  H24  1  0.80245510  0.37313278  0.47124843  1  0.097371  0  0.126894  0.04612  0  1.000331  0
H  H25  1  0.62686502  0.19754086  0.02875229  1  0.09738  0  0.126887  0.046146  0  1.000286  0
H  H26  1  0.34353881  0.62057721  0.54911423  1  0.045274  0  0.109592  0.119985  0  0.988861  0
H  H27  1  0.37942471  0.65646397  0.95088401  1  0.045248  0  0.109601  0.119994  0  0.988922  0
H  H28  1  0.65646265  0.37942079  0.45088396  1  0.045309  0  0.109613  0.120029  0  0.98874  0
H  H29  1  0.62057675  0.34353169  0.04911921  1  0.045334  0  0.109588  0.119977  0  0.988763  0
H  H30  1  0.33701830  0.69966248  0.61599746  1  0.095692  0  0.101077  0.117987  0  1.028486  0
H  H31  1  0.30033957  0.66298304  0.88400121  1  0.095684  0  0.10107  0.117994  0  1.02846  0
H  H32  1  0.66298474  0.30033379  0.38400261  1  0.095662  0  0.101093  0.118  0  1.028572  0
H  H33  1  0.69966425  0.33701236  0.11600010  1  0.095642  0  0.101111  0.118022  0  1.028507  0
H  H34  1  0.40271216  0.74169926  0.49285331  1  0.047098  0  0.109556  0.127906  0  0.966743  0
H  H35  1  0.25830281  0.59728993  0.00714524  1  0.045863  0  0.109562  0.127884  0  0.966746  0
H  H36  1  0.59729009  0.25829865  0.50714464  1  0.047156  0  0.10956  0.127932  0  0.96675  0
H  H37  1  0.74169943  0.40270642  0.99285628  1  0.045743  0  0.109532  0.127859  0  0.966818  0
H  H38  1  0.14103954  0.89993539  0.51401764  1  0.079224  0  0.11371  0.12809  0  1.021472  0
H  H39  1  0.10006536  0.85896180  0.98598085  1  0.079583  0  0.113703  0.128097  0  1.021457  0
H  H40  1  0.85896113  0.10006114  0.48598738  1  0.079021  0  0.113699  0.12811  0  1.021492  0
H  H41  1  0.89993926  0.14103664  0.01401555  1  0.079015  0  0.113701  0.128095  0  1.021499  0
H  H42  1  0.27801564  0.91119105  0.48552971  1  0.080239  0  0.10579  0.122386  0  0.999939  0
H  H43  1  0.08881034  0.72198686  0.01446711  1  0.080313  0  0.105805  0.122437  0  0.999931  0
H  H44  1  0.72198503  0.08880625  0.51447018  1  0.080224  0  0.105788  0.122406  0  0.999908  0
H  H45  1  0.91119269  0.27801254  0.98553254  1  0.080295  0  0.105782  0.122406  0  0.999867  0
H  H46  1  0.19751790  0.86813195  0.60438482  1  0.087081  0  0.106586  0.121135  0  0.992056  0
H  H47  1  0.13186996  0.80248536  0.89561267  1  0.087051  0  0.106581  0.121127  0  0.992057  0
H  H48  1  0.80248908  0.13186467  0.39561628  1  0.087221  0  0.106585  0.121149  0  0.992098  0
H  H49  1  0.86813544  0.19750829  0.10438626  1  0.087249  0  0.106572  0.121131  0  0.992124  0
H  H50  1  0.85960870  0.94743047  0.32037150  1  0.115901  0  0.126309  0.055795  0  0.997792  0
H  H51  1  0.05256959  0.14039138  0.17962958  1  0.115894  0  0.126296  0.055765  0  0.997833  0
H  H52  1  0.14039118  0.05256927  0.67962846  1  0.115896  0  0.126314  0.055813  0  0.997773  0
H  H53  1  0.94743029  0.85960837  0.82037099  1  0.115891  0  0.126312  0.055776  0  0.997828  0
H  H54  1  0.85595330  0.99579510  0.18056867  1  0.095295  0  0.111456  0.130809  0  1.010101  0
H  H55  1  0.00420419  0.14404725  0.31943312  1  0.095288  0  0.111455  0.130806  0  1.010095  0
H  H56  1  0.14404580  0.00420394  0.81943116  1  0.095294  0  0.111457  0.130786  0  1.010119  0
H  H57  1  0.99579648  0.85595398  0.68056671  1  0.095292  0  0.11146  0.130805  0  1.010115  0
H  H58  1  0.89989639  0.89645127  0.12721297  1  0.101408  0  0.107032  0.132684  0  1.014655  0
H  H59  1  0.10354826  0.10010492  0.37278849  1  0.101386  0  0.107045  0.132671  0  1.014674  0
H  H60  1  0.10010349  0.10354769  0.87278724  1  0.101427  0  0.107012  0.132642  0  1.014611  0
H  H61  1  0.89645242  0.89989552  0.62721221  1  0.101418  0  0.107037  0.132672  0  1.01466  0
H  H62  1  0.98491478  0.99428145  0.09477268  1  0.035225  0  0.106682  0.120916  0  0.99985  0
H  H63  1  0.00571754  0.01508707  0.40522817  1  0.035213  0  0.106678  0.12091  0  0.999857  0
H  H64  1  0.01508510  0.00571751  0.90522693  1  0.035219  0  0.106671  0.1209  0  0.999857  0
H  H65  1  0.99428313  0.98491495  0.59477140  1  0.035186  0  0.106668  0.120889  0  0.999852  0
H  H66  1  0.08682427  0.76065115  0.26270612  1  0.138484  0  0.11454  0.133125  0  1.049703  0
H  H67  1  0.23934809  0.91317649  0.23729441  1  0.138501  0  0.11454  0.133101  0  1.049719  0
H  H68  1  0.91317561  0.23934860  0.73729384  1  0.138478  0  0.114532  0.133111  0  1.049721  0
H  H69  1  0.76065180  0.08682404  0.76270651  1  0.138477  0  0.114537  0.133115  0  1.049712  0
H  H70  1  0.12722226  0.85214006  0.14541924  1  0.104408  0  0.109353  0.129342  0  1.025287  0
H  H71  1  0.14785855  0.87277928  0.35458124  1  0.104411  0  0.109345  0.129311  0  1.025318  0
H  H72  1  0.87277762  0.14785969  0.85458011  1  0.104416  0  0.109364  0.129345  0  1.025286  0
H  H73  1  0.85214133  0.12722125  0.64541968  1  0.104398  0  0.109351  0.129315  0  1.025314  0
H  H74  1  0.04403799  0.75390927  0.17546401  1  0.040151  0  0.101608  0.112899  0  1.002788  0
H  H75  1  0.24608993  0.95596341  0.32453755  1  0.040176  0  0.101582  0.112877  0  1.00274  0
H  H76  1  0.95596268  0.24609039  0.82453572  1  0.040154  0  0.101598  0.112893  0  1.002789  0
H  H77  1  0.75390995  0.04403791  0.67546312  1  0.040204  0  0.101574  0.112857  0  1.002764  0
C  C78  1  0.66538687  0.83383877  0.64580933  1  -0.020936  0  -0.009865  -0.016654  0  3.945424  0
C  C79  1  0.16616119  0.33461338  0.85419221  1  -0.020956  0  -0.009866  -0.016631  0  3.945402  0
C  C80  1  0.33461380  0.16616168  0.35419014  1  -0.020885  0  -0.009854  -0.016577  0  3.945404  0
C  C81  1  0.83383791  0.66538645  0.14580859  1  -0.020958  0  -0.009849  -0.016582  0  3.945374  0
C  C82  1  0.65935584  0.85431000  0.72482178  1  -0.003712  0  -0.056443  -0.080291  0  3.875275  0
C  C83  1  0.14569037  0.34064521  0.77517875  1  -0.003713  0  -0.056443  -0.080318  0  3.875299  0
C  C84  1  0.34064483  0.14569044  0.27517770  1  -0.003732  0  -0.056441  -0.080305  0  3.875288  0
C  C85  1  0.85430873  0.65935462  0.22482204  1  -0.003736  0  -0.05647  -0.080357  0  3.87528  0
C  C86  1  0.56589658  0.90244382  0.77456442  1  -0.005905  0  -0.012056  -0.03277  0  3.953247  0
C  C87  1  0.09755689  0.43410372  0.72543685  1  -0.006283  0  -0.012098  -0.03279  0  3.953294  0
C  C88  1  0.43410330  0.09755670  0.22543467  1  -0.005958  0  -0.01206  -0.032742  0  3.953263  0
C  C89  1  0.90244220  0.56589690  0.27456369  1  -0.006171  0  -0.012058  -0.032727  0  3.953211  0
C  C90  1  0.47662325  0.92690443  0.74701279  1  -0.035775  0  -0.066873  -0.129372  0  3.917438  0
C  C91  1  0.07309457  0.52337751  0.75298951  1  -0.03538  0  -0.066916  -0.129403  0  3.917492  0
C  C92  1  0.52337663  0.07309453  0.25298743  1  -0.03582  0  -0.066863  -0.129346  0  3.917401  0
C  C93  1  0.92690374  0.47662319  0.24701065  1  -0.035464  0  -0.066969  -0.129518  0  3.917455  0
C  C94  1  0.48400637  0.90440680  0.66884951  1  0.169271  0  0.077095  0.059896  0  3.955771  0
C  C95  1  0.09559189  0.51599259  0.83115226  1  0.169303  0  0.077104  0.059935  0  3.955847  0
C  C96  1  0.51599351  0.09559294  0.33115045  1  0.169284  0  0.077096  0.059865  0  3.95582  0
C  C97  1  0.90440641  0.48400733  0.16884816  1  0.169298  0  0.077087  0.059921  0  3.955791  0
C  C98  1  0.57722119  0.86016050  0.61670486  1  0.038719  0  -0.057237  -0.098844  0  3.913836  0
C  C99  1  0.13983865  0.42277871  0.88329645  1  0.038581  0  -0.057241  -0.09887  0  3.913944  0
C  C100  1  0.42278027  0.13983985  0.38329378  1  0.038907  0  -0.057261  -0.098846  0  3.91387  0
C  C101  1  0.86016044  0.57722191  0.11670349  1  0.038534  0  -0.057263  -0.09896  0  3.914022  0
C  C102  1  0.76476278  0.78230510  0.59151395  1  1.559312  0  0.185239  0.561347  0  4.266317  0
C  C103  1  0.21769499  0.23523735  0.90848636  1  1.559307  0  0.18517  0.561244  0  4.266437  0
C  C104  1  0.23523789  0.21769612  0.40848527  1  1.559273  0  0.185194  0.56124  0  4.266561  0
C  C105  1  0.78230332  0.76476257  0.09151467  1  1.559308  0  0.185206  0.561293  0  4.266574  0
C  C106  1  0.56129660  0.92759167  0.85760849  1  1.603823  0  0.231704  0.638048  0  4.188449  0
C  C107  1  0.07240895  0.43870396  0.64239273  1  1.603713  0  0.231764  0.638174  0  4.188265  0
C  C108  1  0.43870250  0.07240816  0.14239109  1  1.603839  0  0.231557  0.63782  0  4.188672  0
C  C109  1  0.92759093  0.56129578  0.35760784  1  1.603724  0  0.231778  0.638161  0  4.188288  0
C  C110  1  0.67634701  0.32365321  0.74999981  1  -0.046761  0  -0.057994  -0.075904  0  3.870699  0
C  C111  1  0.32365287  0.67634732  0.24999990  1  -0.046782  0  -0.058029  -0.075961  0  3.870755  0
C  C112  1  0.69789143  0.42597527  0.69026662  1  0.017322  0  -0.010073  -0.02429  0  3.938083  0
C  C113  1  0.57402544  0.30211002  0.80973304  1  0.017109  0  -0.010095  -0.024208  0  3.937928  0
C  C114  1  0.30210924  0.57402596  0.30973259  1  0.017106  0  -0.01004  -0.024172  0  3.938037  0
C  C115  1  0.42597444  0.69789129  0.19026701  1  0.017184  0  -0.010076  -0.024263  0  3.938049  0
C  C116  1  0.61644949  0.50872625  0.69127478  1  -0.077304  0  -0.06411  -0.122025  0  3.901821  0
C  C117  1  0.49127518  0.38355195  0.80872405  1  -0.076991  0  -0.064077  -0.122016  0  3.901699  0
C  C118  1  0.38355118  0.49127576  0.30872357  1  -0.076714  0  -0.064105  -0.122035  0  3.901888  0
C  C119  1  0.50872549  0.61644928  0.19127517  1  -0.077149  0  -0.064095  -0.121983  0  3.901786  0
C  C120  1  0.51450793  0.48549378  0.74999933  1  0.248974  0  0.071561  0.051177  0  3.972282  0
C  C121  1  0.48549274  0.51450745  0.24999989  1  0.248967  0  0.071536  0.051095  0  3.972437  0
C  C122  1  0.80834663  0.44757437  0.62459188  1  1.629321  0  0.2341  0.641899  0  4.182048  0
C  C123  1  0.55242590  0.19165486  0.87540730  1  1.629329  0  0.234042  0.641846  0  4.182033  0
C  C124  1  0.19165404  0.55242529  0.37540785  1  1.629338  0  0.234093  0.641911  0  4.182051  0
C  C125  1  0.44757398  0.80834567  0.12459301  1  1.629323  0  0.23412  0.641892  0  4.182004  0
C  C126  1  0.16931399  0.70920989  0.52707092  1  1.379025  0  0.185268  0.31595  0  4.117516  0
C  C127  1  0.29078851  0.83068862  0.97292853  1  1.378861  0  0.185172  0.315804  0  4.117801  0
C  C128  1  0.83068904  0.29078795  0.47292741  1  1.378812  0  0.185147  0.315858  0  4.117704  0
C  C129  1  0.70921295  0.16930861  0.02707295  1  1.378811  0  0.185192  0.315852  0  4.117647  0
C  C130  1  0.33566891  0.70152702  0.54884029  1  0.286816  0  -0.129079  -0.275241  0  3.915036  0
C  C131  1  0.29847523  0.66433411  0.95115777  1  0.28806  0  -0.129101  -0.275272  0  3.915066  0
C  C132  1  0.66433334  0.29846855  0.45115844  1  0.286724  0  -0.129129  -0.275352  0  3.915129  0
C  C133  1  0.70152938  0.33566198  0.04884428  1  0.28806  0  -0.129062  -0.27524  0  3.915103  0
C  C134  1  0.21157359  0.86580863  0.53440488  1  0.245383  0  -0.133438  -0.275751  0  3.887716  0
C  C135  1  0.13419294  0.78842934  0.96559221  1  0.244998  0  -0.133446  -0.275833  0  3.887753  0
C  C136  1  0.78842865  0.13418772  0.46559603  1  0.245375  0  -0.13343  -0.275826  0  3.887786  0
C  C137  1  0.86581010  0.21156849  0.03440673  1  0.245303  0  -0.133392  -0.275776  0  3.887784  0
C  C138  1  0.93074975  0.89018616  0.31071014  1  1.390126  0  0.189535  0.328898  0  4.073912  0
C  C139  1  0.10981295  0.06925025  0.18929128  1  1.390097  0  0.189572  0.328998  0  4.073892  0
C  C140  1  0.06925013  0.10981358  0.68928921  1  1.390136  0  0.189524  0.328862  0  4.073923  0
C  C141  1  0.89018694  0.93074872  0.81070955  1  1.390148  0  0.189557  0.328964  0  4.073939  0
C  C142  1  0.92533194  0.94532859  0.15278402  1  0.247865  0  -0.131384  -0.291775  0  3.893487  0
C  C143  1  0.05467076  0.07466830  0.34721724  1  0.247862  0  -0.131378  -0.291738  0  3.893455  0
C  C144  1  0.07466715  0.05467046  0.84721582  1  0.247866  0  -0.131346  -0.291698  0  3.893418  0
C  C145  1  0.94532912  0.92533223  0.65278368  1  0.24787  0  -0.131372  -0.291724  0  3.893512  0
C  C146  1  0.06324318  0.80715040  0.20095918  1  0.2083  0  -0.135824  -0.280921  0  3.851921  0
C  C147  1  0.19284790  0.93675619  0.29904151  1  0.208273  0  -0.135783  -0.280831  0  3.851852  0
C  C148  1  0.93675670  0.19285012  0.79904053  1  0.208343  0  -0.135828  -0.280931  0  3.851922  0
C  C149  1  0.80715198  0.06324512  0.70095916  1  0.208275  0  -0.13579  -0.280842  0  3.851868  0
N  N150  1  0.38987776  0.92534896  0.64148882  1  0.380486  0  0.061684  0.526978  0  4.187917  0
N  N151  1  0.07465171  0.61012239  0.85851252  1  0.380365  0  0.061681  0.526959  0  4.187703  0
N  N152  1  0.61012291  0.07464992  0.35851116  1  0.380512  0  0.061676  0.526997  0  4.187999  0
N  N153  1  0.92534738  0.38987744  0.14148767  1  0.380446  0  0.061689  0.527007  0  4.18784  0
N  N154  1  0.42829804  0.57170284  0.74999960  1  0.363813  0  0.055152  0.510313  0  4.202162  0
N  N155  1  0.57170264  0.42829760  0.24999987  1  0.363818  0  0.055151  0.510324  0  4.20221  0
N  N156  1  0.23697494  0.75743966  0.53435116  1  -1.203781  0  -0.277347  0.036396  0  3.712474  0
N  N157  1  0.24256140  0.76302706  0.96564701  1  -1.203524  0  -0.277306  0.036507  0  3.712502  0
N  N158  1  0.76302652  0.24255756  0.46564911  1  -1.203423  0  -0.277297  0.03645  0  3.712545  0
N  N159  1  0.75744084  0.23697086  0.03435277  1  -1.203348  0  -0.277327  0.036466  0  3.712609  0
N  N160  1  0.97034683  0.87984150  0.22610353  1  -1.208842  0  -0.27071  0.047825  0  3.720104  0
N  N161  1  0.12015729  0.02965297  0.27389805  1  -1.209061  0  -0.270766  0.047742  0  3.720077  0
N  N162  1  0.02965305  0.12015825  0.77389643  1  -1.209081  0  -0.270733  0.047832  0  3.720015  0
N  N163  1  0.87984259  0.97034756  0.72610287  1  -1.20886  0  -0.270727  0.047792  0  3.720097  0
O  O164  1  0.76665397  0.76991481  0.51810154  1  -1.163486  0  -0.371004  -0.609562  0  2.158827  0
O  O165  1  0.23008495  0.23334609  0.98189890  1  -1.163508  0  -0.370945  -0.609505  0  2.158907  0
O  O166  1  0.23334670  0.23008485  0.48189819  1  -1.163482  0  -0.370924  -0.609469  0  2.158932  0
O  O167  1  0.76991414  0.76665374  0.01810190  1  -1.163502  0  -0.370938  -0.609502  0  2.158938  0
O  O168  1  0.84374934  0.75232420  0.62150598  1  -1.190232  0  -0.390807  -0.646157  0  2.162001  0
O  O169  1  0.24767555  0.15625101  0.87849376  1  -1.190223  0  -0.39079  -0.646109  0  2.162033  0
O  O170  1  0.15625211  0.24767851  0.37849189  1  -1.190231  0  -0.390832  -0.646169  0  2.162112  0
O  O171  1  0.75232197  0.84374742  0.12150801  1  -1.190235  0  -0.390851  -0.646177  0  2.162165  0
O  O172  1  0.64578848  0.90848648  0.87671735  1  -1.182592  0  -0.378276  -0.632243  0  2.267348  0
O  O173  1  0.09151377  0.35421354  0.62328229  1  -1.182539  0  -0.378305  -0.632319  0  2.267283  0
O  O174  1  0.35421140  0.09151405  0.12328235  1  -1.182638  0  -0.378147  -0.632058  0  2.267352  0
O  O175  1  0.90848611  0.64578621  0.37671767  1  -1.182543  0  -0.378284  -0.632271  0  2.267309  0
O  O176  1  0.47295077  0.96632540  0.90273781  1  -1.217929  0  -0.40265  -0.709706  0  2.372382  0
O  O177  1  0.03367590  0.52705015  0.59726368  1  -1.21793  0  -0.402669  -0.709773  0  2.372344  0
O  O178  1  0.52704832  0.03367522  0.09726212  1  -1.217938  0  -0.402651  -0.709699  0  2.372496  0
O  O179  1  0.96632477  0.47294951  0.40273666  1  -1.217953  0  -0.402684  -0.709764  0  2.372322  0
O  O180  1  0.30281480  0.94338693  0.69860655  1  -0.485989  0  -0.137198  -0.356166  0  1.932309  0
O  O181  1  0.05661838  0.69718554  0.80139322  1  -0.485952  0  -0.137211  -0.356188  0  1.932352  0
O  O182  1  0.69718587  0.05661116  0.30139369  1  -0.486019  0  -0.137202  -0.356195  0  1.932396  0
O  O183  1  0.94338150  0.30281499  0.19860710  1  -0.485954  0  -0.137223  -0.356206  0  1.932463  0
O  O184  1  0.40172155  0.92271682  0.56343591  1  -0.468568  0  -0.122349  -0.338312  0  1.967192  0
O  O185  1  0.07728312  0.59827691  0.93656622  1  -0.46854  0  -0.12231  -0.338255  0  1.966992  0
O  O186  1  0.59827912  0.07728283  0.43656382  1  -0.468517  0  -0.122332  -0.338287  0  1.96717  0
O  O187  1  0.92271597  0.40172292  0.06343458  1  -0.468571  0  -0.122298  -0.338263  0  1.967013  0
O  O188  1  0.87376527  0.36831686  0.61204580  1  -1.207602  0  -0.377814  -0.671558  0  2.314476  0
O  O189  1  0.63168357  0.12623627  0.88795393  1  -1.207576  0  -0.37781  -0.671582  0  2.314432  0
O  O190  1  0.12623540  0.63168437  0.38795342  1  -1.2076  0  -0.37783  -0.671615  0  2.314427  0
O  O191  1  0.36831631  0.87376426  0.11204639  1  -1.207591  0  -0.377841  -0.671583  0  2.31442  0
O  O192  1  0.82565080  0.54330272  0.58677974  1  -1.200791  0  -0.394338  -0.663083  0  2.326942  0
O  O193  1  0.45669768  0.17435148  0.91321914  1  -1.200807  0  -0.394298  -0.66305  0  2.32696  0
O  O194  1  0.17434987  0.45669850  0.41321947  1  -1.2008  0  -0.394311  -0.663054  0  2.327018  0
O  O195  1  0.54330220  0.82564984  0.08678031  1  -1.200794  0  -0.394337  -0.66308  0  2.327006  0
O  O196  1  0.33624814  0.54883465  0.79350535  1  -0.485528  0  -0.132408  -0.347678  0  1.965989  0
O  O197  1  0.45116592  0.66375191  0.70649422  1  -0.485554  0  -0.132403  -0.347662  0  1.965993  0
O  O198  1  0.66375174  0.45116588  0.20649436  1  -0.48554  0  -0.132382  -0.347643  0  1.966014  0
O  O199  1  0.54883396  0.33624862  0.29350548  1  -0.485529  0  -0.132424  -0.347687  0  1.966  0
O  O200  1  0.08107356  0.75151942  0.51897058  1  -1.181096  0  -0.351677  -0.534229  0  2.343973  0
O  O201  1  0.24847917  0.91892933  0.98102750  1  -1.181169  0  -0.351619  -0.534128  0  2.344129  0
O  O202  1  0.91892947  0.24847920  0.48102689  1  -1.181182  0  -0.351621  -0.534161  0  2.344086  0
O  O203  1  0.75152229  0.08106633  0.01897572  1  -1.181217  0  -0.351679  -0.534212  0  2.344041  0
O  O204  1  0.96911953  0.84088408  0.37578567  1  -1.204841  0  -0.387061  -0.574772  0  2.384815  0
O  O205  1  0.15911400  0.03088117  0.12421524  1  -1.204792  0  -0.387041  -0.574809  0  2.38481  0
O  O206  1  0.03088114  0.15911557  0.62421406  1  -1.204865  0  -0.387045  -0.574763  0  2.38494  0
O  O207  1  0.84088431  0.96911718  0.87578569  1  -1.204865  0  -0.38707  -0.574798  0  2.384874  0
