# generated using pymatgen
data_SrH8C4N12O5
_symmetry_space_group_name_H-M   'P 1'
_cell_length_a   6.95083943
_cell_length_b   8.40472510
_cell_length_c   10.90285300
_cell_angle_alpha   95.41621935
_cell_angle_beta   108.57867330
_cell_angle_gamma   89.99886648
_symmetry_Int_Tables_number   1
_chemical_formula_structural   SrH8C4N12O5
_chemical_formula_sum   'Sr2 H16 C8 N24 O10'
_cell_volume   600.75005331
_cell_formula_units_Z   2
loop_
 _symmetry_equiv_pos_site_id
 _symmetry_equiv_pos_as_xyz
  1  'x, y, z'
loop_
 _atom_site_type_symbol
 _atom_site_label
 _atom_site_symmetry_multiplicity
 _atom_site_fract_x
 _atom_site_fract_y
 _atom_site_fract_z
 _atom_site_occupancy
 _atom_site_hle17_bader_spin_density
 _atom_site_hle17_ddec_charge
 _atom_site_hle17_ddec_spin_density
 _atom_site_hle17_ddec_sum_bond_order
 _atom_site_hle17_magmom
 _atom_site_hse06_10hf_bader_spin_density
 _atom_site_hse06_10hf_ddec_charge
 _atom_site_hse06_10hf_ddec_spin_density
 _atom_site_hse06_10hf_ddec_sum_bond_order
 _atom_site_hse06_10hf_magmom
 _atom_site_hse06_bader_spin_density
 _atom_site_hse06_ddec_charge
 _atom_site_hse06_ddec_spin_density
 _atom_site_hse06_ddec_sum_bond_order
 _atom_site_hse06_magmom
 _atom_site_pbe_bader_spin_density
 _atom_site_pbe_cm5_charge
 _atom_site_pbe_ddec_charge
 _atom_site_pbe_ddec_spin_density
 _atom_site_pbe_ddec_sum_bond_order
 _atom_site_pbe_magmom
Sr  Sr0  1  0.11277662  0.74998530  0.99998813  1  0  1.48501  0  1.193264  0  0  1.298376  0  1.582504  0  0  1.337436  0  1.542722  0  0  0.942244  1.269643  0  1.61055  0
Sr  Sr1  1  0.88722732  0.25001255  0.00001182  1  0  1.485003  0  1.193281  0  0  1.298389  0  1.582491  0  0  1.337442  0  1.542716  0  0  0.942239  1.269657  0  1.610541  0
H  H2  1  0.20447729  0.89320601  0.53227273  1  0  0.121967  0  0.959001  0  0  0.132849  0  1.038245  0  0  0.134842  0  1.035947  0  0  0.112739  0.130988  0  1.040136  0
H  H3  1  0.67183144  0.60685921  0.46761366  1  0  0.121168  0  0.960419  0  0  0.132226  0  1.039431  0  0  0.13435  0  1.036148  0  0  0.11277  0.130606  0  1.040898  0
H  H4  1  0.79552380  0.10679662  0.46772883  1  0  0.121954  0  0.959072  0  0  0.132823  0  1.038321  0  0  0.134831  0  1.036008  0  0  0.112731  0.13095  0  1.040242  0
H  H5  1  0.32816653  0.39314103  0.53238433  1  0  0.121198  0  0.960391  0  0  0.132234  0  1.039437  0  0  0.134354  0  1.036154  0  0  0.112757  0.130613  0  1.040906  0
H  H6  1  0.25338721  0.68529568  0.54631499  1  0  0.119345  0  0.950861  0  0  0.132234  0  1.025799  0  0  0.13371  0  1.024126  0  0  0.11416  0.130861  0  1.027087  0
H  H7  1  0.70663623  0.81477190  0.45353100  1  0  0.11846  0  0.952107  0  0  0.131157  0  1.027711  0  0  0.13273  0  1.025007  0  0  0.113637  0.129765  0  1.029027  0
H  H8  1  0.74661541  0.31470695  0.45368504  1  0  0.119378  0  0.950923  0  0  0.132253  0  1.025877  0  0  0.13373  0  1.024204  0  0  0.114183  0.13088  0  1.027161  0
H  H9  1  0.29336017  0.18522715  0.54646658  1  0  0.118496  0  0.952091  0  0  0.131161  0  1.027717  0  0  0.132735  0  1.025004  0  0  0.113631  0.129768  0  1.029034  0
H  H10  1  0.36268225  0.79259027  0.44845799  1  0  0.119444  0  0.964288  0  0  0.13147  0  1.03999  0  0  0.132496  0  1.039061  0  0  0.10774  0.130443  0  1.040713  0
H  H11  1  0.91373682  0.70755578  0.55149884  1  0  0.119019  0  0.963917  0  0  0.13159  0  1.039302  0  0  0.13273  0  1.03739  0  0  0.107558  0.130532  0  1.040023  0
H  H12  1  0.63731885  0.20741236  0.55154266  1  0  0.119447  0  0.964299  0  0  0.131478  0  1.039999  0  0  0.132506  0  1.039068  0  0  0.107739  0.130452  0  1.040718  0
H  H13  1  0.08626119  0.29244566  0.44850108  1  0  0.119023  0  0.96397  0  0  0.131592  0  1.039333  0  0  0.132732  0  1.037415  0  0  0.107546  0.130535  0  1.040053  0
H  H14  1  0.55917060  0.66356699  0.96890514  1  0  0.423284  0  0.862529  0  0  0.394509  0  0.930497  0  0  0.403912  0  0.916829  0  0  0.306527  0.387784  0  0.940305  0
H  H15  1  0.59010727  0.83604174  0.03102697  1  0  0.423142  0  0.8625  0  0  0.394249  0  0.930747  0  0  0.403664  0  0.917048  0  0  0.306001  0.387536  0  0.940527  0
H  H16  1  0.44082883  0.33643206  0.03109490  1  0  0.42329  0  0.862516  0  0  0.394509  0  0.930497  0  0  0.403917  0  0.916818  0  0  0.306505  0.387784  0  0.940305  0
H  H17  1  0.40989221  0.16395850  0.96897316  1  0  0.423156  0  0.862492  0  0  0.394267  0  0.930722  0  0  0.403682  0  0.917025  0  0  0.305981  0.387554  0  0.940501  0
C  C18  1  0.31628857  0.80062453  0.53597290  1  0  -0.192037  0  3.596298  0  0  -0.310361  0  3.84406  0  0  -0.304063  0  3.849827  0  0  -0.132703  -0.312328  0  3.840637  0
C  C19  1  0.77995144  0.69945873  0.46392239  1  0  -0.190504  0  3.598328  0  0  -0.309734  0  3.846829  0  0  -0.294331  0  3.857098  0  0  -0.13246  -0.311773  0  3.843284  0
C  C20  1  0.68371399  0.19937691  0.46402796  1  0  -0.192093  0  3.596474  0  0  -0.310398  0  3.844245  0  0  -0.304124  0  3.850016  0  0  -0.132731  -0.312365  0  3.840815  0
C  C21  1  0.22004501  0.30054152  0.53607620  1  0  -0.190596  0  3.598431  0  0  -0.30975  0  3.846832  0  0  -0.294356  0  3.85714  0  0  -0.132429  -0.311788  0  3.843284  0
C  C22  1  0.61498709  0.74235510  0.73087506  1  0  0.414534  0  3.797282  0  0  0.360794  0  4.087287  0  0  0.381962  0  4.095689  0  0  0.345922  0.348188  0  4.081031  0
C  C23  1  0.88412942  0.75769522  0.26913158  1  0  0.414887  0  3.799638  0  0  0.360768  0  4.089568  0  0  0.390728  0  4.097743  0  0  0.346551  0.348083  0  4.08392  0
C  C24  1  0.38501386  0.25764394  0.26912620  1  0  0.414504  0  3.797318  0  0  0.360762  0  4.087333  0  0  0.38194  0  4.095719  0  0  0.345926  0.348175  0  4.081054  0
C  C25  1  0.11587001  0.24230382  0.73086754  1  0  0.414887  0  3.799621  0  0  0.360771  0  4.089558  0  0  0.390732  0  4.097729  0  0  0.346546  0.348085  0  4.083906  0
N  N26  1  0.59395653  0.58143291  0.69606987  1  0  -0.382949  0  2.86897  0  0  -0.392178  0  3.170273  0  0  -0.405742  0  3.174423  0  0  -0.211398  -0.383051  0  3.166734  0
N  N27  1  0.89787846  0.91861995  0.30392206  1  0  -0.383681  0  2.868512  0  0  -0.392325  0  3.168887  0  0  -0.405396  0  3.169794  0  0  -0.211606  -0.388203  0  3.160647  0
N  N28  1  0.40604442  0.41856613  0.30393140  1  0  -0.383008  0  2.868993  0  0  -0.392237  0  3.170302  0  0  -0.405805  0  3.17445  0  0  -0.21145  -0.383115  0  3.166758  0
N  N29  1  0.10212254  0.08138029  0.69607838  1  0  -0.383675  0  2.868523  0  0  -0.392329  0  3.16891  0  0  -0.405398  0  3.169812  0  0  -0.211611  -0.388212  0  3.160663  0
N  N30  1  0.48911579  0.84143346  0.65185843  1  0  0.016307  0  3.492935  0  0  0.140681  0  3.67508  0  0  0.121986  0  3.70373  0  0  -0.113121  0.148877  0  3.659812  0
N  N31  1  0.83711397  0.65863043  0.34811861  1  0  0.016717  0  3.493426  0  0  0.141561  0  3.67529  0  0  0.09455  0  3.740155  0  0  -0.112622  0.149664  0  3.660102  0
N  N32  1  0.51088677  0.15856798  0.34814334  1  0  0.016373  0  3.493073  0  0  0.140757  0  3.675197  0  0  0.122063  0  3.703846  0  0  -0.113117  0.148948  0  3.659923  0
N  N33  1  0.16288551  0.34136981  0.65188152  1  0  0.016714  0  3.493464  0  0  0.141544  0  3.675323  0  0  0.094528  0  3.740194  0  0  -0.11263  0.149646  0  3.66013  0
N  N34  1  0.69792407  0.98807443  0.80579720  1  0  -0.088144  0  3.035556  0  0  -0.071454  0  3.347593  0  0  -0.072279  0  3.358137  0  0  -0.098246  -0.070678  0  3.339979  0
N  N35  1  0.89213142  0.51195646  0.19423297  1  0  -0.088908  0  3.03636  0  0  -0.072025  0  3.348419  0  0  -0.072135  0  3.355337  0  0  -0.098575  -0.071285  0  3.34071  0
N  N36  1  0.30207692  0.01192580  0.19420507  1  0  -0.088113  0  3.035439  0  0  -0.071425  0  3.347477  0  0  -0.07225  0  3.358021  0  0  -0.098238  -0.070647  0  3.339864  0
N  N37  1  0.10786801  0.48804259  0.80576706  1  0  -0.088915  0  3.036364  0  0  -0.072032  0  3.348425  0  0  -0.072142  0  3.355343  0  0  -0.098557  -0.071291  0  3.340712  0
N  N38  1  0.54337239  0.99375693  0.70027291  1  0  -0.069863  0  2.859703  0  0  -0.086132  0  3.137668  0  0  -0.081055  0  3.148691  0  0  -0.061536  -0.087779  0  3.13065  0
N  N39  1  0.84298542  0.50630475  0.29973511  1  0  -0.068871  0  2.85983  0  0  -0.085547  0  3.138039  0  0  -0.071534  0  3.154427  0  0  -0.061693  -0.087384  0  3.131242  0
N  N40  1  0.45663169  0.00624451  0.29972918  1  0  -0.069915  0  2.859726  0  0  -0.086184  0  3.137694  0  0  -0.08111  0  3.14872  0  0  -0.061559  -0.087833  0  3.130682  0
N  N41  1  0.15701249  0.49369430  0.70026370  1  0  -0.068863  0  2.859831  0  0  -0.085539  0  3.138038  0  0  -0.071525  0  3.154431  0  0  -0.061709  -0.087377  0  3.13124  0
N  N42  1  0.74754720  0.83514825  0.82810294  1  0  -0.38327  0  3.057671  0  0  -0.351207  0  3.349349  0  0  -0.36469  0  3.360805  0  0  -0.254835  -0.342426  0  3.341264  0
N  N43  1  0.91951343  0.66487425  0.17192502  1  0  -0.383913  0  3.059175  0  0  -0.351847  0  3.350936  0  0  -0.364565  0  3.358546  0  0  -0.255305  -0.342995  0  3.342564  0
N  N44  1  0.25245375  0.16485079  0.17189833  1  0  -0.38324  0  3.057676  0  0  -0.351163  0  3.349332  0  0  -0.364647  0  3.360783  0  0  -0.254793  -0.342389  0  3.341243  0
N  N45  1  0.08048605  0.33512599  0.82807512  1  0  -0.383889  0  3.059177  0  0  -0.35182  0  3.350927  0  0  -0.364536  0  3.358537  0  0  -0.255299  -0.34297  0  3.342552  0
N  N46  1  0.66595333  0.48653798  0.78732579  1  0  0.603112  0  4.056676  0  0  0.637774  0  4.341589  0  0  0.661812  0  4.352702  0  0  0.10971  0.621571  0  4.334094  0
N  N47  1  0.87859511  0.01348186  0.21263666  1  0  0.603146  0  4.056464  0  0  0.637936  0  4.340953  0  0  0.661872  0  4.352253  0  0  0.109681  0.636839  0  4.31157  0
N  N48  1  0.33404609  0.51346107  0.21267425  1  0  0.603079  0  4.056706  0  0  0.637744  0  4.341621  0  0  0.661783  0  4.352737  0  0  0.109691  0.621541  0  4.334127  0
N  N49  1  0.12140437  0.98651838  0.78736256  1  0  0.603083  0  4.056433  0  0  0.637868  0  4.340929  0  0  0.661806  0  4.352228  0  0  0.109661  0.636786  0  4.311524  0
O  O50  1  0.48556272  0.74977858  0.99994687  1  0  -0.852144  0  1.817602  0  0  -0.804916  0  2.013255  0  0  -0.822821  0  1.984895  0  0  -0.626295  -0.792177  0  2.033202  0
O  O51  1  0.51443671  0.25022047  0.00005408  1  0  -0.852162  0  1.817585  0  0  -0.804932  0  2.013225  0  0  -0.82284  0  1.984863  0  0  -0.626245  -0.792194  0  2.033173  0
O  O52  1  0.64745840  0.33799815  0.75603834  1  0  -0.445522  0  1.834347  0  0  -0.432038  0  2.070424  0  0  -0.448312  0  2.068464  0  0  -0.166022  -0.420676  0  2.071592  0
O  O53  1  0.89152077  0.16202658  0.24391728  1  0  -0.445464  0  1.834117  0  0  -0.431858  0  2.069747  0  0  -0.448303  0  2.068234  0  0  -0.165778  -0.425554  0  2.064532  0
O  O54  1  0.35254103  0.66200090  0.24396078  1  0  -0.445501  0  1.834366  0  0  -0.432013  0  2.070444  0  0  -0.448288  0  2.068486  0  0  -0.166008  -0.42065  0  2.071614  0
O  O55  1  0.10847866  0.83797247  0.75608276  1  0  -0.445454  0  1.834087  0  0  -0.431823  0  2.069691  0  0  -0.448271  0  2.068182  0  0  -0.16577  -0.425523  0  2.06447  0
O  O56  1  0.75293908  0.53752290  0.90888166  1  0  -0.57232  0  1.874344  0  0  -0.533336  0  2.102235  0  0  -0.551828  0  2.097365  0  0  -0.216553  -0.520095  0  2.105232  0
O  O57  1  0.84389619  0.96245062  0.09108666  1  0  -0.571937  0  1.873851  0  0  -0.533215  0  2.101944  0  0  -0.551711  0  2.097189  0  0  -0.216484  -0.52497  0  2.099267  0
O  O58  1  0.24706182  0.46247495  0.09111950  1  0  -0.57226  0  1.874333  0  0  -0.533301  0  2.102262  0  0  -0.551801  0  2.097395  0  0  -0.216522  -0.520061  0  2.105258  0
O  O59  1  0.15610324  0.03754843  0.90891338  1  0  -0.571916  0  1.873886  0  0  -0.533204  0  2.101996  0  0  -0.551702  0  2.097242  0  0  -0.216476  -0.524964  0  2.099308  0
