# generated using pymatgen
data_CdP2H56C36(N4O5)2
_symmetry_space_group_name_H-M   'P 1'
_cell_length_a   8.60699092
_cell_length_b   8.85407116
_cell_length_c   14.28728288
_cell_angle_alpha   91.43387140
_cell_angle_beta   92.71210133
_cell_angle_gamma   103.13155005
_symmetry_Int_Tables_number   1
_chemical_formula_structural   CdP2H56C36(N4O5)2
_chemical_formula_sum   'Cd1 P2 H56 C36 N8 O10'
_cell_volume   1058.41485536
_cell_formula_units_Z   1
loop_
 _symmetry_equiv_pos_site_id
 _symmetry_equiv_pos_as_xyz
  1  'x, y, z'
loop_
 _atom_site_type_symbol
 _atom_site_label
 _atom_site_symmetry_multiplicity
 _atom_site_fract_x
 _atom_site_fract_y
 _atom_site_fract_z
 _atom_site_occupancy
 _atom_site_hle17_bader_spin_density
 _atom_site_hle17_ddec_charge
 _atom_site_hle17_ddec_spin_density
 _atom_site_hle17_ddec_sum_bond_order
 _atom_site_hle17_magmom
 _atom_site_hse06_10hf_bader_spin_density
 _atom_site_hse06_10hf_ddec_charge
 _atom_site_hse06_10hf_ddec_spin_density
 _atom_site_hse06_10hf_ddec_sum_bond_order
 _atom_site_hse06_10hf_magmom
 _atom_site_hse06_bader_spin_density
 _atom_site_hse06_ddec_charge
 _atom_site_hse06_ddec_spin_density
 _atom_site_hse06_ddec_sum_bond_order
 _atom_site_hse06_magmom
 _atom_site_pbe_bader_spin_density
 _atom_site_pbe_cm5_charge
 _atom_site_pbe_ddec_charge
 _atom_site_pbe_ddec_spin_density
 _atom_site_pbe_ddec_sum_bond_order
 _atom_site_pbe_magmom
Cd  Cd0  1  0.00000059  0.50000080  0.00000010  1  0  1.208995  0  1.722516  0  0  1.030169  0  2.181455  0  0  1.078967  0  2.128562  0  0  0.794979  0.995433  0  2.215725  0
P  P1  1  0.86059908  0.38099880  0.20790652  1  0  1.618392  0  4.907315  0  0  1.435554  0  5.428085  0  0  1.495741  0  5.374606  0  0  0.416785  1.39396  0  5.464155  0
P  P2  1  0.13939852  0.61899947  0.79209359  1  0  1.618392  0  4.907201  0  0  1.435545  0  5.427998  0  0  1.495739  0  5.374505  0  0  0.416782  1.393935  0  5.464095  0
H  H3  1  0.07830485  0.07114054  0.23282520  1  0  0.101381  0  0.957719  0  0  0.12172  0  1.021208  0  0  0.122858  0  1.021704  0  0  0.08337  0.12048  0  1.021642  0
H  H4  1  0.92169508  0.92885776  0.76717497  1  0  0.101378  0  0.957758  0  0  0.121707  0  1.021254  0  0  0.122839  0  1.021758  0  0  0.083354  0.120467  0  1.021688  0
H  H5  1  0.25611400  0.17253504  0.29572692  1  0  0.103803  0  0.963265  0  0  0.124721  0  1.024038  0  0  0.125203  0  1.026472  0  0  0.083676  0.124419  0  1.022104  0
H  H6  1  0.74388530  0.82746558  0.70427397  1  0  0.103832  0  0.963261  0  0  0.124747  0  1.024034  0  0  0.12523  0  1.026466  0  0  0.083685  0.124444  0  1.0221  0
H  H7  1  0.17049909  0.26434842  0.20320260  1  0  0.123763  0  0.97397  0  0  0.142076  0  1.035828  0  0  0.143784  0  1.036119  0  0  0.089364  0.140967  0  1.0354  0
H  H8  1  0.82949878  0.73565102  0.79679823  1  0  0.123794  0  0.973918  0  0  0.142084  0  1.0358  0  0  0.143792  0  1.036093  0  0  0.089351  0.140978  0  1.035367  0
H  H9  1  0.92042761  0.17790685  0.45765037  1  0  0.100241  0  0.965643  0  0  0.115234  0  1.039837  0  0  0.117142  0  1.038377  0  0  0.084289  0.11395  0  1.040742  0
H  H10  1  0.07957089  0.82209027  0.54234975  1  0  0.100247  0  0.965624  0  0  0.115239  0  1.039824  0  0  0.117147  0  1.038363  0  0  0.084298  0.113955  0  1.040728  0
H  H11  1  0.10343516  0.11727384  0.44800675  1  0  0.108777  0  0.951408  0  0  0.132602  0  1.007644  0  0  0.133251  0  1.009171  0  0  0.090184  0.132263  0  1.006294  0
H  H12  1  0.89656413  0.88272676  0.55199344  1  0  0.108748  0  0.951409  0  0  0.132568  0  1.007655  0  0  0.133217  0  1.009182  0  0  0.090167  0.132226  0  1.006305  0
H  H13  1  0.92993460  0.02254287  0.37890033  1  0  0.106758  0  0.967435  0  0  0.128173  0  1.028938  0  0  0.12962  0  1.029084  0  0  0.088457  0.127055  0  1.029326  0
H  H14  1  0.07006534  0.97745543  0.62109984  1  0  0.106719  0  0.967442  0  0  0.128142  0  1.028947  0  0  0.129589  0  1.029092  0  0  0.088424  0.127024  0  1.02933  0
H  H15  1  0.16647987  0.48842574  0.31534353  1  0  0.115804  0  0.977787  0  0  0.134356  0  1.042029  0  0  0.136064  0  1.042104  0  0  0.091565  0.133373  0  1.041289  0
H  H16  1  0.83351799  0.51157369  0.68465660  1  0  0.11578  0  0.977824  0  0  0.134342  0  1.042056  0  0  0.13605  0  1.04213  0  0  0.091566  0.13336  0  1.041315  0
H  H17  1  0.24033578  0.39826156  0.41247232  1  0  0.106541  0  0.956202  0  0  0.130593  0  1.012841  0  0  0.131802  0  1.013418  0  0  0.088422  0.129503  0  1.012998  0
H  H18  1  0.75966273  0.60173557  0.58752780  1  0  0.106549  0  0.956204  0  0  0.130596  0  1.012853  0  0  0.131805  0  1.013431  0  0  0.08843  0.129508  0  1.013007  0
H  H19  1  0.05585839  0.45684648  0.41838916  1  0  0.105549  0  0.951665  0  0  0.124309  0  1.016751  0  0  0.125918  0  1.016248  0  0  0.085813  0.122889  0  1.017887  0
H  H20  1  0.94413921  0.54315180  0.58161165  1  0  0.105578  0  0.95157  0  0  0.124327  0  1.01669  0  0  0.125937  0  1.016186  0  0  0.085824  0.12291  0  1.017822  0
H  H21  1  0.58319409  0.31975235  0.33145884  1  0  0.114349  0  0.971703  0  0  0.132968  0  1.036614  0  0  0.134564  0  1.036764  0  0  0.090714  0.132013  0  1.035839  0
H  H22  1  0.41680520  0.68024826  0.66854135  1  0  0.114359  0  0.971666  0  0  0.132962  0  1.036598  0  0  0.134557  0  1.036754  0  0  0.090682  0.132007  0  1.035822  0
H  H23  1  0.53342603  0.45543842  0.41208620  1  0  0.103179  0  0.954591  0  0  0.126157  0  1.013402  0  0  0.127636  0  1.01327  0  0  0.086221  0.124853  0  1.014086  0
H  H24  1  0.46657559  0.54456221  0.58791546  1  0  0.103173  0  0.954605  0  0  0.126166  0  1.013397  0  0  0.127644  0  1.013265  0  0  0.086225  0.124864  0  1.01408  0
H  H25  1  0.72309324  0.40655879  0.42417635  1  0  0.110628  0  0.94977  0  0  0.128726  0  1.015973  0  0  0.130429  0  1.015391  0  0  0.086804  0.127256  0  1.017026  0
H  H26  1  0.27690696  0.59344068  0.57582455  1  0  0.11063  0  0.949764  0  0  0.128731  0  1.015964  0  0  0.130435  0  1.015381  0  0  0.086813  0.127264  0  1.017013  0
H  H27  1  0.62497905  0.67534819  0.18920264  1  0  0.107773  0  0.961632  0  0  0.124898  0  1.028611  0  0  0.125663  0  1.030682  0  0  0.083316  0.124251  0  1.027256  0
H  H28  1  0.37501934  0.32465357  0.81079964  1  0  0.10775  0  0.961626  0  0  0.124885  0  1.028601  0  0  0.125653  0  1.03067  0  0  0.083311  0.124238  0  1.027243  0
H  H29  1  0.47057047  0.60602723  0.26659137  1  0  0.106258  0  0.958024  0  0  0.127617  0  1.017843  0  0  0.128277  0  1.019775  0  0  0.085198  0.127256  0  1.016133  0
H  H30  1  0.52942908  0.39397455  0.73341164  1  0  0.106235  0  0.957982  0  0  0.127626  0  1.01777  0  0  0.12828  0  1.019708  0  0  0.085213  0.127266  0  1.016058  0
H  H31  1  0.53639898  0.47286902  0.19067786  1  0  0.123702  0  0.967995  0  0  0.144549  0  1.025609  0  0  0.146052  0  1.025643  0  0  0.092518  0.143485  0  1.025579  0
H  H32  1  0.46359850  0.52713389  0.80932441  1  0  0.123659  0  0.96797  0  0  0.1445  0  1.025611  0  0  0.146003  0  1.025645  0  0  0.092502  0.143444  0  1.025572  0
H  H33  1  0.85587024  0.69957025  0.41861779  1  0  0.105047  0  0.961797  0  0  0.125897  0  1.025539  0  0  0.12671  0  1.026434  0  0  0.08782  0.125153  0  1.025063  0
H  H34  1  0.14413190  0.30043270  0.58138181  1  0  0.105049  0  0.961823  0  0  0.125899  0  1.025564  0  0  0.126712  0  1.02646  0  0  0.087838  0.125155  0  1.025085  0
H  H35  1  0.66435718  0.74411971  0.40475078  1  0  0.104393  0  0.952949  0  0  0.124978  0  1.013418  0  0  0.125564  0  1.014959  0  0  0.085978  0.124339  0  1.012463  0
H  H36  1  0.33564471  0.25588209  0.59525020  1  0  0.104389  0  0.952961  0  0  0.124972  0  1.013423  0  0  0.125557  0  1.014964  0  0  0.085985  0.124333  0  1.012469  0
H  H37  1  0.80938108  0.80484505  0.32043547  1  0  0.107575  0  0.952624  0  0  0.128868  0  1.01222  0  0  0.130507  0  1.011952  0  0  0.089103  0.127165  0  1.013369  0
H  H38  1  0.19061911  0.19515441  0.67956403  1  0  0.107585  0  0.952623  0  0  0.128878  0  1.012213  0  0  0.130519  0  1.011944  0  0  0.089104  0.127178  0  1.013359  0
H  H39  1  0.99218212  0.15737264  0.88963432  1  0  0.075186  0  0.948971  0  0  0.082298  0  1.017306  0  0  0.084599  0  1.015315  0  0  0.115352  0.080497  0  1.018892  0
H  H40  1  0.00781770  0.84263029  0.11036591  1  0  0.075173  0  0.948945  0  0  0.082284  0  1.017284  0  0  0.084589  0  1.015291  0  0  0.115346  0.080485  0  1.018869  0
H  H41  1  0.15893294  0.95552342  0.88961969  1  0  0.132516  0  0.939134  0  0  0.139306  0  1.001882  0  0  0.14334  0  0.999748  0  0  0.118604  0.136664  0  1.002764  0
H  H42  1  0.84106778  0.04447835  0.11037916  1  0  0.132481  0  0.939148  0  0  0.139244  0  1.001915  0  0  0.143278  0  0.999782  0  0  0.118611  0.136606  0  1.002791  0
H  H43  1  0.49774700  0.26138638  0.08260374  1  0  0.147273  0  0.994517  0  0  0.151635  0  1.05892  0  0  0.155883  0  1.056172  0  0  0.118488  0.14896  0  1.060969  0
H  H44  1  0.50225462  0.73861424  0.91739512  1  0  0.147242  0  0.994556  0  0  0.151607  0  1.058951  0  0  0.155854  0  1.056204  0  0  0.118475  0.148933  0  1.060996  0
H  H45  1  0.32316428  0.45354447  0.06831282  1  0  0.092322  0  0.947436  0  0  0.102542  0  1.005929  0  0  0.105237  0  1.003749  0  0  0.119505  0.100948  0  1.00699  0
H  H46  1  0.67683734  0.54645616  0.93168673  1  0  0.0923  0  0.947469  0  0  0.102557  0  1.005924  0  0  0.105253  0  1.003741  0  0  0.119502  0.100963  0  1.006988  0
H  H47  1  0.27398399  0.76038679  0.08486418  1  0  0.39013  0  0.92977  0  0  0.343848  0  1.020198  0  0  0.355624  0  1.003281  0  0  0.276975  0.335705  0  1.03157  0
H  H48  1  0.72601711  0.23961152  0.91513532  1  0  0.390174  0  0.929703  0  0  0.343891  0  1.020134  0  0  0.355666  0  1.003218  0  0  0.277007  0.335751  0  1.031499  0
H  H49  1  0.27698890  0.72173248  0.97346579  1  0  0.416232  0  0.898861  0  0  0.377613  0  0.977962  0  0  0.388162  0  0.962423  0  0  0.286123  0.370445  0  0.988295  0
H  H50  1  0.72301129  0.27826698  0.02653371  1  0  0.416268  0  0.898811  0  0  0.377648  0  0.977911  0  0  0.388196  0  0.962375  0  0  0.286134  0.370477  0  0.98825  0
H  H51  1  0.46308845  0.97082302  0.82589244  1  0  0.085386  0  0.973019  0  0  0.088053  0  1.044849  0  0  0.090048  0  1.043775  0  0  0.115228  0.086422  0  1.046004  0
H  H52  1  0.53691032  0.02917526  0.17410700  1  0  0.08537  0  0.973023  0  0  0.088035  0  1.044847  0  0  0.09003  0  1.043775  0  0  0.115223  0.086406  0  1.046005  0
H  H53  1  0.37746091  0.91794017  0.65848585  1  0  0.130353  0  0.959238  0  0  0.13148  0  1.032685  0  0  0.135493  0  1.030162  0  0  0.116899  0.128683  0  1.03444  0
H  H54  1  0.62253902  0.08205812  0.34151362  1  0  0.13041  0  0.959201  0  0  0.131557  0  1.032618  0  0  0.135572  0  1.03009  0  0  0.116931  0.128761  0  1.034377  0
H  H55  1  0.81412720  0.23712737  0.59065709  1  0  0.113333  0  0.951148  0  0  0.124113  0  1.011183  0  0  0.127205  0  1.010402  0  0  0.113963  0.121837  0  1.012143  0
H  H56  1  0.18587481  0.76286980  0.40934383  1  0  0.113268  0  0.951137  0  0  0.124074  0  1.011145  0  0  0.127166  0  1.010363  0  0  0.113941  0.121797  0  1.012106  0
H  H57  1  0.87646525  0.29095329  0.76331111  1  0  0.093877  0  0.947756  0  0  0.099358  0  1.014573  0  0  0.10233  0  1.011913  0  0  0.119313  0.097153  0  1.016703  0
H  H58  1  0.12353559  0.70904386  0.23668907  1  0  0.093848  0  0.947756  0  0  0.099348  0  1.014562  0  0  0.102317  0  1.011911  0  0  0.119313  0.09714  0  1.016698  0
C  C59  1  0.04361066  0.24913370  0.33133777  1  0  0.464053  0  3.532554  0  0  0.482079  0  3.762935  0  0  0.491426  0  3.775206  0  0  0.078365  0.475723  0  3.75422  0
C  C60  1  0.95638784  0.75086343  0.66866235  1  0  0.463836  0  3.532936  0  0  0.482044  0  3.763007  0  0  0.491349  0  3.77535  0  0  0.078347  0.475684  0  3.754299  0
C  C61  1  0.14345863  0.18567448  0.26116904  1  0  -0.385941  0  3.646153  0  0  -0.465124  0  3.874407  0  0  -0.469527  0  3.884308  0  0  -0.252759  -0.461944  0  3.867601  0
C  C62  1  0.85654040  0.81432497  0.73883112  1  0  -0.385956  0  3.646207  0  0  -0.465155  0  3.874416  0  0  -0.469543  0  3.884334  0  0  -0.252738  -0.461975  0  3.867607  0
C  C63  1  0.99671280  0.13510198  0.40882491  1  0  -0.374012  0  3.658113  0  0  -0.458543  0  3.896237  0  0  -0.462054  0  3.90532  0  0  -0.248551  -0.455763  0  3.889556  0
C  C64  1  0.00328570  0.86489514  0.59117521  1  0  -0.373903  0  3.658131  0  0  -0.458495  0  3.896244  0  0  -0.462002  0  3.905353  0  0  -0.248521  -0.45572  0  3.889578  0
C  C65  1  0.13179517  0.40833626  0.37187320  1  0  -0.395825  0  3.665374  0  0  -0.478134  0  3.897806  0  0  -0.482085  0  3.906754  0  0  -0.250014  -0.474876  0  3.891573  0
C  C66  1  0.86820270  0.59166318  0.62812763  1  0  -0.395754  0  3.665389  0  0  -0.478119  0  3.8978  0  0  -0.482057  0  3.906754  0  0  -0.250021  -0.474866  0  3.891568  0
C  C67  1  0.69897152  0.55999563  0.31026560  1  0  0.467309  0  3.529712  0  0  0.481605  0  3.767804  0  0  0.490981  0  3.779926  0  0  0.079144  0.475066  0  3.759104  0
C  C68  1  0.30102893  0.44000500  0.68973532  1  0  0.46749  0  3.529321  0  0  0.481699  0  3.767546  0  0  0.491077  0  3.779664  0  0  0.079126  0.475153  0  3.758864  0
C  C69  1  0.63106283  0.42705915  0.37337173  1  0  -0.393035  0  3.66145  0  0  -0.47571  0  3.897902  0  0  -0.479248  0  3.905822  0  0  -0.249278  -0.472714  0  3.892372  0
C  C70  1  0.36893880  0.57294148  0.62662923  1  0  -0.39309  0  3.661292  0  0  -0.475742  0  3.897738  0  0  -0.479281  0  3.905655  0  0  -0.249254  -0.472744  0  3.892209  0
C  C71  1  0.57499976  0.57957215  0.23418907  1  0  -0.386432  0  3.635797  0  0  -0.46374  0  3.8636  0  0  -0.467826  0  3.872978  0  0  -0.251232  -0.460695  0  3.856863  0
C  C72  1  0.42499747  0.42042960  0.76581247  1  0  -0.386349  0  3.6357  0  0  -0.463681  0  3.863529  0  0  -0.467764  0  3.872909  0  0  -0.251205  -0.460646  0  3.856786  0
C  C73  1  0.76091219  0.71129249  0.36728220  1  0  -0.3747  0  3.659712  0  0  -0.457099  0  3.897686  0  0  -0.460529  0  3.906804  0  0  -0.247956  -0.454199  0  3.891615  0
C  C74  1  0.23908970  0.28870930  0.63271878  1  0  -0.374782  0  3.659708  0  0  -0.45716  0  3.897686  0  0  -0.460589  0  3.906804  0  0  -0.247984  -0.454259  0  3.891614  0
C  C75  1  0.10660115  0.17679556  0.92951766  1  0  0.13107  0  3.725467  0  0  0.101232  0  3.980772  0  0  0.107786  0  3.999574  0  0  0.049326  0.096568  0  3.96861  0
C  C76  1  0.89340073  0.82320623  0.07048192  1  0  0.131128  0  3.725303  0  0  0.10129  0  3.980602  0  0  0.107844  0  3.999402  0  0  0.049333  0.096625  0  3.968443  0
C  C77  1  0.19697818  0.06476849  0.93020459  1  0  -0.17526  0  3.669476  0  0  -0.195626  0  3.920206  0  0  -0.203122  0  3.940978  0  0  -0.071499  -0.188008  0  3.904064  0
C  C78  1  0.80302137  0.93523327  0.06979352  1  0  -0.17522  0  3.669494  0  0  -0.195579  0  3.920245  0  0  -0.203073  0  3.941019  0  0  -0.071484  -0.187963  0  3.904106  0
C  C79  1  0.34132073  0.09586530  0.98464545  1  0  0.195549  0  3.781856  0  0  0.19325  0  4.037838  0  0  0.197033  0  4.060106  0  0  0.10638  0.191594  0  4.020922  0
C  C80  1  0.65868258  0.90413766  0.01535349  1  0  0.195414  0  3.781901  0  0  0.193151  0  4.037824  0  0  0.196935  0  4.060095  0  0  0.106283  0.191494  0  4.020911  0
C  C81  1  0.38884784  0.23605431  0.03713360  1  0  -0.168965  0  3.642755  0  0  -0.189104  0  3.887777  0  0  -0.195988  0  3.908088  0  0  -0.071446  -0.186768  0  3.875313  0
C  C82  1  0.61115262  0.76394630  0.96286522  1  0  -0.16889  0  3.642693  0  0  -0.189034  0  3.887708  0  0  -0.195915  0  3.908018  0  0  -0.071448  -0.186703  0  3.875244  0
C  C83  1  0.29164425  0.34107917  0.03081480  1  0  0.142482  0  3.683358  0  0  0.116211  0  3.929244  0  0  0.122117  0  3.947485  0  0  0.052835  0.113169  0  3.917492  0
C  C84  1  0.70835763  0.65892263  0.96918548  1  0  0.142483  0  3.683445  0  0  0.11618  0  3.929334  0  0  0.122087  0  3.947575  0  0  0.052848  0.113144  0  3.917578  0
C  C85  1  0.53787334  0.03139409  0.77256385  1  0  0.132093  0  3.6918  0  0  0.105344  0  3.947257  0  0  0.110428  0  3.966667  0  0  0.05028  0.102471  0  3.933924  0
C  C86  1  0.46212659  0.96860421  0.22743562  1  0  0.132175  0  3.691764  0  0  0.105439  0  3.947198  0  0  0.11052  0  3.966608  0  0  0.05032  0.102563  0  3.933869  0
C  C87  1  0.49035956  0.99870914  0.67848512  1  0  -0.169383  0  3.667432  0  0  -0.186122  0  3.912901  0  0  -0.193252  0  3.934403  0  0  -0.070216  -0.1818  0  3.898658  0
C  C88  1  0.50964270  0.00128918  0.32151373  1  0  -0.169527  0  3.667489  0  0  -0.186273  0  3.912955  0  0  -0.193407  0  3.934456  0  0  -0.0703  -0.181951  0  3.898716  0
C  C89  1  0.59192196  0.07253624  0.61105425  1  0  0.179783  0  3.811418  0  0  0.182611  0  4.05991  0  0  0.185812  0  4.083435  0  0  0.099766  0.18083  0  4.04385  0
C  C90  1  0.40807823  0.92746322  0.38894525  1  0  0.179859  0  3.811377  0  0  0.18265  0  4.059923  0  0  0.185852  0  4.083446  0  0  0.099817  0.180873  0  4.043858  0
C  C91  1  0.73378627  0.17774659  0.64154434  1  0  -0.163545  0  3.680448  0  0  -0.182471  0  3.924826  0  0  -0.190579  0  3.947889  0  0  -0.068419  -0.177283  0  3.909861  0
C  C92  1  0.26621573  0.82225057  0.35845518  1  0  -0.163481  0  3.680416  0  0  -0.182407  0  3.924796  0  0  -0.190515  0  3.947859  0  0  -0.068381  -0.177218  0  3.909825  0
C  C93  1  0.76894934  0.20595908  0.73755077  1  0  0.118403  0  3.706796  0  0  0.093398  0  3.95825  0  0  0.099147  0  3.976067  0  0  0.050817  0.09011  0  3.946129  0
C  C94  1  0.23105124  0.79403691  0.26244939  1  0  0.118429  0  3.706803  0  0  0.093399  0  3.958263  0  0  0.099148  0  3.976078  0  0  0.050769  0.090112  0  3.946139  0
N  N95  1  0.15322482  0.31259656  0.97830581  1  0  -0.320887  0  3.22185  0  0  -0.248296  0  3.48527  0  0  -0.266246  0  3.503206  0  0  -0.3195  -0.238232  0  3.473536  0
N  N96  1  0.84677564  0.68740406  0.02169442  1  0  -0.32089  0  3.221861  0  0  -0.248298  0  3.485291  0  0  -0.266247  0  3.503225  0  0  -0.319483  -0.238239  0  3.473561  0
N  N97  1  0.42822493  0.97800379  0.98442905  1  0  -0.11931  0  2.99863  0  0  -0.084913  0  3.264974  0  0  -0.08444  0  3.270355  0  0  -0.121607  -0.08626  0  3.261069  0
N  N98  1  0.57177605  0.02199914  0.01556912  1  0  -0.119265  0  2.998527  0  0  -0.084845  0  3.264839  0  0  -0.084374  0  3.270225  0  0  -0.121557  -0.086187  0  3.260933  0
N  N99  1  0.67347646  0.13368693  0.80248165  1  0  -0.310524  0  3.124935  0  0  -0.252677  0  3.378139  0  0  -0.267279  0  3.395815  0  0  -0.301589  -0.242448  0  3.365321  0
N  N100  1  0.32652438  0.86631022  0.19751854  1  0  -0.310541  0  3.124895  0  0  -0.252695  0  3.378095  0  0  -0.267295  0  3.39577  0  0  -0.301557  -0.242463  0  3.365276  0
N  N101  1  0.56335889  0.04968121  0.51241768  1  0  -0.133469  0  2.953559  0  0  -0.109251  0  3.229494  0  0  -0.108  0  3.235363  0  0  -0.130334  -0.109921  0  3.224864  0
N  N102  1  0.43664221  0.95031710  0.48758183  1  0  -0.133499  0  2.953531  0  0  -0.109272  0  3.229478  0  0  -0.10802  0  3.235345  0  0  -0.130334  -0.109948  0  3.224849  0
O  O103  1  0.01067937  0.43827977  0.15555088  1  0  -0.885777  0  1.961643  0  0  -0.802378  0  2.236991  0  0  -0.831019  0  2.214856  0  0  -0.387086  -0.781892  0  2.250812  0
O  O104  1  0.98932082  0.56171969  0.84444932  1  0  -0.885755  0  1.961649  0  0  -0.802368  0  2.236996  0  0  -0.831015  0  2.214856  0  0  -0.387083  -0.781876  0  2.250812  0
O  O105  1  0.70834630  0.30208201  0.15430244  1  0  -0.877398  0  1.949979  0  0  -0.804056  0  2.205761  0  0  -0.829696  0  2.184074  0  0  -0.375164  -0.78573  0  2.220204  0
O  O106  1  0.29165299  0.69791860  0.84569775  1  0  -0.877398  0  1.949962  0  0  -0.804054  0  2.205768  0  0  -0.829694  0  2.184076  0  0  -0.375151  -0.785701  0  2.220173  0
O  O107  1  0.84262741  0.53390474  0.26696840  1  0  -0.601389  0  2.155824  0  0  -0.513987  0  2.400177  0  0  -0.536191  0  2.390332  0  0  -0.222662  -0.498958  0  2.406875  0
O  O108  1  0.15737305  0.46609587  0.73303042  1  0  -0.601449  0  2.155773  0  0  -0.514003  0  2.400113  0  0  -0.536206  0  2.390265  0  0  -0.22266  -0.498972  0  2.40682  0
O  O109  1  0.89000323  0.25724727  0.28458037  1  0  -0.596449  0  2.144632  0  0  -0.507739  0  2.384094  0  0  -0.530067  0  2.37417  0  0  -0.222041  -0.49291  0  2.391311  0
O  O110  1  0.10999580  0.74275218  0.71541979  1  0  -0.596415  0  2.144657  0  0  -0.50772  0  2.384027  0  0  -0.530038  0  2.374114  0  0  -0.222034  -0.492887  0  2.391246  0
O  O111  1  0.24078929  0.67849628  0.03406692  1  0  -0.853451  0  1.959381  0  0  -0.790092  0  2.182794  0  0  -0.811783  0  2.147801  0  0  -0.593116  -0.774807  0  2.204285  0
O  O112  1  0.75921350  0.32150436  0.96593267  1  0  -0.853536  0  1.959313  0  0  -0.790191  0  2.182757  0  0  -0.811871  0  2.147741  0  0  -0.593157  -0.774903  0  2.204246  0
