# generated using pymatgen
data_CuH19C12S(NO2)2
_symmetry_space_group_name_H-M   'P 1'
_cell_length_a   8.23766254
_cell_length_b   8.45262146
_cell_length_c   10.70760828
_cell_angle_alpha   84.83271553
_cell_angle_beta   83.55785670
_cell_angle_gamma   85.92973105
_symmetry_Int_Tables_number   1
_chemical_formula_structural   CuH19C12S(NO2)2
_chemical_formula_sum   'Cu2 H38 C24 S2 N4 O8'
_cell_volume   736.45322617
_cell_formula_units_Z   2
loop_
 _symmetry_equiv_pos_site_id
 _symmetry_equiv_pos_as_xyz
  1  'x, y, z'
loop_
 _atom_site_type_symbol
 _atom_site_label
 _atom_site_symmetry_multiplicity
 _atom_site_fract_x
 _atom_site_fract_y
 _atom_site_fract_z
 _atom_site_occupancy
 _atom_site_pbe_cm5_charge
 _atom_site_pbe_ddec_charge
 _atom_site_pbe_ddec_spin_density
 _atom_site_pbe_ddec_sum_bond_order
 _atom_site_pbe_magmom
Cu  Cu0  1  0.04583009  0.03280771  0.87700782  1  0.655972  0.730904  0.000634  2.341003  -0.001
Cu  Cu1  1  0.95413834  0.96718462  0.12306850  1  0.655603  0.730281  -0.000567  2.340961  0.001
H  H2  1  0.92284403  0.50291904  0.89994118  1  0.105589  0.169572  -1e-06  0.994808  0.0
H  H3  1  0.07714293  0.49706852  0.10005804  1  0.105657  0.169675  0.0  0.994758  0.0
H  H4  1  0.74789170  0.52875983  0.01285272  1  0.095151  0.148711  1e-06  1.011292  0.0
H  H5  1  0.25210386  0.47126235  0.98714967  1  0.095139  0.148688  -0.0  1.011294  0.0
H  H6  1  0.74275435  0.60246970  0.84999639  1  0.091539  0.134785  -0.0  1.039351  0.0
H  H7  1  0.25722969  0.39752499  0.15000539  1  0.091638  0.134892  1e-06  1.039191  0.0
H  H8  1  0.49986158  0.72180096  0.95015401  1  0.094637  0.148121  -0.0  1.017357  0.0
H  H9  1  0.50012416  0.27818299  0.04983158  1  0.094579  0.148072  1e-06  1.017454  0.0
H  H10  1  0.43145385  0.66679640  0.11245522  1  0.093077  0.14644  1e-06  1.030103  0.0
H  H11  1  0.56854441  0.33320316  0.88753923  1  0.093022  0.146372  -0.0  1.030168  0.0
H  H12  1  0.52409095  0.84961243  0.06916970  1  0.106174  0.174205  0.0  0.978046  0.0
H  H13  1  0.47590984  0.15038236  0.93081084  1  0.106206  0.174248  -0.0  0.978001  0.0
H  H14  1  0.16910510  0.29711107  0.39617372  1  0.102335  0.139334  -0.0  1.031567  0.0
H  H15  1  0.83089875  0.70289569  0.60382059  1  0.102354  0.139388  0.0  1.031574  0.0
H  H16  1  0.97049254  0.45005258  0.58989619  1  0.085107  0.120585  -0.0  1.039439  0.0
H  H17  1  0.02953503  0.54996630  0.41010334  1  0.085113  0.12058  0.0  1.03957  0.0
H  H18  1  0.12023864  0.43231421  0.69855559  1  0.088538  0.130042  -0.0  1.034853  0.0
H  H19  1  0.87977522  0.56767719  0.30145756  1  0.088537  0.130061  0.0  1.03481  0.0
H  H20  1  0.93465196  0.33707510  0.73781893  1  0.095776  0.145314  -0.0  1.044571  0.0
H  H21  1  0.06535176  0.66293284  0.26217250  1  0.095764  0.145236  0.0  1.044584  0.0
H  H22  1  0.28670114  0.03615632  0.27267373  1  0.101371  0.158593  0.0  0.989123  0.0
H  H23  1  0.71330541  0.96384688  0.72732058  1  0.101369  0.158564  -0.0  0.989077  0.0
H  H24  1  0.42590411  0.92519194  0.36760714  1  0.092025  0.129398  0.0  1.007989  0.0
H  H25  1  0.57409792  0.07480647  0.63238889  1  0.092036  0.129375  -0.0  1.007976  0.0
H  H26  1  0.23247052  0.85311330  0.35123126  1  0.097619  0.143552  0.0  1.018104  0.0
H  H27  1  0.76752976  0.14689224  0.64876348  1  0.097619  0.143527  -0.0  1.018129  0.0
H  H28  1  0.19259486  0.74134009  0.55218801  1  0.107029  0.085777  -0.0  1.007255  0.0
H  H29  1  0.80740931  0.25866310  0.44780933  1  0.107086  0.085921  0.0  1.007201  0.0
H  H30  1  0.13914537  0.78032643  0.71192516  1  0.115241  0.109794  -0.0  1.024582  0.0
H  H31  1  0.86085840  0.21968152  0.28806907  1  0.115293  0.109908  0.0  1.024433  0.0
H  H32  1  0.48630311  0.81529318  0.57274622  1  0.090976  0.091537  0.0  1.041971  0.0
H  H33  1  0.51370433  0.18469933  0.42725532  1  0.091013  0.091575  -0.0  1.041923  0.0
H  H34  1  0.42308946  0.83782066  0.73493322  1  0.103029  0.125823  0.0  1.008003  0.0
H  H35  1  0.57691085  0.16218608  0.26506798  1  0.103002  0.125803  0.0  1.008059  0.0
H  H36  1  0.44235226  0.34852377  0.58003807  1  0.100743  0.117029  -0.0  0.984451  0.0
H  H37  1  0.55765029  0.65146043  0.41999818  1  0.100755  0.117035  0.0  0.9846  0.0
H  H38  1  0.31191622  0.50435253  0.52135060  1  0.093242  0.099238  -0.0  1.018762  0.0
H  H39  1  0.68808080  0.49562088  0.47867576  1  0.093262  0.099411  0.0  1.018584  0.0
C  C40  1  0.88042039  0.73967170  0.95713429  1  0.21329  0.667355  0.0  4.121676  0.0
C  C41  1  0.11957884  0.26033145  0.04286073  1  0.212962  0.667029  1e-06  4.121358  0.0
C  C42  1  0.81780908  0.58357603  0.92911651  1  -0.239708  -0.504509  -7e-06  3.850406  0.0
C  C43  1  0.18218166  0.41642585  0.07087756  1  -0.239825  -0.504647  -5e-06  3.850363  0.0
C  C44  1  0.10240567  0.22296820  0.60146523  1  0.088098  0.254583  -1e-06  4.053369  0.0
C  C45  1  0.89759972  0.77703380  0.39852741  1  0.088061  0.25451  0.0  4.053241  0.0
C  C46  1  0.16497743  0.20664711  0.47477839  1  -0.128267  -0.364344  -1e-06  3.998  0.0
C  C47  1  0.83502795  0.79335489  0.52521425  1  -0.128317  -0.364419  0.0  3.99791  0.0
C  C48  1  0.22004552  0.04794159  0.46872348  1  0.093261  0.189131  -0.0  3.998157  0.0
C  C49  1  0.77996191  0.95206519  0.53126581  1  0.093284  0.18907  -0.0  3.998074  0.0
C  C50  1  0.02784067  0.36837236  0.65999465  1  -0.246463  -0.445652  -1e-06  3.952858  0.0
C  C51  1  0.97217192  0.63163329  0.34000449  1  -0.246396  -0.445499  0.0  3.953036  0.0
C  C52  1  0.29591434  0.96054144  0.36037789  1  -0.236189  -0.430269  -0.0  3.965307  0.0
C  C53  1  0.70408976  0.03946175  0.63961573  1  -0.236223  -0.430171  -0.0  3.965072  0.0
C  C54  1  0.22279455  0.81035163  0.62763720  1  -0.058927  -0.095171  -0.0  3.913243  0.0
C  C55  1  0.77721053  0.18965514  0.37235699  1  -0.058996  -0.095536  0.0  3.913436  0.0
C  C56  1  0.40081618  0.77504029  0.65368363  1  -0.155984  -0.209362  -0.0  3.932391  0.0
C  C57  1  0.59918572  0.22496170  0.34631869  1  -0.156044  -0.209371  -0.0  3.932454  0.0
C  C58  1  0.27851170  0.85010099  0.02155623  1  0.215724  0.672968  0.0  4.114058  0.0
C  C59  1  0.72148106  0.14989260  0.97844945  1  0.215742  0.672925  1e-06  4.114181  0.0
C  C60  1  0.44343705  0.76533980  0.03901406  1  -0.239248  -0.501635  -6e-06  3.840624  0.0
C  C61  1  0.55656033  0.23465259  0.96097165  1  -0.239157  -0.501504  -5e-06  3.840818  0.0
C  C62  1  0.43383590  0.47698801  0.55261060  1  -0.155279  -0.182474  -0.0  3.957781  0.0
C  C63  1  0.56616306  0.52299257  0.44741598  1  -0.155235  -0.182674  0.0  3.957872  0.0
S  S64  1  0.44769097  0.56698063  0.69873237  1  -0.024479  -0.027845  -0.0  2.633156  0.0
S  S65  1  0.55230012  0.43302249  0.30128586  1  -0.024537  -0.027846  1e-06  2.633036  0.0
N  N66  1  0.18908943  0.97720643  0.58774907  1  -0.150454  0.137193  -1e-06  3.69453  0.0
N  N67  1  0.81091926  0.02280036  0.41224197  1  -0.150501  0.137314  0.0  3.694566  0.0
N  N68  1  0.11771665  0.08201684  0.67009940  1  -0.251423  -0.304959  -2e-06  3.265864  0.0
N  N69  1  0.88229105  0.91798756  0.32989471  1  -0.251438  -0.304914  2e-06  3.266227  0.0
O  O70  1  0.94290903  0.82613165  0.86251134  1  -0.313573  -0.533797  3.7e-05  2.347829  0.0
O  O71  1  0.05708449  0.17389763  0.13747392  1  -0.313595  -0.533778  -4.8e-05  2.348128  0.0
O  O72  1  0.13298998  0.23053286  0.92775654  1  -0.306077  -0.513585  4.4e-05  2.341939  0.0
O  O73  1  0.86701811  0.76944532  0.07222451  1  -0.306397  -0.513845  -5.6e-05  2.34263  0.0
O  O74  1  0.25889093  0.91569881  0.91193237  1  -0.312205  -0.530684  3.7e-05  2.351599  0.0
O  O75  1  0.74106728  0.08429444  0.08805614  1  -0.312177  -0.530497  -4.8e-05  2.352048  0.0
O  O76  1  0.82522570  0.14908369  0.88107660  1  -0.306779  -0.525303  3.8e-05  2.393406  0.0
O  O77  1  0.17480445  0.85091616  0.11892314  1  -0.306746  -0.525151  -4.9e-05  2.393789  0.0
