# generated using pymatgen
data_CoH26C30(N2O3)2
_symmetry_space_group_name_H-M   'P 1'
_cell_length_a   8.74532668
_cell_length_b   8.59960549
_cell_length_c   8.87685924
_cell_angle_alpha   86.55256051
_cell_angle_beta   68.58509306
_cell_angle_gamma   80.21929116
_symmetry_Int_Tables_number   1
_chemical_formula_structural   CoH26C30(N2O3)2
_chemical_formula_sum   'Co1 H26 C30 N4 O6'
_cell_volume   612.47119065
_cell_formula_units_Z   1
loop_
 _symmetry_equiv_pos_site_id
 _symmetry_equiv_pos_as_xyz
  1  'x, y, z'
loop_
 _atom_site_type_symbol
 _atom_site_label
 _atom_site_symmetry_multiplicity
 _atom_site_fract_x
 _atom_site_fract_y
 _atom_site_fract_z
 _atom_site_occupancy
 _atom_site_pbe_cm5_charge
 _atom_site_pbe_ddec_charge
 _atom_site_pbe_ddec_spin_density
 _atom_site_pbe_ddec_sum_bond_order
 _atom_site_pbe_magmom
Co  Co0  1  0.50000011  0.49999485  0.00000140  1  0.613387  0.696623  -1.022295  2.862215  -0.947
H  H1  1  0.38479398  0.25999474  0.14339989  1  0.279506  0.361917  0.000328  0.997077  0.0
H  H2  1  0.61520312  0.74000188  0.85660263  1  0.279537  0.361967  0.000328  0.997009  0.0
H  H3  1  0.27426372  0.39797926  0.25896300  1  0.29288  0.349132  0.000378  0.973838  0.0
H  H4  1  0.72573364  0.60201493  0.74104289  1  0.292821  0.3491  0.000378  0.973865  0.0
H  H5  1  0.25140212  0.70758562  0.28602810  1  0.1425  0.114382  0.000283  1.006828  0.0
H  H6  1  0.74859879  0.29240967  0.71397543  1  0.142502  0.114385  0.000283  1.006798  0.0
H  H7  1  0.62063335  0.77482027  0.58920055  1  0.10494  0.111877  -1.4e-05  1.055829  0.0
H  H8  1  0.37935935  0.22518112  0.41080556  1  0.10498  0.111895  -1.4e-05  1.055809  0.0
H  H9  1  0.91646612  0.63612676  0.48884896  1  0.095436  0.090768  -0.000112  1.03699  0.0
H  H10  1  0.08352864  0.36387683  0.51115976  1  0.095438  0.090802  -0.000112  1.037022  0.0
H  H11  1  0.02376664  0.46327456  0.24456965  1  0.099301  0.109466  -0.000103  1.044702  0.0
H  H12  1  0.97622971  0.53672667  0.75543748  1  0.099308  0.109483  -0.000103  1.044637  0.0
H  H13  1  0.84607839  0.43501012  0.08827554  1  0.10922  0.124652  0.00013  1.044247  0.0
H  H14  1  0.15392122  0.56498512  0.91173182  1  0.109213  0.124615  0.00013  1.044227  0.0
H  H15  1  0.36944060  0.92779932  0.56589049  1  0.114254  0.100862  5.6e-05  0.975377  0.0
H  H16  1  0.63056812  0.07220435  0.43409548  1  0.114257  0.100833  5.6e-05  0.975426  0.0
H  H17  1  0.26212543  0.77157699  0.66411616  1  0.108729  0.090226  0.000167  1.022318  0.0
H  H18  1  0.73787299  0.22843730  0.33588197  1  0.108752  0.090243  0.000167  1.0223  0.0
H  H19  1  0.97517425  0.83552613  0.74502535  1  0.100543  0.10502  -0.000219  1.034973  0.0
H  H20  1  0.02483522  0.16448105  0.25496026  1  0.10055  0.105057  -0.000219  1.0349  0.0
H  H21  1  0.72152369  0.97396852  0.70517663  1  0.106303  0.118838  -8.3e-05  1.006176  0.0
H  H22  1  0.27848354  0.02603626  0.29481432  1  0.106361  0.118937  -8.3e-05  1.006221  0.0
H  H23  1  0.98391410  0.27422993  0.89808362  1  0.096939  0.09637  5.8e-05  1.069052  0.0
H  H24  1  0.01608617  0.72577145  0.10191204  1  0.096959  0.096421  5.8e-05  1.069026  0.0
H  H25  1  0.74078678  0.88647595  0.13955105  1  0.101555  0.106351  -3e-06  1.019235  0.0
H  H26  1  0.25921330  0.11352658  0.86044576  1  0.101547  0.106327  -3e-06  1.019223  0.0
C  C27  1  0.37158590  0.67792881  0.29848179  1  0.15661  0.113806  0.009906  3.9002  0.006
C  C28  1  0.62841151  0.32206542  0.70152183  1  0.156602  0.113817  0.009906  3.900131  0.006
C  C29  1  0.57153180  0.67593448  0.39543584  1  0.092186  0.085855  0.000171  4.014578  0.0
C  C30  1  0.42846452  0.32405859  0.60456932  1  0.092185  0.085736  0.000171  4.014863  0.0
C  C31  1  0.67017896  0.69878947  0.48266462  1  -0.10151  -0.180553  0.0006  4.019488  0.0
C  C32  1  0.32981667  0.30120828  0.51734174  1  -0.101555  -0.180532  0.0006  4.019624  0.0
C  C33  1  0.83352945  0.61956056  0.42640078  1  -0.102517  -0.098112  -0.000348  4.037962  -0.001
C  C34  1  0.16646709  0.38043952  0.57360520  1  -0.102623  -0.098312  -0.000348  4.03821  -0.001
C  C35  1  0.89501174  0.52285636  0.28754577  1  -0.102694  -0.106371  0.000957  4.017897  0.001
C  C36  1  0.10498896  0.47714005  0.71246005  1  -0.102648  -0.106302  0.000957  4.017947  0.001
C  C37  1  0.79689727  0.50466172  0.19843398  1  -0.085818  -0.138825  -0.000371  3.934799  -0.001
C  C38  1  0.20310113  0.49533358  0.80157265  1  -0.085781  -0.138718  -0.000372  3.934744  -0.001
C  C39  1  0.63179024  0.58101433  0.25415488  1  0.092951  0.150737  0.002001  3.992701  0.002
C  C40  1  0.36820974  0.41897861  0.74585017  1  0.092967  0.150761  0.002001  3.992649  0.002
C  C41  1  0.29675583  0.84051751  0.55190646  1  -0.043618  -0.096114  9.2e-05  3.902688  0.0
C  C42  1  0.70324491  0.15948978  0.44808660  1  -0.043609  -0.096093  9.2e-05  3.90283  0.0
C  C43  1  0.14376726  0.92180159  0.52326042  1  -0.014955  0.077555  -5.2e-05  3.998084  0.0
C  C44  1  0.85623884  0.07821146  0.47672952  1  -0.014922  0.077553  -5.2e-05  3.998342  0.0
C  C45  1  0.98656453  0.90751389  0.63728743  1  -0.089698  -0.125916  -0.000291  3.98998  0.0
C  C46  1  0.01344107  0.09249457  0.36269944  1  -0.089795  -0.126008  -0.000291  3.990104  0.0
C  C47  1  0.84344833  0.98538599  0.61460723  1  -0.092432  -0.1356  -0.000139  3.97461  0.0
C  C48  1  0.15655744  0.01462128  0.38537962  1  -0.092392  -0.135669  -0.000139  3.974514  0.0
C  C49  1  0.67560499  0.19075145  0.05179793  1  0.210272  0.547804  0.005212  4.183649  0.003
C  C50  1  0.32439290  0.80924874  0.94820195  1  0.210289  0.547765  0.00521  4.183723  0.003
C  C51  1  0.84322890  0.09206072  0.02314402  1  -0.017579  -0.039283  0.0024  3.970465  0.001
C  C52  1  0.15677056  0.90793707  0.97685541  1  -0.017586  -0.039266  0.0024  3.970438  0.001
C  C53  1  0.99069768  0.15413543  0.94351700  1  -0.089225  -0.105143  0.000766  3.973145  0.0
C  C54  1  0.00930282  0.84586348  0.05648317  1  -0.089226  -0.105204  0.000765  3.973239  0.0
C  C55  1  0.85449037  0.93610504  0.07914267  1  -0.083214  -0.085902  0.001202  3.946529  0.001
C  C56  1  0.14551172  0.06389151  0.92085592  1  -0.083161  -0.085831  0.001201  3.946408  0.001
N  N57  1  0.50263833  0.58607131  0.19564507  1  -0.356718  -0.304369  0.006328  3.590955  0.004
N  N58  1  0.49736059  0.41392048  0.80436037  1  -0.356731  -0.30436  0.006329  3.590993  0.004
N  N59  1  0.40740326  0.73581725  0.41887360  1  -0.238223  -0.010792  0.002289  3.724801  0.002
N  N60  1  0.59259494  0.26418054  0.58112739  1  -0.238192  -0.010738  0.00229  3.724889  0.002
O  O61  1  0.54541257  0.13388929  0.13276020  1  -0.318114  -0.54361  0.003046  2.186922  0.002
O  O62  1  0.45458963  0.86610602  0.86724064  1  -0.318141  -0.543587  0.003045  2.18692  0.002
O  O63  1  0.29534530  0.35552681  0.15259505  1  -0.571706  -0.720949  -0.029356  2.084291  -0.047
O  O64  1  0.70465036  0.64447097  0.84741018  1  -0.571669  -0.720989  -0.029356  2.084181  -0.047
O  O65  1  0.68003002  0.33099024  0.99099832  1  -0.302866  -0.512396  0.005869  2.492203  0.004
O  O66  1  0.31997248  0.66901216  0.00899994  1  -0.30286  -0.512399  0.00587  2.492225  0.004
