# generated using pymatgen
data_ZnH28C30(NO)4
_symmetry_space_group_name_H-M   'P 1'
_cell_length_a   7.88188288
_cell_length_b   8.11056469
_cell_length_c   22.47411508
_cell_angle_alpha   88.31902456
_cell_angle_beta   82.61963385
_cell_angle_gamma   83.10818378
_symmetry_Int_Tables_number   1
_chemical_formula_structural   ZnH28C30(NO)4
_chemical_formula_sum   'Zn2 H56 C60 N8 O8'
_cell_volume   1414.35312259
_cell_formula_units_Z   2
loop_
 _symmetry_equiv_pos_site_id
 _symmetry_equiv_pos_as_xyz
  1  'x, y, z'
loop_
 _atom_site_type_symbol
 _atom_site_label
 _atom_site_symmetry_multiplicity
 _atom_site_fract_x
 _atom_site_fract_y
 _atom_site_fract_z
 _atom_site_occupancy
 _atom_site_hle17_bader_spin_density
 _atom_site_hle17_ddec_charge
 _atom_site_hle17_ddec_spin_density
 _atom_site_hle17_ddec_sum_bond_order
 _atom_site_hle17_magmom
 _atom_site_hse06_10hf_bader_spin_density
 _atom_site_hse06_10hf_ddec_charge
 _atom_site_hse06_10hf_ddec_spin_density
 _atom_site_hse06_10hf_ddec_sum_bond_order
 _atom_site_hse06_10hf_magmom
 _atom_site_hse06_bader_spin_density
 _atom_site_hse06_ddec_charge
 _atom_site_hse06_ddec_spin_density
 _atom_site_hse06_ddec_sum_bond_order
 _atom_site_hse06_magmom
 _atom_site_pbe_bader_spin_density
 _atom_site_pbe_cm5_charge
 _atom_site_pbe_ddec_charge
 _atom_site_pbe_ddec_spin_density
 _atom_site_pbe_ddec_sum_bond_order
 _atom_site_pbe_magmom
Zn  Zn0  1  0.61573683  0.60034234  0.55699707  1  0  1.046006  0  1.843877  0  0  0.851374  0  2.326083  0  0  0.903809  0  2.264776  0  0  0.678339  0.814616  0  2.36824  0
Zn  Zn1  1  0.38425914  0.39966181  0.44300159  1  0  1.045994  0  1.843995  0  0  0.851317  0  2.326227  0  0  0.903746  0  2.264923  0  0  0.678332  0.814564  0  2.368385  0
H  H2  1  0.34104891  0.68152070  0.66701882  1  0  0.082957  0  0.951033  0  0  0.090528  0  1.017642  0  0  0.093207  0  1.01481  0  0  0.115909  0.088488  0  1.019805  0
H  H3  1  0.65894531  0.31847721  0.33298176  1  0  0.082905  0  0.951074  0  0  0.090473  0  1.017685  0  0  0.093147  0  1.014859  0  0  0.115902  0.088446  0  1.019807  0
H  H4  1  0.25870830  0.57620527  0.77252932  1  0  0.106838  0  0.954215  0  0  0.114948  0  1.018011  0  0  0.118732  0  1.016083  0  0  0.10613  0.112223  0  1.019534  0
H  H5  1  0.74130205  0.42379650  0.22747227  1  0  0.106829  0  0.954232  0  0  0.11495  0  1.018028  0  0  0.118736  0  1.016095  0  0  0.106124  0.112221  0  1.019551  0
H  H6  1  0.64291900  0.15473097  0.73201581  1  0  0.116281  0  0.938311  0  0  0.124867  0  0.999999  0  0  0.12882  0  0.99802  0  0  0.111924  0.121939  0  1.001718  0
H  H7  1  0.35708416  0.84526704  0.26797946  1  0  0.116294  0  0.938276  0  0  0.124902  0  0.999942  0  0  0.128855  0  0.997962  0  0  0.111926  0.121981  0  1.001654  0
H  H8  1  0.70666003  0.27764515  0.62938194  1  0  0.090153  0  0.935118  0  0  0.099392  0  0.995025  0  0  0.101959  0  0.993035  0  0  0.120234  0.097442  0  0.996592  0
H  H9  1  0.29332652  0.72235272  0.37061319  1  0  0.090134  0  0.935041  0  0  0.099358  0  0.994979  0  0  0.101922  0  0.992986  0  0  0.120187  0.097406  0  0.996548  0
H  H10  1  0.48438760  0.16906511  0.83066671  1  0  0.0569  0  0.932068  0  0  0.067621  0  0.996755  0  0  0.071056  0  0.993302  0  0  0.108162  0.065162  0  0.999276  0
H  H11  1  0.51562675  0.83093546  0.16933204  1  0  0.056929  0  0.932048  0  0  0.067632  0  0.99674  0  0  0.071066  0  0.993289  0  0  0.108179  0.065175  0  0.99926  0
H  H12  1  0.26320322  0.04531037  0.88379203  1  0  0.093232  0  0.961855  0  0  0.103716  0  1.0232  0  0  0.105921  0  1.023204  0  0  0.099324  0.102132  0  1.023301  0
H  H13  1  0.73682089  0.95468405  0.11621079  1  0  0.093205  0  0.961884  0  0  0.10361  0  1.02332  0  0  0.10582  0  1.023316  0  0  0.099262  0.102025  0  1.023423  0
H  H14  1  0.19329755  0.91399946  0.98217794  1  0  0.089782  0  0.972483  0  0  0.102679  0  1.033919  0  0  0.104846  0  1.033626  0  0  0.099645  0.101129  0  1.03419  0
H  H15  1  0.80672735  0.08599869  0.01782614  1  0  0.089817  0  0.97245  0  0  0.102703  0  1.033901  0  0  0.10487  0  1.033609  0  0  0.099686  0.101155  0  1.034166  0
H  H16  1  0.18803367  0.38483931  0.06694100  1  0  0.088914  0  0.972914  0  0  0.101384  0  1.035786  0  0  0.103605  0  1.035362  0  0  0.097782  0.099807  0  1.03613  0
H  H17  1  0.81196021  0.61517103  0.93305813  1  0  0.088881  0  0.972968  0  0  0.101425  0  1.03575  0  0  0.10365  0  1.035321  0  0  0.097791  0.099848  0  1.036093  0
H  H18  1  0.39478810  0.59419137  0.96888046  1  0  0.106776  0  0.940664  0  0  0.130359  0  0.999063  0  0  0.131093  0  0.999495  0  0  0.090595  0.129838  0  0.998727  0
H  H19  1  0.60521632  0.40581661  0.03111421  1  0  0.10679  0  0.940638  0  0  0.1304  0  0.999009  0  0  0.131134  0  0.99944  0  0  0.090591  0.129876  0  0.998675  0
H  H20  1  0.17955227  0.63493985  0.00482043  1  0  0.104128  0  0.961549  0  0  0.125166  0  1.02494  0  0  0.126092  0  1.025609  0  0  0.089303  0.124447  0  1.024534  0
H  H21  1  0.82045998  0.36506694  0.99517390  1  0  0.104062  0  0.961568  0  0  0.125128  0  1.024949  0  0  0.126055  0  1.025615  0  0  0.089288  0.124409  0  1.024542  0
H  H22  1  0.22336025  0.62310932  0.92489776  1  0  0.108496  0  0.965428  0  0  0.124691  0  1.036116  0  0  0.126607  0  1.034612  0  0  0.089364  0.123311  0  1.037145  0
H  H23  1  0.77664644  0.37688125  0.07509877  1  0  0.108531  0  0.965422  0  0  0.124724  0  1.036116  0  0  0.126641  0  1.034612  0  0  0.089346  0.123343  0  1.037145  0
H  H24  1  0.99793557  0.28528397  0.13155875  1  0  0.087263  0  0.97118  0  0  0.098264  0  1.035973  0  0  0.101187  0  1.03416  0  0  0.098496  0.096144  0  1.037389  0
H  H25  1  0.00206312  0.71471895  0.86844113  1  0  0.087247  0  0.971252  0  0  0.098296  0  1.035979  0  0  0.101218  0  1.034167  0  0  0.098517  0.096164  0  1.03741  0
H  H26  1  0.90864760  0.15097427  0.22814343  1  0  0.089046  0  0.977277  0  0  0.101558  0  1.038898  0  0  0.103576  0  1.038305  0  0  0.100691  0.10009  0  1.039425  0
H  H27  1  0.09135125  0.84902741  0.77185556  1  0  0.089009  0  0.977266  0  0  0.101519  0  1.038889  0  0  0.103537  0  1.038294  0  0  0.10068  0.100053  0  1.039415  0
H  H28  1  0.26668320  0.81713609  0.06731467  1  0  0.092045  0  0.966686  0  0  0.104712  0  1.028043  0  0  0.107504  0  1.027121  0  0  0.099559  0.102729  0  1.028768  0
H  H29  1  0.73332523  0.18287064  0.93268607  1  0  0.091995  0  0.966897  0  0  0.104707  0  1.028177  0  0  0.107495  0  1.02726  0  0  0.099574  0.102722  0  1.0289  0
H  H30  1  0.05884168  0.56306271  0.15600389  1  0  0.109079  0  0.94856  0  0  0.129108  0  1.014566  0  0  0.130517  0  1.013818  0  0  0.089932  0.128089  0  1.015078  0
H  H31  1  0.94115731  0.43694767  0.84399723  1  0  0.109095  0  0.948493  0  0  0.129111  0  1.014523  0  0  0.130518  0  1.013774  0  0  0.089923  0.128096  0  1.015032  0
H  H32  1  0.19408594  0.59484109  0.21029035  1  0  0.112683  0  0.961036  0  0  0.129597  0  1.027136  0  0  0.130969  0  1.027094  0  0  0.090698  0.128581  0  1.027181  0
H  H33  1  0.80591147  0.40516182  0.78971048  1  0  0.112715  0  0.961011  0  0  0.129632  0  1.027103  0  0  0.131003  0  1.027062  0  0  0.090703  0.128615  0  1.027149  0
H  H34  1  0.28197637  0.57618452  0.13287532  1  0  0.104021  0  0.947165  0  0  0.127359  0  1.00342  0  0  0.128739  0  1.003268  0  0  0.088758  0.126355  0  1.00353  0
H  H35  1  0.71802313  0.42381218  0.86712726  1  0  0.104053  0  0.947069  0  0  0.127385  0  1.003336  0  0  0.128762  0  1.003186  0  0  0.088762  0.126378  0  1.003449  0
H  H36  1  0.91959535  0.53123556  0.45552864  1  0  0.091844  0  0.943886  0  0  0.100054  0  1.006857  0  0  0.102833  0  1.004534  0  0  0.119154  0.097946  0  1.008738  0
H  H37  1  0.08040110  0.46876488  0.54446647  1  0  0.091862  0  0.943922  0  0  0.100099  0  1.006834  0  0  0.102881  0  1.004513  0  0  0.119169  0.097993  0  1.00871  0
H  H38  1  0.01119068  0.61901206  0.35143097  1  0  0.116643  0  0.950851  0  0  0.121217  0  1.01971  0  0  0.125161  0  1.017707  0  0  0.110362  0.118389  0  1.021258  0
H  H39  1  0.98879397  0.38098083  0.64856341  1  0  0.116639  0  0.950801  0  0  0.121201  0  1.019676  0  0  0.125141  0  1.017666  0  0  0.110368  0.11837  0  1.021232  0
H  H40  1  0.56899862  0.99748987  0.36875764  1  0  0.134609  0  0.985557  0  0  0.141213  0  1.050867  0  0  0.145539  0  1.04791  0  0  0.110292  0.138079  0  1.053133  0
H  H41  1  0.43100566  0.00250939  0.63123891  1  0  0.134478  0  0.985501  0  0  0.141098  0  1.050799  0  0  0.145424  0  1.047843  0  0  0.110257  0.137966  0  1.05306  0
H  H42  1  0.49856499  0.89475564  0.47214576  1  0  0.068908  0  0.96307  0  0  0.081609  0  1.022045  0  0  0.082767  0  1.021588  0  0  0.116744  0.080667  0  1.02254  0
H  H43  1  0.50143288  0.10525351  0.52785142  1  0  0.068857  0  0.963161  0  0  0.08153  0  1.022195  0  0  0.082688  0  1.021737  0  0  0.116731  0.080598  0  1.022682  0
H  H44  1  0.74214883  0.97279111  0.27385791  1  0  0.057343  0  0.922425  0  0  0.07004  0  0.984118  0  0  0.073316  0  0.980339  0  0  0.109258  0.06762  0  0.986948  0
H  H45  1  0.25785703  0.02721561  0.72614071  1  0  0.057377  0  0.922425  0  0  0.070066  0  0.98414  0  0  0.073326  0  0.980377  0  0  0.109255  0.067645  0  0.986971  0
H  H46  1  0.93496828  0.91290621  0.68234088  1  0  0.124708  0  0.968767  0  0  0.143025  0  1.029318  0  0  0.144764  0  1.029817  0  0  0.087989  0.1418  0  1.02899  0
H  H47  1  0.06500597  0.08709771  0.31766810  1  0  0.124771  0  0.968742  0  0  0.143075  0  1.029305  0  0  0.144814  0  1.029804  0  0  0.088032  0.141849  0  1.028978  0
H  H48  1  0.06543996  0.74285677  0.64282270  1  0  0.127461  0  0.965769  0  0  0.146459  0  1.028023  0  0  0.148449  0  1.027858  0  0  0.090969  0.145018  0  1.028208  0
H  H49  1  0.93454963  0.25714727  0.35718603  1  0  0.127489  0  0.965681  0  0  0.146425  0  1.028022  0  0  0.148413  0  1.027857  0  0  0.090943  0.144976  0  1.028218  0
H  H50  1  0.92588261  0.70609214  0.70946593  1  0  0.127353  0  0.934504  0  0  0.149469  0  0.989548  0  0  0.151995  0  0.988518  0  0  0.094651  0.147773  0  0.990188  0
H  H51  1  0.07410586  0.29391065  0.29054286  1  0  0.127347  0  0.934696  0  0  0.149546  0  0.989624  0  0  0.152072  0  0.988594  0  0  0.094706  0.147852  0  0.990261  0
H  H52  1  0.98778227  0.19043951  0.47926607  1  0  0.146219  0  0.960329  0  0  0.163135  0  1.022023  0  0  0.165739  0  1.021807  0  0  0.099865  0.161206  0  1.022319  0
H  H53  1  0.01220719  0.80954592  0.52073529  1  0  0.146178  0  0.960363  0  0  0.163134  0  1.022026  0  0  0.165721  0  1.021826  0  0  0.09987  0.161202  0  1.022323  0
H  H54  1  0.87047906  0.05474013  0.44303347  1  0  0.128138  0  0.964837  0  0  0.145852  0  1.025581  0  0  0.147217  0  1.027328  0  0  0.090833  0.144824  0  1.024483  0
H  H55  1  0.12950703  0.94525149  0.55696620  1  0  0.128083  0  0.964933  0  0  0.145842  0  1.025596  0  0  0.147207  0  1.027339  0  0  0.090819  0.144801  0  1.024511  0
H  H56  1  0.84976260  0.06415384  0.52315850  1  0  0.140205  0  0.935768  0  0  0.163732  0  0.987792  0  0  0.165828  0  0.987382  0  0  0.102201  0.162238  0  0.9881  0
H  H57  1  0.15021710  0.93583773  0.47684102  1  0  0.140237  0  0.935775  0  0  0.163778  0  0.987777  0  0  0.165876  0  0.987364  0  0  0.102232  0.162281  0  0.988086  0
C  C58  1  0.40358350  0.56569274  0.68395922  1  0  0.129616  0  3.712364  0  0  0.099075  0  3.964484  0  0  0.104959  0  3.984062  0  0  0.04759  0.095273  0  3.951307  0
C  C59  1  0.59641232  0.43430270  0.31604042  1  0  0.129659  0  3.712465  0  0  0.099149  0  3.964589  0  0  0.105029  0  3.984168  0  0  0.047574  0.095355  0  3.951419  0
C  C60  1  0.35906354  0.50762198  0.74187657  1  0  -0.14724  0  3.695634  0  0  -0.165993  0  3.940107  0  0  -0.172821  0  3.960986  0  0  -0.079604  -0.161675  0  3.926243  0
C  C61  1  0.64093980  0.49237477  0.25812361  1  0  -0.147116  0  3.695667  0  0  -0.165886  0  3.940121  0  0  -0.172713  0  3.961001  0  0  -0.079518  -0.161565  0  3.926255  0
C  C62  1  0.44588831  0.35781240  0.76102215  1  0  0.080156  0  3.808923  0  0  0.094603  0  4.043057  0  0  0.096928  0  4.065803  0  0  0.002964  0.093194  0  4.027661  0
C  C63  1  0.55411263  0.64218309  0.23897725  1  0  0.080119  0  3.809066  0  0  0.094557  0  4.043193  0  0  0.096875  0  4.065949  0  0  0.002963  0.093144  0  4.027807  0
C  C64  1  0.57290628  0.27261196  0.71993079  1  0  -0.150891  0  3.693727  0  0  -0.172787  0  3.948573  0  0  -0.179968  0  3.968564  0  0  -0.076208  -0.168157  0  3.935244  0
C  C65  1  0.42709561  0.72738604  0.28006499  1  0  -0.150976  0  3.693842  0  0  -0.172907  0  3.948697  0  0  -0.180086  0  3.968687  0  0  -0.076229  -0.168285  0  3.93537  0
C  C66  1  0.60920040  0.33996091  0.66268845  1  0  0.137877  0  3.690177  0  0  0.107256  0  3.943859  0  0  0.114226  0  3.961671  0  0  0.053458  0.102755  0  3.931786  0
C  C67  1  0.39078632  0.66003572  0.33730713  1  0  0.138013  0  3.689806  0  0  0.107434  0  3.943485  0  0  0.114406  0  3.961285  0  0  0.053505  0.102936  0  3.931417  0
C  C68  1  0.41041922  0.28974698  0.82168948  1  0  0.116661  0  3.686985  0  0  0.084739  0  3.946309  0  0  0.092723  0  3.957665  0  0  0.078637  0.0793  0  3.938498  0
C  C69  1  0.58958811  0.71024855  0.17831008  1  0  0.116558  0  3.687051  0  0  0.084673  0  3.94635  0  0  0.092658  0  3.95771  0  0  0.078586  0.079234  0  3.938539  0
C  C70  1  0.27063506  0.28927816  0.91894448  1  0  0.140117  0  3.815129  0  0  0.140054  0  4.060004  0  0  0.142079  0  4.085148  0  0  0.084933  0.138694  0  4.042951  0
C  C71  1  0.72938377  0.71071748  0.08105590  1  0  0.139954  0  3.815197  0  0  0.139884  0  4.060035  0  0  0.141905  0  4.085183  0  0  0.084859  0.138525  0  4.042978  0
C  C72  1  0.25404448  0.11830283  0.92431025  1  0  -0.143609  0  3.770735  0  0  -0.162121  0  4.021328  0  0  -0.165764  0  4.044462  0  0  -0.094377  -0.159629  0  4.005623  0
C  C73  1  0.74597707  0.88169157  0.07569313  1  0  -0.143625  0  3.770834  0  0  -0.162072  0  4.021395  0  0  -0.165718  0  4.04453  0  0  -0.094291  -0.159581  0  4.00569  0
C  C74  1  0.21406209  0.04444507  0.97990648  1  0  -0.100338  0  3.760893  0  0  -0.123097  0  4.010199  0  0  -0.125414  0  4.031784  0  0  -0.092128  -0.121407  0  3.995465  0
C  C75  1  0.78596232  0.95555681  0.02009715  1  0  -0.100288  0  3.760626  0  0  -0.122995  0  4.009883  0  0  -0.12531  0  4.031467  0  0  -0.092173  -0.121306  0  3.995147  0
C  C76  1  0.18942874  0.13822943  0.03268666  1  0  0.051497  0  3.8029  0  0  0.065678  0  4.037771  0  0  0.06535  0  4.062275  0  0  -0.011268  0.06588  0  4.0211  0
C  C77  1  0.81058496  0.86177610  0.96731518  1  0  0.051592  0  3.802904  0  0  0.065698  0  4.037907  0  0  0.065368  0  4.062411  0  0  -0.011198  0.065905  0  4.021229  0
C  C78  1  0.20553975  0.30905560  0.02679313  1  0  -0.169893  0  3.719645  0  0  -0.195049  0  3.96106  0  0  -0.198898  0  3.983413  0  0  -0.095204  -0.192353  0  3.945886  0
C  C79  1  0.79446036  0.69095605  0.97320526  1  0  -0.169967  0  3.719944  0  0  -0.195174  0  3.961362  0  0  -0.199028  0  3.983721  0  0  -0.095301  -0.192479  0  3.946186  0
C  C80  1  0.24383968  0.38709668  0.97128415  1  0  0.082279  0  3.724443  0  0  0.105735  0  3.960122  0  0  0.104743  0  3.985296  0  0  -0.006683  0.106315  0  3.943071  0
C  C81  1  0.75617067  0.61290511  0.02871343  1  0  0.082378  0  3.724384  0  0  0.105872  0  3.960018  0  0  0.10488  0  3.985196  0  0  -0.006627  0.106451  0  3.942968  0
C  C82  1  0.26082412  0.56972506  0.96738799  1  0  -0.32799  0  3.74284  0  0  -0.411137  0  3.983266  0  0  -0.412448  0  3.991997  0  0  -0.242504  -0.409943  0  3.977152  0
C  C83  1  0.73918495  0.43027672  0.03260831  1  0  -0.328018  0  3.742763  0  0  -0.411241  0  3.983168  0  0  -0.412553  0  3.991898  0  0  -0.24249  -0.410044  0  3.977053  0
C  C84  1  0.13816389  0.06061700  0.09133650  1  0  0.056844  0  3.801393  0  0  0.071484  0  4.034907  0  0  0.072136  0  4.059207  0  0  -0.010518  0.071052  0  4.018328  0
C  C85  1  0.86184151  0.93938348  0.90866488  1  0  0.056894  0  3.801467  0  0  0.071482  0  4.035093  0  0  0.072138  0  4.059388  0  0  -0.01047  0.071049  0  4.018512  0
C  C86  1  0.03674593  0.15292325  0.13789418  1  0  -0.110396  0  3.769032  0  0  -0.131956  0  4.017004  0  0  -0.13497  0  4.038758  0  0  -0.095744  -0.129781  0  4.002127  0
C  C87  1  0.96325627  0.84708218  0.86210729  1  0  -0.110413  0  3.769361  0  0  -0.131996  0  4.017329  0  0  -0.135011  0  4.039082  0  0  -0.09579  -0.129812  0  4.002461  0
C  C88  1  0.98275930  0.07681072  0.19194481  1  0  -0.156887  0  3.789866  0  0  -0.174494  0  4.039411  0  0  -0.1782  0  4.06275  0  0  -0.096347  -0.171939  0  4.023541  0
C  C89  1  0.01723892  0.92318598  0.80805559  1  0  -0.156791  0  3.789879  0  0  -0.174385  0  4.039413  0  0  -0.178089  0  4.062752  0  0  -0.096327  -0.171833  0  4.023537  0
C  C90  1  0.02631836  0.90538315  0.20174101  1  0  0.141513  0  3.821957  0  0  0.138582  0  4.070793  0  0  0.140567  0  4.096358  0  0  0.086144  0.137218  0  4.053443  0
C  C91  1  0.97369039  0.09462110  0.79825885  1  0  0.141289  0  3.822059  0  0  0.138395  0  4.070885  0  0  0.140377  0  4.096455  0  0  0.086053  0.137043  0  4.053516  0
C  C92  1  0.12926907  0.81006488  0.15562370  1  0  0.086304  0  3.72191  0  0  0.109088  0  3.961525  0  0  0.108276  0  3.986694  0  0  -0.005423  0.10958  0  3.944452  0
C  C93  1  0.87073666  0.18993313  0.84437635  1  0  0.086571  0  3.721676  0  0  0.109287  0  3.961351  0  0  0.108477  0  3.986517  0  0  -0.005346  0.109774  0  3.944276  0
C  C94  1  0.18397873  0.89021412  0.10206886  1  0  -0.170246  0  3.718164  0  0  -0.198393  0  3.96436  0  0  -0.202142  0  3.985489  0  0  -0.093723  -0.195765  0  3.950014  0
C  C95  1  0.81603258  0.10979014  0.89793355  1  0  -0.17032  0  3.718253  0  0  -0.198455  0  3.964458  0  0  -0.202205  0  3.985587  0  0  -0.093793  -0.195826  0  3.950111  0
C  C96  1  0.17000501  0.62598334  0.16401615  1  0  -0.328927  0  3.738978  0  0  -0.411054  0  3.977347  0  0  -0.412718  0  3.986264  0  0  -0.241876  -0.409596  0  3.9711  0
C  C97  1  0.82999623  0.37401960  0.83598495  1  0  -0.329099  0  3.738758  0  0  -0.411187  0  3.977125  0  0  -0.412846  0  3.986047  0  0  -0.241882  -0.40973  0  3.97088  0
C  C98  1  0.84485654  0.63413728  0.43500418  1  0  0.13603  0  3.679955  0  0  0.105845  0  3.93289  0  0  0.111684  0  3.951079  0  0  0.047729  0.101979  0  3.920696  0
C  C99  1  0.15514230  0.36586442  0.56499081  1  0  0.13588  0  3.679802  0  0  0.105735  0  3.932668  0  0  0.111569  0  3.95086  0  0  0.047692  0.101873  0  3.92047  0
C  C100  1  0.89645774  0.68371900  0.37653704  1  0  -0.132441  0  3.66465  0  0  -0.153096  0  3.913871  0  0  -0.158808  0  3.933612  0  0  -0.072943  -0.149453  0  3.900739  0
C  C101  1  0.10353888  0.31628019  0.62345941  1  0  -0.132338  0  3.664593  0  0  -0.153062  0  3.913792  0  0  -0.158746  0  3.93353  0  0  -0.072956  -0.149424  0  3.900672  0
C  C102  1  0.79713237  0.81555636  0.35066123  1  0  0.077172  0  3.806754  0  0  0.092884  0  4.039554  0  0  0.0946  0  4.062408  0  0  0.002902  0.091903  0  4.023981  0
C  C103  1  0.20286519  0.18444533  0.64933648  1  0  0.077196  0  3.806593  0  0  0.09305  0  4.039219  0  0  0.094732  0  4.062111  0  0  0.002956  0.092071  0  4.023647  0
C  C104  1  0.65150609  0.89363203  0.38575321  1  0  -0.153851  0  3.682222  0  0  -0.173704  0  3.927766  0  0  -0.180614  0  3.948041  0  0  -0.077366  -0.169215  0  3.914225  0
C  C105  1  0.34849178  0.10637712  0.61424531  1  0  -0.153691  0  3.682114  0  0  -0.173581  0  3.92764  0  0  -0.180481  0  3.947929  0  0  -0.077311  -0.169087  0  3.914092  0
C  C106  1  0.61068750  0.83593282  0.44396766  1  0  0.142391  0  3.707582  0  0  0.112268  0  3.959296  0  0  0.118591  0  3.978299  0  0  0.048248  0.108144  0  3.946409  0
C  C107  1  0.38931040  0.16406638  0.55603096  1  0  0.142439  0  3.707642  0  0  0.112294  0  3.959398  0  0  0.118617  0  3.978401  0  0  0.048242  0.108164  0  3.946516  0
C  C108  1  0.83960439  0.87770737  0.28961348  1  0  0.116783  0  3.707362  0  0  0.083323  0  3.968396  0  0  0.091426  0  3.980369  0  0  0.079879  0.077893  0  3.960065  0
C  C109  1  0.16039973  0.12229310  0.71038751  1  0  0.116638  0  3.707303  0  0  0.083116  0  3.968367  0  0  0.091241  0  3.98035  0  0  0.079792  0.077686  0  3.960037  0
C  C110  1  0.79221338  0.76464151  0.63348056  1  0  0.729637  0  3.885225  0  0  0.695105  0  4.171515  0  0  0.728349  0  4.164659  0  0  0.193089  0.672506  0  4.175239  0
C  C111  1  0.20776937  0.23534632  0.36652820  1  0  0.729975  0  3.884926  0  0  0.695292  0  4.171393  0  0  0.728535  0  4.164537  0  0  0.193205  0.672694  0  4.175118  0
C  C112  1  0.94061987  0.78379050  0.66858329  1  0  -0.454069  0  3.671943  0  0  -0.526747  0  3.898203  0  0  -0.533736  0  3.901207  0  0  -0.254515  -0.521779  0  3.895868  0
C  C113  1  0.05936205  0.21621348  0.33142489  1  0  -0.454239  0  3.672127  0  0  -0.52686  0  3.898365  0  0  -0.533846  0  3.901367  0  0  -0.254592  -0.521893  0  3.896039  0
C  C114  1  0.72036655  0.27395811  0.48315134  1  0  0.763586  0  3.846051  0  0  0.714771  0  4.146477  0  0  0.750342  0  4.136281  0  0  0.217882  0.690539  0  4.152682  0
C  C115  1  0.27962689  0.72603607  0.51684753  1  0  0.763725  0  3.845785  0  0  0.714877  0  4.146283  0  0  0.750408  0  4.136138  0  0  0.217986  0.690642  0  4.152491  0
C  C116  1  0.86614392  0.13630428  0.48117675  1  0  -0.469942  0  3.672411  0  0  -0.546304  0  3.907054  0  0  -0.554272  0  3.91012  0  0  -0.253486  -0.540675  0  3.904942  0
C  C117  1  0.13384377  0.86368488  0.51882287  1  0  -0.469912  0  3.672427  0  0  -0.546345  0  3.907091  0  0  -0.55428  0  3.910178  0  0  -0.253528  -0.540702  0  3.904992  0
N  N118  1  0.52671991  0.48382011  0.64475414  1  0  -0.308348  0  3.224292  0  0  -0.232727  0  3.484222  0  0  -0.250582  0  3.502274  0  0  -0.309321  -0.220701  0  3.471978  0
N  N119  1  0.47326745  0.51617155  0.35524191  1  0  -0.30842  0  3.224148  0  0  -0.232869  0  3.484153  0  0  -0.250707  0  3.502182  0  0  -0.309345  -0.220859  0  3.471921  0
N  N120  1  0.30446480  0.36679366  0.86297761  1  0  -0.312158  0  3.093001  0  0  -0.272255  0  3.359209  0  0  -0.284015  0  3.374822  0  0  -0.300023  -0.264065  0  3.34836  0
N  N121  1  0.69554237  0.63320312  0.13702239  1  0  -0.312015  0  3.093051  0  0  -0.272103  0  3.359223  0  0  -0.283862  0  3.374839  0  0  -0.299969  -0.263912  0  3.348369  0
N  N122  1  0.70280193  0.70752821  0.46849847  1  0  -0.335233  0  3.245599  0  0  -0.259287  0  3.514744  0  0  -0.277077  0  3.53072  0  0  -0.315549  -0.247172  0  3.503823  0
N  N123  1  0.29720298  0.29247602  0.53149844  1  0  -0.335236  0  3.245517  0  0  -0.259306  0  3.514674  0  0  -0.277097  0  3.530652  0  0  -0.315545  -0.247191  0  3.503756  0
N  N124  1  0.98124461  0.82780041  0.25670364  1  0  -0.313328  0  3.120788  0  0  -0.272155  0  3.389352  0  0  -0.28476  0  3.406326  0  0  -0.299812  -0.263254  0  3.377408  0
N  N125  1  0.01875391  0.17220376  0.74329490  1  0  -0.313164  0  3.12082  0  0  -0.271988  0  3.389379  0  0  -0.284589  0  3.406345  0  0  -0.299694  -0.263089  0  3.37743  0
O  O126  1  0.70362586  0.37001282  0.52760614  1  0  -0.666629  0  2.114944  0  0  -0.597659  0  2.403504  0  0  -0.625743  0  2.386849  0  0  -0.323974  -0.578046  0  2.414251  0
O  O127  1  0.29637937  0.62998894  0.47238856  1  0  -0.666755  0  2.114874  0  0  -0.597727  0  2.403419  0  0  -0.625799  0  2.386789  0  0  -0.32403  -0.578111  0  2.414157  0
O  O128  1  0.82397454  0.65285173  0.59210094  1  0  -0.679593  0  2.032222  0  0  -0.603797  0  2.296528  0  0  -0.635222  0  2.284365  0  0  -0.338816  -0.581635  0  2.30403  0
O  O129  1  0.17601665  0.34714987  0.40790329  1  0  -0.679859  0  2.032364  0  0  -0.603896  0  2.296582  0  0  -0.63532  0  2.284422  0  0  -0.338882  -0.581736  0  2.304084  0
O  O130  1  0.62312113  0.28151484  0.44167285  1  0  -0.654743  0  2.082584  0  0  -0.583839  0  2.366249  0  0  -0.611941  0  2.349334  0  0  -0.317893  -0.564238  0  2.377158  0
O  O131  1  0.37687437  0.71848309  0.55832633  1  0  -0.654825  0  2.082647  0  0  -0.583897  0  2.366312  0  0  -0.612001  0  2.349448  0  0  -0.317925  -0.564283  0  2.377207  0
O  O132  1  0.65031571  0.85092096  0.64645535  1  0  -0.649639  0  1.884782  0  0  -0.605922  0  2.099775  0  0  -0.628661  0  2.089998  0  0  -0.345311  -0.589798  0  2.105876  0
O  O133  1  0.34965858  0.14906303  0.35355827  1  0  -0.649718  0  1.884578  0  0  -0.605972  0  2.099659  0  0  -0.628716  0  2.089896  0  0  -0.345359  -0.58984  0  2.10574  0
