# generated using pymatgen
data_Tb2CuH28(C10O11)2
_symmetry_space_group_name_H-M   'P 1'
_cell_length_a   6.98657217
_cell_length_b   9.98900395
_cell_length_c   11.39129121
_cell_angle_alpha   107.86545587
_cell_angle_beta   101.72944130
_cell_angle_gamma   98.36281866
_symmetry_Int_Tables_number   1
_chemical_formula_structural   Tb2CuH28(C10O11)2
_chemical_formula_sum   'Tb2 Cu1 H28 C20 O22'
_cell_volume   722.19667975
_cell_formula_units_Z   1
loop_
 _symmetry_equiv_pos_site_id
 _symmetry_equiv_pos_as_xyz
  1  'x, y, z'
loop_
 _atom_site_type_symbol
 _atom_site_label
 _atom_site_symmetry_multiplicity
 _atom_site_fract_x
 _atom_site_fract_y
 _atom_site_fract_z
 _atom_site_occupancy
 _atom_site_hle17_ddec_charge
 _atom_site_hle17_ddec_spin_density
 _atom_site_hle17_ddec_sum_bond_order
 _atom_site_hle17_magmom
 _atom_site_hse06_10hf_ddec_charge
 _atom_site_hse06_10hf_ddec_spin_density
 _atom_site_hse06_10hf_ddec_sum_bond_order
 _atom_site_hse06_10hf_magmom
 _atom_site_hse06_ddec_charge
 _atom_site_hse06_ddec_spin_density
 _atom_site_hse06_ddec_sum_bond_order
 _atom_site_hse06_magmom
 _atom_site_pbe_cm5_charge
 _atom_site_pbe_ddec_charge
 _atom_site_pbe_ddec_spin_density
 _atom_site_pbe_ddec_sum_bond_order
 _atom_site_pbe_magmom
Tb  Tb0  1  0.63370655  0.71616079  0.09791240  1  2.215841  -6e-06  1.704254  0.0  2.147449  9.1e-05  2.019968  0.0  2.26893  4.8e-05  1.838169  0.0  1.495587  2.114197  0.000161  2.048497  0.0
Tb  Tb1  1  0.36630024  0.28383933  0.90209018  1  2.215862  -5e-06  1.704231  0.0  2.147457  9e-05  2.01999  0.0  2.268949  4.7e-05  1.838152  0.0  1.495613  2.114228  0.000161  2.048462  0.0
Cu  Cu2  1  0.99999578  0.00000037  0.50000034  1  0.995872  0.692261  1.603383  0.517  0.987302  0.784231  1.974661  0.635  1.077771  0.846418  1.910809  0.719  0.729882  0.924221  0.741148  2.029011  0.582
H  H3  1  0.03906986  0.90348019  0.14548578  1  0.453418  1.9e-05  0.792093  0.0  0.438723  1.3e-05  0.838447  0.0  0.447535  1.6e-05  0.829289  0.0  0.335551  0.432628  1.1e-05  0.845215  0.0
H  H4  1  0.96092510  0.09652443  0.85451233  1  0.453414  2e-05  0.792121  0.0  0.438723  1.3e-05  0.838472  0.0  0.447533  1.6e-05  0.829299  0.0  0.335559  0.432626  1.1e-05  0.845241  0.0
H  H5  1  0.06664294  0.85462925  0.26729537  1  0.44114  -0.000218  0.859617  0.0  0.403209  -0.000243  0.935487  0.0  0.415292  -0.00025  0.917305  0.0  0.298576  0.394824  -0.000218  0.948201  0.0
H  H6  1  0.93336002  0.14537746  0.73270514  1  0.441148  -0.000217  0.859608  0.0  0.403247  -0.000243  0.935425  0.0  0.415327  -0.00025  0.917248  0.0  0.29861  0.394859  -0.000217  0.94814  0.0
H  H7  1  0.52768523  0.00878846  0.14471652  1  0.459583  -1.9e-05  0.78657  0.0  0.44242  -1.1e-05  0.836046  0.0  0.451227  -1e-05  0.823406  0.0  0.339814  0.436208  -1.3e-05  0.845182  0.0
H  H8  1  0.47230367  0.99121073  0.85528197  1  0.459559  -1.7e-05  0.786567  0.0  0.4424  -1.1e-05  0.836058  0.0  0.451205  -1e-05  0.823421  0.0  0.339801  0.436188  -1.3e-05  0.845196  0.0
H  H9  1  0.66736238  0.01803342  0.27790549  1  0.444475  6.9e-05  0.849901  0.0  0.412609  0.000122  0.915222  0.0  0.423432  4.3e-05  0.899603  0.0  0.304517  0.405074  0.000214  0.926192  0.0
H  H10  1  0.33263805  0.98197011  0.72209206  1  0.44451  7.1e-05  0.84986  0.0  0.412643  0.000121  0.915179  0.0  0.423465  4.3e-05  0.899562  0.0  0.304535  0.405108  0.000215  0.92615  0.0
H  H11  1  0.29883727  0.71290873  0.23270459  1  0.436845  -8e-06  0.867946  0.0  0.407162  -4e-06  0.929398  0.0  0.4179  0.0  0.913795  0.0  0.298832  0.399677  -6e-06  0.940384  0.0
H  H12  1  0.70116830  0.28709260  0.76729292  1  0.436796  -9e-06  0.868025  0.0  0.407119  -4e-06  0.929465  0.0  0.417857  0.0  0.913863  0.0  0.298814  0.39963  -6e-06  0.940455  0.0
H  H13  1  0.24052993  0.56559162  0.10839411  1  0.443707  1e-06  0.859401  0.0  0.412726  1e-06  0.923454  0.0  0.42387  -1e-06  0.907362  0.0  0.300741  0.404952  2e-06  0.934798  0.0
H  H14  1  0.75948047  0.43440640  0.89160477  1  0.443748  1e-06  0.859328  0.0  0.412794  1e-06  0.923337  0.0  0.423937  -1e-06  0.907245  0.0  0.30079  0.40502  2e-06  0.934679  0.0
H  H15  1  0.43263315  0.59053550  0.34261970  1  0.11735  0.000852  0.943568  0.001  0.129224  0.00071  1.006974  0.001  0.130972  0.000467  1.006242  0.001  0.110058  0.127945  0.000872  1.007682  0.001
H  H16  1  0.56736076  0.40946588  0.65737736  1  0.117297  0.000854  0.94363  0.001  0.129176  0.00071  1.007046  0.001  0.130923  0.000466  1.00631  0.001  0.110026  0.127895  0.000872  1.007751  0.001
H  H17  1  0.61005808  0.59059671  0.47840102  1  0.110631  -0.00012  0.936599  0.0  0.129299  0.00011  0.992737  0.0  0.130193  2.5e-05  0.993794  0.0  0.107023  0.128726  0.000172  0.992153  0.0
H  H18  1  0.38993543  0.40940790  0.52159780  1  0.11062  -0.000117  0.936483  0.0  0.129282  0.000109  0.99265  0.0  0.130174  2.5e-05  0.993709  0.0  0.107017  0.128711  0.000172  0.992066  0.0
H  H19  1  0.51484113  0.64718233  0.67385452  1  0.128967  3.5e-05  0.970668  0.0  0.141903  -3e-05  1.03445  0.0  0.144052  -2.8e-05  1.034235  0.0  0.101654  0.140355  -1.1e-05  1.034613  0.0
H  H20  1  0.48515753  0.35282008  0.32614426  1  0.128989  2.8e-05  0.970605  0.0  0.141857  -3e-05  1.034457  0.0  0.144006  -2.8e-05  1.034243  0.0  0.101638  0.140311  -1.1e-05  1.034622  0.0
H  H21  1  0.32336856  0.75533593  0.69962262  1  0.128087  0.000231  0.98995  0.0  0.138999  0.000158  1.055422  0.0  0.142087  0.000116  1.053532  0.0  0.103026  0.136722  0.00023  1.05683  0.0
H  H22  1  0.67662607  0.24467183  0.30038075  1  0.128074  0.000219  0.990066  0.0  0.138974  0.000158  1.055548  0.0  0.142062  0.000117  1.053657  0.0  0.103022  0.136696  0.00023  1.056957  0.0
H  H23  1  0.98571614  0.53291170  0.19451551  1  0.124556  2.1e-05  0.932872  0.0  0.135439  1.2e-05  0.9986  0.0  0.137922  1.1e-05  0.997288  0.0  0.115041  0.133286  1.6e-05  1.000352  0.0
H  H24  1  0.01429036  0.46708304  0.80548461  1  0.124518  3e-05  0.932858  0.0  0.135388  1.1e-05  0.998592  0.0  0.137869  1.1e-05  0.997279  0.0  0.115011  0.133237  1.6e-05  1.00034  0.0
H  H25  1  0.89553211  0.46972976  0.30556054  1  0.115147  -3.1e-05  0.914191  0.0  0.134996  -2e-05  0.965859  0.0  0.136688  -1.4e-05  0.965367  0.0  0.108411  0.133868  -2.3e-05  0.966035  0.0
H  H26  1  0.10447726  0.53026925  0.69444289  1  0.115161  -2.3e-05  0.914177  0.0  0.134986  -2e-05  0.965874  0.0  0.136654  -1.4e-05  0.965408  0.0  0.108414  0.133858  -2.3e-05  0.966047  0.0
H  H27  1  0.16413134  0.16870983  0.25749351  1  0.13896  7.2e-05  0.958122  0.0  0.149574  7.9e-05  1.021562  0.0  0.153773  4.4e-05  1.017793  0.0  0.101189  0.146715  0.000115  1.02387  0.0
H  H28  1  0.83585265  0.83127432  0.74249748  1  0.139009  8.5e-05  0.958053  0.0  0.149575  7.9e-05  1.021566  0.0  0.153767  4.3e-05  1.017794  0.0  0.101192  0.146715  0.000115  1.023871  0.0
H  H29  1  0.00619247  0.26278451  0.35200832  1  0.124535  -4.7e-05  0.979919  0.0  0.136523  -1.5e-05  1.042951  0.0  0.139869  -2.8e-05  1.041098  0.0  0.094851  0.134179  6e-06  1.044097  0.0
H  H30  1  0.99379890  0.73719950  0.64798786  1  0.124538  -5e-05  0.979998  0.0  0.13656  -1.5e-05  1.042972  0.0  0.139905  -2.7e-05  1.04112  0.0  0.094879  0.134215  6e-06  1.044119  0.0
C  C31  1  0.68702852  0.76845341  0.42151550  1  0.735182  -0.008881  3.789221  -0.008  0.695471  -0.002952  4.090686  -0.003  0.73336  -0.003481  4.082738  -0.003  0.225725  0.670054  -0.002409  4.095791  -0.003
C  C32  1  0.31296747  0.23155445  0.57848366  1  0.735121  -0.008883  3.789177  -0.008  0.695437  -0.00295  4.090605  -0.003  0.733334  -0.003481  4.082646  -0.003  0.225725  0.670016  -0.002409  4.095707  -0.003
C  C33  1  0.52751350  0.65891903  0.43779788  1  -0.294599  0.009378  3.708559  0.01  -0.337938  0.005813  3.937328  0.006  -0.343518  0.003994  3.946474  0.005  -0.157084  -0.334236  0.007268  3.931293  0.008
C  C34  1  0.47248486  0.34108225  0.56220318  1  -0.294562  0.009362  3.708589  0.01  -0.337902  0.005813  3.937361  0.006  -0.34348  0.003994  3.946505  0.005  -0.157073  -0.3342  0.007267  3.931323  0.008
C  C35  1  0.40588749  0.72514794  0.52538219  1  0.012097  0.008858  3.74589  0.009  0.040957  0.00528  3.982949  0.006  0.034136  0.004044  4.004611  0.004  -0.020246  0.045177  0.006296  3.968637  0.006
C  C36  1  0.59410605  0.27485663  0.47461838  1  0.012133  0.008751  3.745515  0.009  0.040996  0.005279  3.982571  0.006  0.034184  0.004043  4.004232  0.004  -0.020241  0.045224  0.006298  3.968257  0.006
C  C37  1  0.26713015  0.81035568  0.47916545  1  0.658963  -0.005339  3.834219  -0.006  0.606326  -0.001452  4.129941  -0.002  0.643486  -0.001947  4.122316  -0.002  0.222529  0.581301  -0.000922  4.133665  -0.002
C  C38  1  0.73286780  0.18964460  0.52083176  1  0.658881  -0.005339  3.834205  -0.006  0.606255  -0.00145  4.129927  -0.002  0.643392  -0.001947  4.122331  -0.002  0.22255  0.58123  -0.000923  4.133641  -0.002
C  C39  1  0.41452069  0.70802044  0.63840371  1  -0.238595  -0.005496  3.548933  -0.003  -0.302083  -0.001701  3.788366  -0.001  -0.300795  -0.002016  3.801075  -0.001  -0.158764  -0.302774  -0.001551  3.779929  -0.001
C  C40  1  0.58547564  0.29198427  0.36159019  1  -0.238586  -0.005268  3.548593  -0.003  -0.302004  -0.001703  3.788053  -0.001  -0.300718  -0.002013  3.800762  -0.001  -0.158728  -0.302697  -0.001552  3.779628  -0.001
C  C41  1  0.71106142  0.37657327  0.11500652  1  0.740374  4e-06  3.798411  0.0  0.699059  -1.2e-05  4.098095  0.0  0.731402  -5e-06  4.097985  0.0  0.211926  0.676715  -4e-06  4.103024  0.0
C  C42  1  0.28894281  0.62342794  0.88499695  1  0.740549  1.8e-05  3.79836  0.0  0.699175  -1.3e-05  4.098124  0.0  0.73153  -4e-06  4.09799  0.0  0.211914  0.676832  -4e-06  4.103057  0.0
C  C43  1  0.91784264  0.43484750  0.20874562  1  -0.283726  -1.7e-05  3.687177  0.0  -0.329881  2e-06  3.923778  0.0  -0.333729  -4e-06  3.931398  0.0  -0.154824  -0.326692  1.6e-05  3.917799  0.0
C  C44  1  0.08216421  0.56514830  0.79125572  1  -0.283731  -7.8e-05  3.687154  0.0  -0.329847  2e-06  3.923705  0.0  -0.333679  -4e-06  3.931327  0.0  -0.154804  -0.326656  1.6e-05  3.917725  0.0
C  C45  1  0.04701036  0.32621527  0.19495709  1  0.009214  0.000413  3.754784  0.0  0.039721  0.000201  3.991034  0.0  0.032682  0.000131  4.012533  0.0  -0.022984  0.044446  0.000286  3.975494  0.0
C  C46  1  0.95299237  0.67378176  0.80503886  1  0.009228  0.000445  3.755127  0.0  0.039797  0.000203  3.991247  0.0  0.032765  0.000128  4.012737  0.0  -0.022981  0.044514  0.000285  3.975706  0.0
C  C47  1  0.14539593  0.30136700  0.08752885  1  0.630985  -1.6e-05  3.906704  0.0  0.584141  3e-06  4.200088  0.0  0.616747  -2e-06  4.200737  0.0  0.194101  0.561312  1e-05  4.204119  0.0
C  C48  1  0.85460082  0.69862450  0.91247185  1  0.631062  -1.3e-05  3.906726  0.0  0.584225  1e-06  4.200079  0.0  0.616831  0.0  4.200733  0.0  0.194217  0.561399  1e-05  4.204111  0.0
C  C49  1  0.07392016  0.24925187  0.27232345  1  -0.219196  -6.2e-05  3.53915  0.0  -0.28391  3.2e-05  3.783172  0.0  -0.281984  -7.5e-05  3.793594  0.0  -0.155749  -0.284401  0.000137  3.775039  0.0
C  C50  1  0.92607162  0.75072891  0.72767098  1  -0.21931  -0.000129  3.539697  0.0  -0.284035  3.2e-05  3.783695  0.0  -0.2821  -7.1e-05  3.794113  0.0  -0.155811  -0.284521  0.000138  3.775556  0.0
O  O51  1  0.73308299  0.74569776  0.31646405  1  -0.72489  -0.001156  2.048572  0.001  -0.687958  -0.001307  2.310252  0.0  -0.725266  -0.002074  2.294535  0.0  -0.397505  -0.668756  -0.000614  2.317302  0.001
O  O52  1  0.26691798  0.25430238  0.68353874  1  -0.72484  -0.001154  2.048477  0.001  -0.687925  -0.001307  2.310162  0.0  -0.725242  -0.002073  2.29445  0.0  -0.397504  -0.668722  -0.000614  2.317204  0.001
O  O53  1  0.77570676  0.87751578  0.52190448  1  -0.582241  0.085594  2.059807  0.117  -0.553433  0.054465  2.336306  0.081  -0.595304  0.041463  2.328338  0.067  -0.311128  -0.524428  0.062735  2.340777  0.089
O  O54  1  0.22428682  0.12248875  0.47809784  1  -0.582222  0.085597  2.059785  0.117  -0.553419  0.054465  2.336253  0.081  -0.595303  0.041463  2.328306  0.067  -0.311126  -0.524425  0.062738  2.340744  0.089
O  O55  1  0.23073264  0.80028875  0.36322206  1  -0.608544  -0.001196  2.037225  0.0  -0.54502  -0.001108  2.260131  0.0  -0.570897  -0.001651  2.247577  0.0  -0.284916  -0.526617  -0.000515  2.267691  0.001
O  O56  1  0.76927428  0.19972118  0.63677983  1  -0.608515  -0.001201  2.037072  0.0  -0.545032  -0.001107  2.260007  0.0  -0.570903  -0.001651  2.247463  0.0  -0.284978  -0.526622  -0.000515  2.267553  0.001
O  O57  1  0.18852404  0.88864583  0.56107386  1  -0.627699  0.070737  2.123717  0.099  -0.579196  0.049802  2.391935  0.075  -0.619892  0.03837  2.381499  0.063  -0.307401  -0.550918  0.057042  2.398302  0.082
O  O58  1  0.81147270  0.11135987  0.43892389  1  -0.627676  0.07072  2.123828  0.099  -0.579176  0.049797  2.392054  0.075  -0.61986  0.038365  2.381628  0.063  -0.307409  -0.550911  0.057038  2.398426  0.082
O  O59  1  0.60687536  0.46812402  0.09465793  1  -0.815009  1.9e-05  2.108392  0.0  -0.771007  3e-06  2.360672  0.0  -0.815149  -8e-06  2.351173  0.0  -0.435935  -0.75224  1.1e-05  2.365664  0.0
O  O60  1  0.39313073  0.53187819  0.90534867  1  -0.815105  1.9e-05  2.108435  0.0  -0.771056  3e-06  2.360681  0.0  -0.815201  -8e-06  2.351171  0.0  -0.435931  -0.75229  1.1e-05  2.365677  0.0
O  O61  1  0.64091516  0.24320791  0.05779043  1  -0.657928  5.1e-05  1.925748  0.0  -0.61845  2.5e-05  2.14957  0.0  -0.649446  9e-06  2.140665  0.0  -0.353993  -0.601716  3e-05  2.154428  0.0
O  O62  1  0.35908945  0.75679008  0.94221041  1  -0.657974  4.9e-05  1.925764  0.0  -0.61847  2.4e-05  2.149591  0.0  -0.64947  9e-06  2.140682  0.0  -0.353979  -0.601733  3e-05  2.154454  0.0
O  O63  1  0.14901804  0.39266758  0.02799503  1  -0.709356  1.8e-05  2.055163  0.0  -0.659029  1.6e-05  2.292854  0.0  -0.692522  8e-06  2.283002  0.0  -0.374538  -0.640971  2.6e-05  2.298858  0.0
O  O64  1  0.85099434  0.60733132  0.97201311  1  -0.709371  2.1e-05  2.055227  0.0  -0.65909  1.6e-05  2.292936  0.0  -0.692584  1e-05  2.283093  0.0  -0.374574  -0.641029  2.6e-05  2.298945  0.0
O  O65  1  0.22719419  0.19479575  0.05570831  1  -0.675982  5.6e-05  1.940629  0.0  -0.634157  2.8e-05  2.162269  0.0  -0.665446  2.2e-05  2.152354  0.0  -0.369559  -0.617766  4e-05  2.16823  0.0
O  O66  1  0.77280428  0.80519692  0.94428854  1  -0.676009  5.8e-05  1.940678  0.0  -0.634198  2.8e-05  2.162326  0.0  -0.665484  2.1e-05  2.152409  0.0  -0.369597  -0.617803  4e-05  2.168286  0.0
O  O67  1  0.96721111  0.87268413  0.20078314  1  -0.909183  -0.000353  1.88238  0.0  -0.875253  -0.000496  2.083567  0.0  -0.901672  -0.000557  2.047154  0.0  -0.631248  -0.862765  -0.000412  2.104968  0.0
O  O68  1  0.03278962  0.12732476  0.79921774  1  -0.909215  -0.000355  1.882446  0.0  -0.875301  -0.000496  2.083631  0.0  -0.901715  -0.000558  2.047195  0.0  -0.631306  -0.86282  -0.000412  2.105034  0.0
O  O69  1  0.57837284  0.95157289  0.19430309  1  -0.88398  0.000374  1.833993  0.001  -0.844479  0.000266  2.010275  0.0  -0.872213  0.000128  1.972233  0.0  -0.63129  -0.83222  0.000416  2.031906  0.001
O  O70  1  0.42162691  0.04842846  0.80569464  1  -0.883981  0.00037  1.833944  0.001  -0.84448  0.000267  2.01025  0.0  -0.872214  0.000129  1.972207  0.0  -0.631311  -0.832231  0.000416  2.03188  0.001
O  O71  1  0.32859585  0.66449265  0.15064767  1  -0.93706  1.9e-05  1.909487  0.0  -0.897779  7e-06  2.107693  0.0  -0.9266  1e-06  2.070744  0.0  -0.666901  -0.883959  1.4e-05  2.129361  0.0
O  O72  1  0.67140758  0.33550651  0.84934985  1  -0.937056  2.2e-05  1.909473  0.0  -0.897787  6e-06  2.107661  0.0  -0.926607  1e-06  2.070707  0.0  -0.666941  -0.883975  1.4e-05  2.129328  0.0
