# generated using pymatgen
data_Zn2H9C44N4Cl6(O4F3)3
_symmetry_space_group_name_H-M   'P 1'
_cell_length_a   9.85351683
_cell_length_b   10.99585823
_cell_length_c   23.23244190
_cell_angle_alpha   89.26629157
_cell_angle_beta   91.05701572
_cell_angle_gamma   89.76810138
_symmetry_Int_Tables_number   1
_chemical_formula_structural   Zn2H9C44N4Cl6(O4F3)3
_chemical_formula_sum   'Zn2 H9 C44 N4 Cl6 O12 F9'
_cell_volume   2516.52789519
_cell_formula_units_Z   1
loop_
 _symmetry_equiv_pos_site_id
 _symmetry_equiv_pos_as_xyz
  1  'x, y, z'
loop_
 _atom_site_type_symbol
 _atom_site_label
 _atom_site_symmetry_multiplicity
 _atom_site_fract_x
 _atom_site_fract_y
 _atom_site_fract_z
 _atom_site_occupancy
 _atom_site_pbe_bader_charge
 _atom_site_pbe_bader_spin_density
 _atom_site_pbe_cm5_charge
 _atom_site_pbe_ddec_charge
 _atom_site_pbe_ddec_spin_density
 _atom_site_pbe_ddec_sum_bond_order
 _atom_site_pbe_magmom
Zn  Zn0  1  0.63430999  0.52673141  0.50097650  1  1.303509  0  0.671362  0.842824  0  2.385976  0
Zn  Zn1  1  0.35443837  0.52331928  0.49976255  1  1.290216  0  0.674334  0.84567  0  2.398682  0
H  H2  1  0.19930870  0.23205206  0.05689290  1  0.155475  0  0.12155  0.139969  0  0.978839  0
H  H3  1  0.61520807  0.30650976  0.34673227  1  0.114084  0  0.121294  0.150933  0  0.962708  0
H  H4  1  0.38589054  0.55337754  0.19236811  1  0.107139  0  0.117458  0.139192  0  0.968426  0
H  H5  1  0.73854569  0.89439673  0.57861200  1  0.072678  0  0.110067  0.104938  0  0.953652  0
H  H6  1  0.73554847  0.12275145  0.58539676  1  0.091473  0  0.105002  0.071106  0  0.958672  0
H  H7  1  0.14809832  0.48431918  0.63715528  1  0.141997  0  0.11497  0.099938  0  0.986954  0
H  H8  1  0.84083496  0.43916191  0.05652055  1  0.159877  0  0.130456  0.159749  0  0.960363  0
H  H9  1  0.33525552  0.60370406  0.69772223  1  0.09467  0  0.117223  0.146469  0  0.978381  0
H  H10  1  0.63429597  0.32582250  0.66292541  1  0.129763  0  0.10955  0.141178  0  1.008024  0
C  C11  1  0.50527650  0.29152092  0.49595099  1  1.597737  0  0.214922  0.60504  0  4.173246  0
C  C12  1  0.28703457  0.26244074  0.03283561  1  0.003304  0  -0.069647  -0.14234  0  3.925868  0
C  C13  1  0.28243267  0.26320645  0.97210757  1  0.043677  0  0.041253  0.157641  0  3.998022  0
C  C14  1  0.39254903  0.30597426  0.94009868  1  0.106412  0  -0.006505  -0.124022  0  3.902538  0
C  C15  1  0.51233762  0.34378420  0.97049866  1  -0.027361  0  0.01239  0.071029  0  3.965554  0
C  C16  1  0.62833755  0.38673151  0.94058567  1  0.10602  0  -0.011564  -0.177373  0  3.946784  0
C  C17  1  0.74461634  0.41612772  0.97278886  1  0.475853  0  0.128971  0.306868  0  4.01681  0
C  C18  1  0.74945130  0.41206495  0.03299597  1  -0.0305  0  -0.0711  -0.19859  0  3.933251  0
C  C19  1  0.38691164  0.31540030  0.87625953  1  1.33088  0  0.24278  0.454874  0  4.077007  0
C  C20  1  0.62239005  0.40744329  0.87772954  1  1.364794  0  0.242667  0.460541  0  4.097557  0
C  C21  1  0.40619306  0.49439372  0.76972896  1  0.425125  0  0.110276  0.255913  0  4.055233  0
C  C22  1  0.48510502  0.50444835  0.61136821  1  1.590386  0  0.22024  0.604039  0  4.144378  0
C  C23  1  0.40019657  0.52850826  0.71208493  1  0.069684  0  -0.098713  -0.243097  0  3.97864  0
C  C24  1  0.48404598  0.46784073  0.67371149  1  -0.015546  0  -0.006804  0.03263  0  3.978806  0
C  C25  1  0.56832424  0.37216531  0.69264866  1  0.079373  0  -0.098127  -0.237072  0  3.979301  0
C  C26  1  0.56722645  0.33829886  0.75024702  1  0.47384  0  0.110908  0.258789  0  4.055621  0
C  C27  1  0.48884308  0.39918710  0.79033951  1  0.489412  0  0.077293  -0.024541  0  4.045741  0
C  C28  1  0.56662941  0.32393858  0.25638456  1  0.446865  0  0.107403  0.229646  0  4.060245  0
C  C29  1  0.56299350  0.36031072  0.31330623  1  0.048743  0  -0.085411  -0.20173  0  3.948866  0
C  C30  1  0.49208626  0.46604665  0.32727942  1  0.028172  0  -0.006668  -0.03884  0  3.936835  0
C  C31  1  0.42733554  0.53483153  0.28357012  1  0.016004  0  0.015454  0.12733  0  4.035907  0
C  C32  1  0.43392363  0.49862345  0.22645971  1  0.139367  0  -0.082437  -0.193148  0  3.96385  0
C  C33  1  0.49342531  0.75820887  0.49134141  1  1.619748  0  0.219944  0.616777  0  4.152039  0
C  C34  1  0.50331568  0.39254468  0.21266483  1  0.379253  0  0.081323  0.085572  0  4.050364  0
C  C35  1  0.60978593  0.08457773  0.50673224  1  -0.029185  0  -0.01335  -0.019351  0  3.929618  0
C  C36  1  0.50260545  0.15717314  0.48656950  1  0.063304  0  -0.004143  -0.072  0  3.924626  0
C  C37  1  0.39613003  0.09496406  0.45834276  1  0.15357  0  0.02306  0.069972  0  3.979069  0
C  C38  1  0.39267328  0.96552750  0.45673203  1  0.065508  0  0.026221  0.081978  0  3.962426  0
C  C39  1  0.49654440  0.89336730  0.48315308  1  0.033356  0  -0.006795  -0.093061  0  3.897657  0
C  C40  1  0.60735124  0.95840219  0.50486151  1  0.021812  0  -0.006885  0.034903  0  3.923498  0
C  C41  1  0.74110227  0.94375803  0.53737475  1  0.158721  0  -0.041367  -0.006497  0  3.796236  0
C  C42  1  0.74144306  0.08824527  0.54125726  1  0.538692  0  0.032178  0.148167  0  3.849281  0
C  C43  1  0.06936543  0.48128916  0.54638317  1  0.579414  0  0.135574  0.143198  0  3.889761  0
C  C44  1  0.48667325  0.50107141  0.38950679  1  1.634098  0  0.215513  0.610505  0  4.181294  0
C  C45  1  0.06397370  0.57122436  0.45956111  1  1.259968  0  0.275155  0.320903  0  4.007763  0
C  C46  1  0.91950696  0.57616100  0.46186713  1  1.288311  0  0.272832  0.31252  0  4.034451  0
C  C47  1  0.92996263  0.48720363  0.54880257  1  0.486348  0  0.130552  0.086567  0  3.885579  0
C  C48  1  0.92753805  0.43978846  0.61080626  1  0.767573  0  0.140699  0.258385  0  3.918107  0
C  C49  1  0.09013091  0.42889269  0.60656254  1  0.591673  0  0.041633  0.05313  0  3.852693  0
C  C50  1  0.63606899  0.38710231  0.12601636  1  1.353972  0  0.249843  0.437795  0  4.081419  0
C  C51  1  0.39690907  0.30975367  0.12623025  1  1.340287  0  0.25016  0.439822  0  4.076342  0
C  C52  1  0.40089797  0.30220376  0.06237095  1  -0.016355  0  0.001217  -0.031693  0  3.989477  0
C  C53  1  0.51648563  0.34060322  0.03195116  1  0.048539  0  -0.000499  0.009206  0  4.007438  0
C  C54  1  0.63480171  0.37747460  0.06231097  1  0.061777  0  0.002968  -0.021035  0  3.991787  0
N  N55  1  0.51282969  0.35997976  0.15322575  1  -1.160849  0  -0.229571  -0.194356  0  3.591472  0
N  N56  1  0.49966293  0.37197170  0.85044470  1  -1.174512  0  -0.234598  -0.201384  0  3.623179  0
N  N57  1  0.14055061  0.52356544  0.50151360  1  -1.204301  0  -0.270645  -0.215468  0  3.413619  0
N  N58  1  0.85026486  0.53407978  0.50618336  1  -1.213269  0  -0.268181  -0.212824  0  3.417811  0
Cl  Cl59  1  0.34374103  0.66845157  0.29948634  1  -0.195531  0  -0.016116  -0.078817  0  1.468766  0
Cl  Cl60  1  0.27011153  0.17651244  0.42323643  1  -0.151184  0  0.009315  -0.030944  0  1.58692  0
Cl  Cl61  1  0.25989021  0.89997899  0.41997843  1  -0.139545  0  0.006746  -0.036929  0  1.653331  0
Cl  Cl62  1  0.88068827  0.88346630  0.49863620  1  -0.232984  0  -0.074713  -0.143865  0  1.404664  0
Cl  Cl63  1  0.13403272  0.21194438  0.94153363  1  -0.132906  0  0.032764  -0.022315  0  1.509662  0
Cl  Cl64  1  0.87491271  0.54675202  0.66168057  1  -0.151501  0  0.007254  -0.071986  0  1.365148  0
O  O65  1  0.61946272  0.34222627  0.48825828  1  -1.140365  0  -0.309984  -0.523565  0  2.288163  0
O  O66  1  0.29818216  0.27932746  0.15422846  1  -1.08798  0  -0.264366  -0.410268  0  2.051519  0
O  O67  1  0.29251067  0.28060561  0.84569487  1  -1.079558  0  -0.266843  -0.418467  0  2.120667  0
O  O68  1  0.71244230  0.45504344  0.84969852  1  -1.07362  0  -0.268909  -0.421227  0  2.086623  0
O  O69  1  0.39680798  0.34197336  0.51237828  1  -1.15399  0  -0.315098  -0.545297  0  2.352828  0
O  O70  1  0.59760561  0.49248363  0.58594535  1  -1.165636  0  -0.315802  -0.552813  0  2.370756  0
O  O71  1  0.37424084  0.54274991  0.58837083  1  -1.16609  0  -0.318928  -0.547289  0  2.280817  0
O  O72  1  0.60715371  0.70900788  0.50506144  1  -1.148609  0  -0.315191  -0.542855  0  2.343242  0
O  O73  1  0.38061790  0.70375218  0.48656816  1  -1.161571  0  -0.315159  -0.545473  0  2.399674  0
O  O74  1  0.59699848  0.53554659  0.41289811  1  -1.154704  0  -0.316203  -0.546355  0  2.32943  0
O  O75  1  0.37290355  0.48878913  0.41361005  1  -1.148676  0  -0.315733  -0.552688  0  2.359424  0
O  O76  1  0.73520645  0.42184661  0.15376668  1  -1.091116  0  -0.262601  -0.412018  0  2.06049  0
F  F77  1  0.85033422  0.14590181  0.51521643  1  -0.626353  0  -0.147767  -0.184918  0  1.311874  0
F  F78  1  0.12224607  0.61731546  0.41353147  1  -0.588841  0  -0.029817  -0.060356  0  1.445884  0
F  F79  1  0.85361652  0.62466784  0.41728373  1  -0.586643  0  -0.027562  -0.054557  0  1.437752  0
F  F80  1  0.86495463  0.33059787  0.61985518  1  -0.604958  0  -0.090701  -0.134855  0  1.366948  0
F  F81  1  0.13651889  0.31060934  0.60920851  1  -0.603731  0  -0.115174  -0.121322  0  1.3019  0
F  F82  1  0.85836736  0.45264583  0.94669267  1  -0.609496  0  -0.076882  -0.114666  0  1.371042  0
F  F83  1  0.33178434  0.55637209  0.80830906  1  -0.626839  0  -0.09868  -0.13131  0  1.316424  0
F  F84  1  0.64600924  0.24417913  0.76920547  1  -0.623894  0  -0.097384  -0.128488  0  1.318023  0
F  F85  1  0.63378228  0.22064552  0.24275580  1  -0.624254  0  -0.10015  -0.133641  0  1.3196  0
