# generated using pymatgen
data_CoH20C19(NO2)2
_symmetry_space_group_name_H-M   'P 1'
_cell_length_a   8.20461877
_cell_length_b   10.87985828
_cell_length_c   11.03854883
_cell_angle_alpha   61.88561307
_cell_angle_beta   74.38908882
_cell_angle_gamma   84.02043430
_symmetry_Int_Tables_number   1
_chemical_formula_structural   CoH20C19(NO2)2
_chemical_formula_sum   'Co2 H40 C38 N4 O8'
_cell_volume   836.73642129
_cell_formula_units_Z   2
loop_
 _symmetry_equiv_pos_site_id
 _symmetry_equiv_pos_as_xyz
  1  'x, y, z'
loop_
 _atom_site_type_symbol
 _atom_site_label
 _atom_site_symmetry_multiplicity
 _atom_site_fract_x
 _atom_site_fract_y
 _atom_site_fract_z
 _atom_site_occupancy
 _atom_site_pbe_cm5_charge
 _atom_site_pbe_ddec_charge
 _atom_site_pbe_ddec_spin_density
 _atom_site_pbe_ddec_sum_bond_order
 _atom_site_pbe_magmom
Co  Co0  1  0.13579925  0.65516754  0.99987564  1  0.678419  0.869035  -2.840102  2.526702  -2.581
Co  Co1  1  0.86419940  0.34482018  0.00011343  1  0.678509  0.869228  -2.840068  2.526429  -2.581
H  H2  1  0.96619880  0.54966104  0.31211645  1  0.116693  0.082814  -0.000451  1.011781  -0.001
H  H3  1  0.03380397  0.45033605  0.68786110  1  0.116615  0.082752  -0.00045  1.011815  -0.001
H  H4  1  0.95582259  0.33571165  0.53830579  1  0.107548  0.112065  -0.000375  1.04637  0.0
H  H5  1  0.04418599  0.66430524  0.46168313  1  0.107545  0.112034  -0.000375  1.046365  0.0
H  H6  1  0.34137480  0.39264200  0.08986921  1  0.120254  0.09996  -0.000532  1.028252  -0.001
H  H7  1  0.65862874  0.60734050  0.91012583  1  0.120261  0.099965  -0.000532  1.028182  -0.001
H  H8  1  0.34221813  0.17275979  0.30078135  1  0.10907  0.116645  -0.0004  1.01185  0.0
H  H9  1  0.65779621  0.82724041  0.69922684  1  0.109078  0.116643  -0.0004  1.011843  0.0
H  H10  1  0.97498247  0.16198852  0.72482967  1  0.109497  0.120915  -0.000481  1.030394  0.0
H  H11  1  0.02499988  0.83800236  0.27517661  1  0.109507  0.120957  -0.000481  1.030351  0.0
H  H12  1  0.28359948  0.98067269  0.46538590  1  0.107539  0.113002  -0.000391  1.035975  0.0
H  H13  1  0.71647116  0.01934408  0.53462230  1  0.107592  0.11311  -0.000391  1.035934  0.0
H  H14  1  0.97417561  0.93499431  0.93154300  1  0.122841  0.097164  -0.000398  0.99266  -0.001
H  H15  1  0.02580405  0.06499241  0.06845941  1  0.122842  0.097189  -0.000398  0.992579  -0.001
H  H16  1  0.27443710  0.76191716  0.68848046  1  0.115779  0.089742  -0.000464  1.022788  -0.001
H  H17  1  0.72561559  0.23809339  0.31152699  1  0.115819  0.089584  -0.000463  1.022975  -0.001
H  H18  1  0.60978738  0.47459722  0.32828020  1  0.099517  0.116727  -0.000147  0.997077  0.0
H  H19  1  0.39023482  0.52541027  0.67172846  1  0.099552  0.116829  -0.000148  0.997055  0.0
H  H20  1  0.51509595  0.51254776  0.19032757  1  0.102446  0.131028  0.000152  0.999312  0.0
H  H21  1  0.48489738  0.48743060  0.80970497  1  0.102476  0.131082  0.000152  0.999281  0.0
H  H22  1  0.46697656  0.89789855  0.09336672  1  0.100246  0.121476  -0.000498  1.002739  -0.001
H  H23  1  0.53299301  0.10208924  0.90663994  1  0.100253  0.121415  -0.000498  1.002771  -0.001
H  H24  1  0.62214508  0.82361513  0.00107032  1  0.099971  0.125353  -0.000555  0.986275  -0.001
H  H25  1  0.37784396  0.17638617  0.99893158  1  0.100011  0.125421  -0.000554  0.986244  -0.001
H  H26  1  0.71283498  0.66897036  0.35210059  1  0.082342  0.07723  -3.7e-05  1.009044  0.0
H  H27  1  0.28714666  0.33103617  0.64790399  1  0.082362  0.077232  -3.6e-05  1.009092  0.0
H  H28  1  0.75808373  0.81693034  0.18403819  1  0.089872  0.0968  4.9e-05  1.016228  0.0
H  H29  1  0.24190777  0.18306886  0.81596328  1  0.089834  0.096768  4.9e-05  1.016278  0.0
H  H30  1  0.57182044  0.82258544  0.43665377  1  0.078731  0.07182  0.000164  1.031433  0.0
H  H31  1  0.42817298  0.17743253  0.56333588  1  0.078731  0.071817  0.000164  1.031452  0.0
H  H32  1  0.55063455  0.94955100  0.26866114  1  0.083365  0.081478  8e-05  0.994833  0.0
H  H33  1  0.44935224  0.05045864  0.73132737  1  0.083339  0.081435  8e-05  0.994768  0.0
H  H34  1  0.28685506  0.75281749  0.48819179  1  0.080059  0.067491  -1e-05  1.049285  0.0
H  H35  1  0.71314051  0.24718900  0.51180910  1  0.080065  0.067509  -9e-06  1.0493  0.0
H  H36  1  0.28093496  0.86127412  0.31058998  1  0.082825  0.074644  -7.2e-05  1.027465  0.0
H  H37  1  0.71905294  0.13873031  0.68941432  1  0.082828  0.074639  -7.2e-05  1.027507  0.0
H  H38  1  0.26591940  0.63438608  0.32219305  1  0.084367  0.082959  0.000139  1.045837  0.0
H  H39  1  0.73406610  0.36562252  0.67780617  1  0.084355  0.082892  0.000139  1.045839  0.0
H  H40  1  0.39594082  0.56073581  0.44294390  1  0.082632  0.077108  -1.5e-05  1.021321  0.0
H  H41  1  0.60404068  0.43926655  0.55706174  1  0.082623  0.077082  -1.5e-05  1.02134  0.0
C  C42  1  0.04656221  0.46233460  0.31507553  1  0.042003  0.090536  0.008915  3.963518  0.005
C  C43  1  0.95343550  0.53766250  0.68490665  1  0.042102  0.090556  0.008914  3.963631  0.005
C  C44  1  0.04125960  0.34167548  0.44134768  1  -0.08489  -0.175275  -0.000105  3.942325  -0.002
C  C45  1  0.95874733  0.65833099  0.55864098  1  -0.084786  -0.175075  -0.000105  3.942106  -0.002
C  C46  1  0.14173467  0.22857994  0.44178598  1  0.008142  0.095554  0.015422  3.980963  0.008
C  C47  1  0.85827347  0.77142445  0.55821518  1  0.00802  0.095388  0.01542  3.980974  0.008
C  C48  1  0.25226126  0.37537515  0.18975386  1  0.050879  0.108987  0.009372  3.917605  0.005
C  C49  1  0.74773744  0.62461361  0.81024015  1  0.050972  0.109072  0.009375  3.917393  0.005
C  C50  1  0.25249386  0.25047078  0.31117311  1  -0.079205  -0.163695  0.000973  3.911825  -0.001
C  C51  1  0.74751401  0.74952631  0.68882515  1  -0.079221  -0.16365  0.000972  3.911834  -0.001
C  C52  1  0.13154260  0.09492558  0.57180743  1  0.007151  0.092371  0.017009  3.98461  0.009
C  C53  1  0.86847560  0.90507670  0.42819812  1  0.007221  0.092439  0.017007  3.984599  0.009
C  C54  1  0.04242402  0.07786318  0.70710461  1  -0.077958  -0.16538  -0.000617  3.9238  -0.003
C  C55  1  0.95758129  0.92213287  0.29289827  1  -0.078018  -0.16544  -0.000617  3.923683  -0.003
C  C56  1  0.21437722  0.97739659  0.56588878  1  -0.085501  -0.180732  -0.000118  3.9604  -0.002
C  C57  1  0.78566029  0.02261399  0.43411990  1  -0.08559  -0.180936  -0.000117  3.960524  -0.002
C  C58  1  0.04200442  0.95008274  0.82582236  1  0.052249  0.100495  0.011428  3.925954  0.006
C  C59  1  0.95799330  0.04991333  0.17418023  1  0.052292  0.100501  0.011428  3.925896  0.006
C  C60  1  0.20969512  0.85421306  0.68950218  1  0.042351  0.089723  0.009966  3.95848  0.006
C  C61  1  0.79034353  0.14579440  0.31050501  1  0.042345  0.08995  0.009966  3.958514  0.006
C  C62  1  0.77905109  0.55695498  0.12641911  1  0.221166  0.641819  -0.001509  4.118906  -0.004
C  C63  1  0.22093829  0.44305570  0.87357746  1  0.221177  0.641938  -0.001509  4.119044  -0.004
C  C64  1  0.60451900  0.55494662  0.22052034  1  -0.162286  -0.362729  -0.005248  3.876433  -0.007
C  C65  1  0.39547508  0.44505363  0.77949100  1  -0.16236  -0.363042  -0.005248  3.876635  -0.007
C  C66  1  0.53816744  0.68875837  0.22772734  1  -0.01059  0.214537  -0.000512  3.724094  -0.001
C  C67  1  0.46181901  0.31124085  0.77227786  1  -0.010562  0.21457  -0.000511  3.724038  -0.001
C  C68  1  0.50392133  0.80198810  0.08457754  1  -0.163451  -0.347596  -0.002154  3.828978  -0.003
C  C69  1  0.49606621  0.19800695  0.91542304  1  -0.1635  -0.347578  -0.002153  3.828899  -0.003
C  C70  1  0.65440988  0.75370936  0.27302136  1  -0.168539  -0.208438  -0.000133  3.859706  0.0
C  C71  1  0.34557924  0.24629403  0.72698046  1  -0.168513  -0.208459  -0.000133  3.859866  0.0
C  C72  1  0.53758001  0.83704633  0.34147033  1  -0.174518  -0.148478  0.000144  3.90286  0.0
C  C73  1  0.46240933  0.16296331  0.65852311  1  -0.174471  -0.148379  0.000145  3.902529  0.0
C  C74  1  0.35537627  0.78150957  0.37809078  1  -0.177635  -0.161413  -0.000261  3.934197  0.0
C  C75  1  0.64461557  0.21849902  0.62190898  1  -0.177683  -0.161499  -0.000261  3.934104  0.0
C  C76  1  0.37581836  0.65551460  0.34896419  1  -0.171472  -0.212115  -0.000354  3.876661  0.0
C  C77  1  0.62416827  0.34448983  0.65104036  1  -0.171443  -0.211957  -0.000353  3.876594  0.0
C  C78  1  0.36523099  0.75888140  0.04450181  1  0.192222  0.608456  0.005761  4.155527  0.005
C  C79  1  0.63476880  0.24110215  0.95549984  1  0.19226  0.608662  0.005763  4.155614  0.005
N  N80  1  0.14753846  0.47939345  0.18935690  1  -0.328172  -0.248218  -0.022929  3.596234  -0.04
N  N81  1  0.85246015  0.52059323  0.81062813  1  -0.328323  -0.248388  -0.022929  3.596188  -0.04
N  N82  1  0.12519445  0.83916931  0.81879291  1  -0.327534  -0.23966  -0.024357  3.59072  -0.044
N  N83  1  0.87482107  0.16082880  0.18120877  1  -0.327575  -0.239701  -0.024355  3.590616  -0.044
O  O84  1  0.87919815  0.66199177  0.07202138  1  -0.30439  -0.549574  -0.045267  2.361807  -0.073
O  O85  1  0.12079346  0.33801056  0.92797590  1  -0.304406  -0.549632  -0.045281  2.361747  -0.073
O  O86  1  0.81802809  0.44656137  0.11386566  1  -0.317429  -0.581633  -0.049406  2.48904  -0.08
O  O87  1  0.18194447  0.55343996  0.88612233  1  -0.317397  -0.581495  -0.049403  2.489261  -0.08
O  O88  1  0.40320936  0.69001023  0.97398776  1  -0.314376  -0.556736  -0.041219  2.214756  -0.07
O  O89  1  0.59679076  0.30998270  0.02600675  1  -0.314432  -0.556844  -0.041218  2.214792  -0.07
O  O90  1  0.21041213  0.78543185  0.08565635  1  -0.322259  -0.566358  -0.040478  2.15578  -0.067
O  O91  1  0.78957616  0.21454860  0.91434995  1  -0.322273  -0.566492  -0.04047  2.15595  -0.067
