# generated using pymatgen
data_NiH8(C5N4)2
_symmetry_space_group_name_H-M   'P 1'
_cell_length_a   6.91557495
_cell_length_b   9.39733990
_cell_length_c   10.32301784
_cell_angle_alpha   111.26151439
_cell_angle_beta   99.92393799
_cell_angle_gamma   105.53489234
_symmetry_Int_Tables_number   1
_chemical_formula_structural   NiH8(C5N4)2
_chemical_formula_sum   'Ni2 H16 C20 N16'
_cell_volume   574.60354857
_cell_formula_units_Z   2
loop_
 _symmetry_equiv_pos_site_id
 _symmetry_equiv_pos_as_xyz
  1  'x, y, z'
loop_
 _atom_site_type_symbol
 _atom_site_label
 _atom_site_symmetry_multiplicity
 _atom_site_fract_x
 _atom_site_fract_y
 _atom_site_fract_z
 _atom_site_occupancy
 _atom_site_hle17_ddec_charge
 _atom_site_hle17_ddec_spin_density
 _atom_site_hle17_ddec_sum_bond_order
 _atom_site_hle17_magmom
 _atom_site_hse06_10hf_ddec_charge
 _atom_site_hse06_10hf_ddec_spin_density
 _atom_site_hse06_10hf_ddec_sum_bond_order
 _atom_site_hse06_10hf_magmom
 _atom_site_hse06_ddec_charge
 _atom_site_hse06_ddec_spin_density
 _atom_site_hse06_ddec_sum_bond_order
 _atom_site_hse06_magmom
 _atom_site_pbe_cm5_charge
 _atom_site_pbe_ddec_charge
 _atom_site_pbe_ddec_spin_density
 _atom_site_pbe_ddec_sum_bond_order
 _atom_site_pbe_magmom
Ni  Ni0  1  0.19747328  0.49105690  0.10673552  1  0.662579  -1.673614  2.390187  -1.336  0.706167  -1.748027  2.786217  -1.491  0.80117  -1.87285  2.707459  -1.622  0.693789  0.640849  -1.605718  2.840554  -1.349
Ni  Ni1  1  0.80252545  0.50895161  0.89326661  1  0.662481  1.673589  2.39028  1.336  0.706168  1.748022  2.78627  1.491  0.801127  1.872845  2.707533  1.622  0.693819  0.640802  1.605712  2.840654  1.349
H  H2  1  0.82836129  0.16294498  0.93634703  1  0.083805  -0.001383  0.955293  -0.002  0.091175  -0.00127  1.019947  -0.002  0.093641  -0.001002  1.017809  -0.001  0.116444  0.089106  -0.001451  1.021869  -0.002
H  H3  1  0.17163944  0.83705858  0.06365078  1  0.083814  0.001384  0.955333  0.002  0.091205  0.001269  1.019962  0.002  0.093674  0.001002  1.01782  0.001  0.116445  0.089141  0.001451  1.021888  0.002
H  H4  1  0.66670982  0.92606409  0.99171516  1  0.09934  -0.000667  0.985695  0.0  0.108218  -0.000723  1.048845  -0.001  0.111163  -0.000587  1.048517  0.0  0.104021  0.105848  -0.00083  1.049981  -0.001
H  H5  1  0.33330020  0.07393444  0.00827427  1  0.099343  0.000667  0.985648  0.0  0.108208  0.000723  1.048818  0.001  0.111152  0.000587  1.048493  0.0  0.104039  0.105839  0.00083  1.049949  0.001
H  H6  1  0.77932688  0.96032726  0.25021633  1  0.097554  -0.000301  0.960185  0.0  0.105918  -2.7e-05  1.024329  0.0  0.108768  -6e-06  1.022064  0.0  0.105619  0.103142  -0.000136  1.027039  0.0
H  H7  1  0.22068335  0.03966263  0.74977218  1  0.097522  0.0003  0.960144  0.0  0.105885  2.7e-05  1.024301  0.0  0.108738  6e-06  1.022032  0.0  0.105575  0.103107  0.000136  1.027032  0.0
H  H8  1  0.03836620  0.22690278  0.44071376  1  0.111444  -0.000183  0.991148  0.0  0.118332  -0.000227  1.05956  0.0  0.121645  -0.000146  1.058041  0.0  0.105185  0.115977  -0.00014  1.060701  -0.001
H  H9  1  0.96163184  0.77309220  0.55927990  1  0.111392  0.000183  0.991131  0.0  0.118345  0.000227  1.059483  0.0  0.121664  0.000146  1.057963  0.0  0.105157  0.115993  0.00014  1.060625  0.001
H  H10  1  0.22887484  0.47180094  0.59098267  1  0.113286  -0.000352  0.954826  -0.001  0.119449  -0.000371  1.021425  -0.001  0.122436  -0.000266  1.020904  0.0  0.108145  0.117146  -0.000458  1.021956  -0.001
H  H11  1  0.77111623  0.52819781  0.40901727  1  0.113291  0.000354  0.95479  0.001  0.11943  0.000372  1.021415  0.001  0.12243  0.000266  1.020879  0.0  0.108151  0.117132  0.000458  1.021947  0.001
H  H12  1  0.49976584  0.74690304  0.74539166  1  0.095364  -0.000306  0.960211  -0.001  0.105985  -0.000148  1.02141  0.0  0.109116  -0.000187  1.019063  0.0  0.104631  0.10373  -0.000114  1.022952  0.0
H  H13  1  0.50023041  0.25308821  0.25461023  1  0.095391  0.000306  0.960211  0.001  0.105997  0.000148  1.021427  0.0  0.109129  0.000187  1.019082  0.0  0.10467  0.103748  0.000114  1.022969  0.0
H  H14  1  0.64836890  0.92584985  0.62504190  1  0.107541  -0.000392  0.93668  0.0  0.120773  -0.000483  0.988036  0.0  0.123527  -0.000355  0.988084  0.0  0.111375  0.118794  -0.000581  0.988149  -0.001
H  H15  1  0.35164456  0.07414356  0.37497044  1  0.10751  0.000392  0.936752  0.0  0.120753  0.000483  0.988081  0.0  0.123509  0.000355  0.988123  0.0  0.111338  0.118766  0.000581  0.988195  0.001
H  H16  1  0.51931036  0.81040837  0.35194048  1  0.080494  -0.000818  0.957961  -0.002  0.085387  -0.000681  1.029472  -0.001  0.08825  -0.000448  1.026145  -0.001  0.116921  0.083452  -0.000886  1.031586  -0.002
H  H17  1  0.48069619  0.18959502  0.64807053  1  0.080472  0.000818  0.958073  0.002  0.085384  0.000681  1.029566  0.001  0.088245  0.000448  1.02624  0.001  0.116917  0.083449  0.000886  1.031683  0.002
C  C18  1  0.86930594  0.17045783  0.04596370  1  0.133884  0.006981  3.695068  0.009  0.105456  0.001282  3.95105  0.003  0.114644  0.001841  3.96854  0.003  0.049103  0.099176  0.00099  3.939665  0.002
C  C19  1  0.13069128  0.82954455  0.95403331  1  0.133812  -0.006997  3.695167  -0.009  0.105367  -0.001284  3.951156  -0.003  0.114554  -0.001841  3.968643  -0.003  0.049118  0.099082  -0.00099  3.939782  -0.002
C  C20  1  0.77937690  0.04103976  0.07828745  1  -0.118991  -0.007027  3.731224  -0.008  -0.131204  -0.003051  3.980147  -0.004  -0.137875  -0.002815  4.000028  -0.004  -0.08636  -0.127683  -0.003146  3.968016  -0.004
C  C21  1  0.22062378  0.95895766  0.92170539  1  -0.118914  0.007043  3.731279  0.008  -0.131101  0.003054  3.980185  0.004  -0.137771  0.002816  4.000067  0.004  -0.086364  -0.127577  0.003146  3.968057  0.004
C  C22  1  0.84206690  0.06029720  0.22139137  1  -0.004784  0.007726  3.716339  0.008  -0.021266  0.002537  3.961217  0.003  -0.016827  0.002431  3.978193  0.003  -0.069439  -0.024818  0.002946  3.951774  0.003
C  C23  1  0.15793287  0.93969531  0.77859778  1  -0.004758  -0.007741  3.716369  -0.008  -0.021247  -0.002537  3.961263  -0.003  -0.016802  -0.002434  3.978239  -0.003  -0.069434  -0.02481  -0.002947  3.951827  -0.003
C  C24  1  0.98871727  0.20944403  0.32814023  1  -0.143983  -0.004825  3.708217  -0.006  -0.160489  -0.00168  3.950395  -0.002  -0.167732  -0.001679  3.971289  -0.002  -0.07978  -0.156173  -0.001901  3.937485  -0.002
C  C25  1  0.01128109  0.79055466  0.67185276  1  -0.143847  0.004842  3.708049  0.006  -0.160422  0.001679  3.950175  0.002  -0.167679  0.001685  3.971079  0.002  -0.079637  -0.156108  0.001902  3.937276  0.002
C  C26  1  0.07116638  0.33464528  0.28795942  1  0.169189  0.004323  3.742948  0.005  0.166378  0.000253  3.986637  0.001  0.17415  0.000806  4.006609  0.002  0.118691  0.160875  -1.2e-05  3.973711  0.0
C  C27  1  0.92882674  0.66535468  0.71203922  1  0.16904  -0.004339  3.742922  -0.005  0.166279  -0.000252  3.986598  -0.001  0.174052  -0.000811  4.006568  -0.002  0.11861  0.160788  1.2e-05  3.973688  0.0
C  C28  1  0.22897127  0.49668037  0.39047298  1  0.170129  0.00588  3.742511  0.007  0.168219  0.000965  3.987019  0.002  0.17621  0.001496  4.007338  0.003  0.120131  0.162363  0.00106  3.974043  0.002
C  C29  1  0.77102535  0.50332074  0.60953128  1  0.170197  -0.005874  3.742622  -0.007  0.168254  -0.000963  3.987122  -0.002  0.176242  -0.001498  4.007441  -0.003  0.120142  0.162357  -0.00106  3.974206  -0.002
C  C30  1  0.29354383  0.55086765  0.54156284  1  -0.132792  -0.006486  3.68641  -0.008  -0.151978  -0.002291  3.936789  -0.003  -0.158951  -0.002295  3.957164  -0.003  -0.077854  -0.147206  -0.002398  3.923195  -0.003
C  C31  1  0.70644778  0.44912616  0.45843647  1  -0.1328  0.006476  3.686535  0.008  -0.151953  0.002289  3.936915  0.003  -0.158936  0.002297  3.957287  0.003  -0.077848  -0.147169  0.002399  3.923343  0.003
C  C32  1  0.44511296  0.70626390  0.62794917  1  0.000359  0.009731  3.724644  0.011  -0.018757  0.003374  3.974642  0.004  -0.013651  0.003102  3.991115  0.003  -0.068749  -0.022515  0.004265  3.963472  0.005
C  C33  1  0.55488825  0.29372850  0.37205368  1  0.000389  -0.009723  3.724904  -0.011  -0.018745  -0.003374  3.974914  -0.004  -0.01364  -0.003102  3.991392  -0.003  -0.068775  -0.02251  -0.004264  3.96375  -0.005
C  C34  1  0.52787606  0.80422058  0.56197117  1  -0.11759  -0.008252  3.719261  -0.01  -0.12687  -0.003096  3.964275  -0.004  -0.134485  -0.003  3.985068  -0.004  -0.079552  -0.122094  -0.0034  3.950602  -0.004
C  C35  1  0.47213098  0.19577173  0.43803328  1  -0.117434  0.008244  3.719455  0.01  -0.126711  0.003096  3.964439  0.004  -0.134325  0.002999  3.98523  0.004  -0.079448  -0.121926  0.0034  3.950756  0.004
C  C36  1  0.45740407  0.74206433  0.41069598  1  0.137532  0.00935  3.687801  0.011  0.108659  0.002717  3.945107  0.004  0.118211  0.003091  3.962508  0.005  0.054623  0.101417  0.002582  3.933719  0.004
C  C37  1  0.54260011  0.25793419  0.58931022  1  0.13736  -0.009346  3.688075  -0.011  0.108456  -0.002718  3.945379  -0.004  0.118008  -0.003089  3.962779  -0.005  0.054531  0.101216  -0.002581  3.93399  -0.004
N  N38  1  0.01251891  0.31306681  0.14798110  1  -0.290712  -0.054971  3.310589  -0.079  -0.250149  -0.040161  3.58437  -0.059  -0.278497  -0.033965  3.605258  -0.051  -0.319904  -0.231578  -0.044416  3.570837  -0.064
N  N39  1  0.98746779  0.68693203  0.85201546  1  -0.290692  0.054989  3.310685  0.079  -0.250191  0.040163  3.584536  0.059  -0.278532  0.033971  3.605414  0.051  -0.319961  -0.231619  0.044417  3.57102  0.064
N  N40  1  0.31226701  0.59234991  0.32738231  1  -0.296993  -0.056956  3.318503  -0.082  -0.257835  -0.040061  3.594576  -0.059  -0.287133  -0.033777  3.615958  -0.051  -0.320147  -0.238212  -0.044347  3.580793  -0.064
N  N41  1  0.68773285  0.40765486  0.67262258  1  -0.296977  0.056955  3.318662  0.082  -0.257779  0.040061  3.594673  0.059  -0.287069  0.033777  3.616051  0.051  -0.320155  -0.238144  0.044346  3.580914  0.064
N  N42  1  0.02577109  0.38612850  0.88731241  1  -0.492476  0.002593  2.895547  0.005  -0.539905  0.002537  3.252464  0.005  -0.586972  0.00087  3.266024  0.003  -0.298463  -0.50581  0.002396  3.241388  0.005
N  N43  1  0.97422910  0.61388001  0.11268505  1  -0.492536  -0.002575  2.895171  -0.005  -0.539955  -0.002539  3.252078  -0.005  -0.587034  -0.000864  3.265647  -0.003  -0.298434  -0.505848  -0.0024  3.240986  -0.005
N  N44  1  0.05947624  0.31089205  0.77684767  1  0.383397  -0.002062  4.162948  -0.004  0.433837  -0.000615  4.471136  -0.002  0.454689  -0.000794  4.504794  -0.002  0.087139  0.419058  -8e-05  4.445636  -0.001
N  N45  1  0.94051957  0.68911649  0.22315608  1  0.383339  0.002067  4.162856  0.004  0.433774  0.000613  4.471038  0.002  0.454629  0.000796  4.504691  0.002  0.087009  0.419  8e-05  4.445537  0.001
N  N46  1  0.08569069  0.23542557  0.66729222  1  -0.382985  0.006818  2.371611  0.009  -0.398068  0.006046  2.601818  0.008  -0.408376  0.005312  2.611628  0.007  -0.194042  -0.388066  0.006231  2.593405  0.008
N  N47  1  0.91430097  0.76457442  0.33270432  1  -0.382837  -0.006829  2.371894  -0.009  -0.397928  -0.006037  2.60211  -0.008  -0.408224  -0.005316  2.611907  -0.007  -0.19391  -0.387941  -0.006226  2.593701  -0.008
N  N48  1  0.41062678  0.67879682  0.09229586  1  -0.420532  0.043025  2.69761  0.054  -0.459509  0.023828  3.01227  0.032  -0.491383  0.02706  3.023578  0.037  -0.243098  -0.435489  0.022184  3.003431  0.029
N  N49  1  0.58937432  0.32121656  0.90771205  1  -0.420529  -0.043018  2.698063  -0.054  -0.459493  -0.023827  3.012721  -0.032  -0.491356  -0.027062  3.024019  -0.037  -0.243095  -0.43546  -0.022181  3.003865  -0.029
N  N50  1  0.50617934  0.65606862  0.00637265  1  0.37729  -0.002399  4.152103  -0.004  0.433284  -0.001593  4.455737  -0.002  0.454932  -0.001013  4.491723  -0.001  0.085731  0.417199  -0.002569  4.429837  -0.004
N  N51  1  0.49382522  0.34393981  0.99362915  1  0.377414  0.00239  4.15226  0.004  0.433397  0.001588  4.455887  0.002  0.455046  0.001009  4.491873  0.001  0.085804  0.417313  0.002567  4.429988  0.004
N  N52  1  0.39748124  0.35793243  0.07945306  1  -0.42146  0.038691  2.654016  0.046  -0.461355  0.020253  2.956383  0.025  -0.49082  0.024896  2.966552  0.032  -0.244261  -0.438622  0.016916  2.948226  0.019
N  N53  1  0.60251220  0.64207121  0.92055071  1  -0.421332  -0.038682  2.654413  -0.046  -0.461227  -0.02025  2.956792  -0.025  -0.490684  -0.024891  2.966953  -0.032  -0.244166  -0.438486  -0.016913  2.948631  -0.019
