# generated using pymatgen
data_Zn2H22C35N10Cl
_symmetry_space_group_name_H-M   'P 1'
_cell_length_a   10.40943331
_cell_length_b   11.84056177
_cell_length_c   27.17322466
_cell_angle_alpha   89.99997603
_cell_angle_beta   90.00000241
_cell_angle_gamma   91.81206793
_symmetry_Int_Tables_number   1
_chemical_formula_structural   Zn2H22C35N10Cl
_chemical_formula_sum   'Zn8 H88 C140 N40 Cl4'
_cell_volume   3347.52122316
_cell_formula_units_Z   4
loop_
 _symmetry_equiv_pos_site_id
 _symmetry_equiv_pos_as_xyz
  1  'x, y, z'
loop_
 _atom_site_type_symbol
 _atom_site_label
 _atom_site_symmetry_multiplicity
 _atom_site_fract_x
 _atom_site_fract_y
 _atom_site_fract_z
 _atom_site_occupancy
 _atom_site_pbe_bader_charge
 _atom_site_pbe_bader_spin_density
 _atom_site_pbe_cm5_charge
 _atom_site_pbe_ddec_charge
 _atom_site_pbe_ddec_spin_density
 _atom_site_pbe_ddec_sum_bond_order
 _atom_site_pbe_magmom
Zn  Zn0  1  0.34198842  0.70847320  0.19904109  1  1.214098  0  0.721559  0.653199  0  2.539154  0
Zn  Zn1  1  0.15801321  0.29152769  0.69904141  1  1.214115  0  0.721547  0.653179  0  2.539201  0
Zn  Zn2  1  0.65801331  0.29152845  0.80095865  1  1.214099  0  0.72155  0.653158  0  2.53922  0
Zn  Zn3  1  0.84198849  0.70847311  0.30095870  1  1.214098  0  0.721572  0.653225  0  2.539147  0
Zn  Zn4  1  0.20143537  0.86761374  0.00193160  1  1.165917  0  0.644702  0.670483  0  2.553776  0
Zn  Zn5  1  0.29856523  0.13238565  0.50193122  1  1.16592  0  0.644664  0.67039  0  2.553832  0
Zn  Zn6  1  0.79856627  0.13238537  0.99806888  1  1.165918  0  0.644678  0.670429  0  2.553827  0
Zn  Zn7  1  0.70143456  0.86761515  0.49806853  1  1.165872  0  0.644677  0.670459  0  2.553806  0
H  H8  1  0.22877599  0.63943012  0.01990152  1  0.536059  0  0.280981  0.271033  0  1.026813  0
H  H9  1  0.27122365  0.36056925  0.51990146  1  0.536058  0  0.280985  0.27104  0  1.026739  0
H  H10  1  0.77122280  0.36056984  0.98009859  1  0.536049  0  0.281013  0.271113  0  1.026763  0
H  H11  1  0.72877704  0.63942986  0.48009829  1  0.536049  0  0.280986  0.27103  0  1.026797  0
H  H12  1  0.17048428  0.84850784  0.17438997  1  0.52419  0  0.312023  0.266919  0  1.006402  0
H  H13  1  0.32951743  0.15149561  0.67438958  1  0.524204  0  0.312039  0.266877  0  1.006559  0
H  H14  1  0.82951652  0.15149466  0.82561014  1  0.524181  0  0.312016  0.266853  0  1.006509  0
H  H15  1  0.67048340  0.84850773  0.32560979  1  0.524192  0  0.312023  0.266891  0  1.006433  0
H  H16  1  0.21357883  0.40881004  0.19243977  1  0.119195  0  0.103361  0.117007  0  1.016645  0
H  H17  1  0.28641989  0.59119001  0.69243930  1  0.119304  0  0.103364  0.117008  0  1.016728  0
H  H18  1  0.78642090  0.59118907  0.80756035  1  0.119302  0  0.103379  0.117028  0  1.016709  0
H  H19  1  0.71357794  0.40880994  0.30756008  1  0.11916  0  0.103372  0.117031  0  1.016687  0
H  H20  1  0.13257702  0.23495244  0.14940551  1  0.059527  0  0.096807  0.094103  0  1.028656  0
H  H21  1  0.36742074  0.76504765  0.64940538  1  0.059536  0  0.096776  0.094035  0  1.028708  0
H  H22  1  0.86742178  0.76504752  0.85059497  1  0.05954  0  0.096792  0.094058  0  1.028669  0
H  H23  1  0.63257898  0.23495146  0.35059510  1  0.059532  0  0.096778  0.094065  0  1.028663  0
H  H24  1  0.09465025  0.23347009  0.05939889  1  0.082114  0  0.097568  0.099633  0  1.014219  0
H  H25  1  0.40534840  0.76652839  0.55939876  1  0.082102  0  0.09757  0.099566  0  1.014327  0
H  H26  1  0.90534755  0.76652902  0.94060122  1  0.082103  0  0.097566  0.099572  0  1.01427  0
H  H27  1  0.59465136  0.23347157  0.44060135  1  0.082098  0  0.097573  0.099612  0  1.014265  0
H  H28  1  0.13704501  0.40479747  0.00841119  1  0.079025  0  0.105216  0.121347  0  1.014078  0
H  H29  1  0.36295274  0.59520275  0.50841108  1  0.078992  0  0.105223  0.121361  0  1.014096  0
H  H30  1  0.86295378  0.59520249  0.99158856  1  0.079033  0  0.105227  0.121344  0  1.014085  0
H  H31  1  0.63704609  0.40479805  0.49158866  1  0.078994  0  0.105229  0.121367  0  1.014079  0
H  H32  1  0.36127697  0.09659692  0.02824545  1  0.090575  0  0.102868  0.118359  0  1.024027  0
H  H33  1  0.13872363  0.90340244  0.52824565  1  0.09057  0  0.102853  0.118349  0  1.024063  0
H  H34  1  0.63872276  0.90340219  0.97175467  1  0.090557  0  0.102846  0.118348  0  1.024049  0
H  H35  1  0.86127801  0.09659667  0.47175446  1  0.090579  0  0.102858  0.118357  0  1.024026  0
H  H36  1  0.43723313  0.24697818  0.08612851  1  0.049516  0  0.101445  0.104652  0  0.998278  0
H  H37  1  0.06276744  0.75302029  0.58612838  1  0.049521  0  0.101448  0.104674  0  0.99828  0
H  H38  1  0.56276755  0.75302094  0.91387123  1  0.049531  0  0.101454  0.104671  0  0.998268  0
H  H39  1  0.93723324  0.24697883  0.41387137  1  0.049503  0  0.101419  0.104647  0  0.998292  0
H  H40  1  0.46888652  0.20639468  0.17460716  1  0.061969  0  0.099755  0.09843  0  1.009314  0
H  H41  1  0.03111409  0.79360454  0.67460702  1  0.061962  0  0.099731  0.098392  0  1.009341  0
H  H42  1  0.53111323  0.79360527  0.82539258  1  0.061958  0  0.099746  0.09842  0  1.00933  0
H  H43  1  0.96888756  0.20639457  0.32539273  1  0.061954  0  0.099765  0.09843  0  1.009339  0
H  H44  1  0.43115815  0.01285079  0.20827157  1  0.077222  0  0.099897  0.11237  0  1.043163  0
H  H45  1  0.06884150  0.98714840  0.70827176  1  0.077214  0  0.099907  0.11239  0  1.043168  0
H  H46  1  0.56884160  0.98714917  0.79172855  1  0.077218  0  0.099888  0.112339  0  1.043194  0
H  H47  1  0.93115822  0.01285071  0.29172836  1  0.077216  0  0.099899  0.112361  0  1.043177  0
H  H48  1  0.34880575  0.34021568  0.32681323  1  0.063793  0  0.096789  0.10013  0  1.016127  0
H  H49  1  0.15119592  0.65978594  0.82681311  1  0.06381  0  0.096798  0.100126  0  1.016165  0
H  H50  1  0.65119499  0.65978513  0.67318652  1  0.063794  0  0.096796  0.100134  0  1.016142  0
H  H51  1  0.84880483  0.34021487  0.17318700  1  0.063807  0  0.096793  0.100145  0  1.016117  0
H  H52  1  0.39230839  0.49146486  0.26464834  1  0.076675  0  0.100801  0.113124  0  1.030733  0
H  H53  1  0.10769226  0.50853512  0.76464825  1  0.076683  0  0.100811  0.113135  0  1.030726  0
H  H54  1  0.60769236  0.50853595  0.73535177  1  0.07669  0  0.10081  0.113155  0  1.030706  0
H  H55  1  0.89230845  0.49146483  0.23535223  1  0.076676  0  0.100803  0.113139  0  1.030728  0
H  H56  1  0.08283364  0.03988765  0.11894503  1  0.079705  0  0.104213  0.11973  0  1.001685  0
H  H57  1  0.41716414  0.96011331  0.61894559  1  0.079732  0  0.104225  0.119739  0  1.001682  0
H  H58  1  0.91716518  0.96011315  0.88105435  1  0.079732  0  0.104224  0.119732  0  1.001694  0
H  H59  1  0.58283369  0.03988664  0.38105489  1  0.07971  0  0.104193  0.119722  0  1.001682  0
H  H60  1  0.89071496  0.16249790  0.11391139  1  0.105646  0  0.088443  0.092734  0  1.057688  0
H  H61  1  0.60928389  0.83750215  0.61391308  1  0.105653  0  0.088464  0.092769  0  1.057727  0
H  H62  1  0.10928188  0.83750121  0.88608725  1  0.105777  0  0.088453  0.092759  0  1.057747  0
H  H63  1  0.39071394  0.16249780  0.38608850  1  0.105642  0  0.088438  0.092726  0  1.057672  0
H  H64  1  0.14323263  0.32736156  0.37174201  1  0.108404  0  0.087591  0.099978  0  1.050972  0
H  H65  1  0.35676611  0.67263832  0.87174226  1  0.108394  0  0.087584  0.099956  0  1.050992  0
H  H66  1  0.85676614  0.67263755  0.62825810  1  0.108404  0  0.087591  0.099968  0  1.051005  0
H  H67  1  0.64323368  0.32736249  0.12825822  1  0.108424  0  0.087604  0.100005  0  1.050948  0
H  H68  1  0.97103655  0.46543823  0.35698814  1  0.076827  0  0.099966  0.112789  0  1.027563  0
H  H69  1  0.52896328  0.53456159  0.85698952  1  0.076797  0  0.10002  0.112848  0  1.027477  0
H  H70  1  0.02896221  0.53456088  0.64301086  1  0.076824  0  0.099984  0.112762  0  1.027583  0
H  H71  1  0.47103651  0.46543922  0.14301170  1  0.076827  0  0.099968  0.112766  0  1.027581  0
H  H72  1  0.69688042  0.97341109  0.22935069  1  0.063451  0  0.099929  0.109525  0  1.018931  0
H  H73  1  0.80312037  0.02658885  0.72935142  1  0.063446  0  0.099901  0.109449  0  1.018948  0
H  H74  1  0.30311841  0.02658971  0.77064869  1  0.063328  0  0.099905  0.109456  0  1.018903  0
H  H75  1  0.19688038  0.97341195  0.27064942  1  0.063452  0  0.099935  0.109536  0  1.018917  0
H  H76  1  0.70313964  0.12864679  0.16734450  1  0.063145  0  0.096711  0.096546  0  1.029991  0
H  H77  1  0.79685724  0.87135151  0.66734582  1  0.063193  0  0.096701  0.096541  0  1.02999  0
H  H78  1  0.29685715  0.87135063  0.83265414  1  0.063176  0  0.096693  0.096541  0  1.029964  0
H  H79  1  0.20314057  0.12864760  0.33265576  1  0.063146  0  0.096693  0.09655  0  1.029971  0
H  H80  1  0.77564770  0.60178920  0.12465722  1  0.079835  0  0.090799  0.090992  0  1.05955  0
H  H81  1  0.72435019  0.39821084  0.62465679  1  0.079777  0  0.090792  0.090973  0  1.059567  0
H  H82  1  0.22435109  0.39821076  0.87534326  1  0.079836  0  0.090801  0.09098  0  1.059564  0
H  H83  1  0.27564765  0.60178911  0.37534259  1  0.079838  0  0.090801  0.09099  0  1.05956  0
H  H84  1  0.98312864  0.65385188  0.08391601  1  0.061554  0  0.09584  0.10684  0  1.0303  0
H  H85  1  0.51687018  0.34614735  0.58391558  1  0.061549  0  0.095845  0.106882  0  1.030279  0
H  H86  1  0.01687012  0.34614723  0.91608447  1  0.061556  0  0.095844  0.106876  0  1.030267  0
H  H87  1  0.48312859  0.65385176  0.41608380  1  0.061564  0  0.09582  0.106794  0  1.030302  0
H  H88  1  0.60652377  0.91219718  0.07642699  1  0.07597  0  0.098058  0.111261  0  1.023879  0
H  H89  1  0.89347706  0.08780459  0.57642735  1  0.075967  0  0.098063  0.111287  0  1.023912  0
H  H90  1  0.39347601  0.08780362  0.92357275  1  0.075968  0  0.098065  0.111273  0  1.023901  0
H  H91  1  0.10652372  0.91219706  0.42357313  1  0.075972  0  0.098057  0.111245  0  1.02388  0
H  H92  1  0.59155644  0.72841131  0.12158691  1  0.081847  0  0.089059  0.088803  0  1.042685  0
H  H93  1  0.90844247  0.27159042  0.62158650  1  0.081873  0  0.089046  0.08879  0  1.042648  0
H  H94  1  0.40844337  0.27159034  0.87841431  1  0.081884  0  0.089046  0.088792  0  1.042649  0
H  H95  1  0.09155635  0.72841038  0.37841325  1  0.081851  0  0.089061  0.088802  0  1.042688  0
C  C96  1  0.22084373  0.50540768  0.12428554  1  0.387992  0  0.088746  0.146959  0  4.056323  0
C  C97  1  0.27915682  0.49458990  0.62428545  1  0.387883  0  0.088746  0.146897  0  4.056364  0
C  C98  1  0.77915597  0.49459058  0.87571458  1  0.387905  0  0.088736  0.146903  0  4.056317  0
C  C99  1  0.72084479  0.50540837  0.37571393  1  0.387789  0  0.0887  0.146884  0  4.056314  0
C  C100  1  0.19709933  0.40840967  0.15282246  1  -0.117136  0  -0.094726  -0.160768  0  3.976068  0
C  C101  1  0.30290125  0.59158873  0.65282273  1  -0.117237  0  -0.09473  -0.160778  0  3.976015  0
C  C102  1  0.80290135  0.59158945  0.84717729  1  -0.11724  0  -0.094728  -0.160801  0  3.97608  0
C  C103  1  0.69709848  0.40841038  0.34717739  1  -0.117032  0  -0.094709  -0.160773  0  3.976082  0
C  C104  1  0.15207712  0.31189221  0.12838555  1  -0.015539  0  -0.094765  -0.089124  0  4.035074  0
C  C105  1  0.34792348  0.68810706  0.62838543  1  -0.015513  0  -0.094752  -0.089059  0  4.035015  0
C  C106  1  0.84792356  0.68810690  0.87161457  1  -0.015526  0  -0.094776  -0.089086  0  4.035015  0
C  C107  1  0.65207723  0.31189290  0.37161432  1  -0.01552  0  -0.094739  -0.089068  0  4.035018  0
C  C108  1  0.13062201  0.31086177  0.07702580  1  0.02516  0  -0.090731  -0.073924  0  4.018258  0
C  C109  1  0.36937860  0.68913755  0.57702568  1  0.025193  0  -0.090695  -0.073793  0  4.018264  0
C  C110  1  0.86937772  0.68913735  0.92297432  1  0.025199  0  -0.090733  -0.073865  0  4.01827  0
C  C111  1  0.63062212  0.31086241  0.42297444  1  0.025198  0  -0.090729  -0.073873  0  4.018267  0
C  C112  1  0.15315583  0.40633288  0.04804505  1  0.022623  0  -0.094366  -0.170442  0  3.981874  0
C  C113  1  0.34684378  0.59366561  0.54804495  1  0.022654  0  -0.094367  -0.170491  0  3.981886  0
C  C114  1  0.84684386  0.59366538  0.95195506  1  0.022598  0  -0.094364  -0.170444  0  3.981912  0
C  C115  1  0.65315598  0.40633434  0.45195479  1  0.022652  0  -0.094373  -0.170483  0  3.981902  0
C  C116  1  0.19820878  0.50352718  0.07259421  1  0.308578  0  0.099055  0.150685  0  4.004685  0
C  C117  1  0.30179183  0.49647214  0.57259413  1  0.308567  0  0.099074  0.150718  0  4.004734  0
C  C118  1  0.80179194  0.49647278  0.92740590  1  0.308565  0  0.099089  0.15078  0  4.004758  0
C  C119  1  0.69820793  0.50352782  0.42740562  1  0.308575  0  0.099067  0.150697  0  4.004751  0
C  C120  1  0.26853802  0.67361833  0.09588919  1  1.036196  0  0.223422  0.246118  0  4.055056  0
C  C121  1  0.23146258  0.32638097  0.59588913  1  1.036165  0  0.223431  0.246151  0  4.054997  0
C  C122  1  0.73146266  0.32638078  0.90411056  1  1.036171  0  0.223416  0.246131  0  4.055076  0
C  C123  1  0.76853810  0.67361815  0.40411061  1  1.036207  0  0.22343  0.246153  0  4.055021  0
C  C124  1  0.30672496  0.79168415  0.09893850  1  0.966493  0  0.210241  0.241081  0  4.089779  0
C  C125  1  0.19327658  0.20831430  0.59893847  1  0.966468  0  0.210168  0.240964  0  4.089575  0
C  C126  1  0.69327570  0.20831412  0.90106198  1  0.966466  0  0.210158  0.240963  0  4.089627  0
C  C127  1  0.80672411  0.79168481  0.40106128  1  0.966594  0  0.210235  0.24105  0  4.089644  0
C  C128  1  0.35348940  0.96931865  0.08609165  1  0.322969  0  0.080122  0.138763  0  4.05323  0
C  C129  1  0.14651406  0.03067982  0.58609201  1  0.322959  0  0.080148  0.13884  0  4.053173  0
C  C130  1  0.64651318  0.03067963  0.91390847  1  0.322959  0  0.080127  0.138821  0  4.053206  0
C  C131  1  0.85348855  0.96931930  0.41390810  1  0.32297  0  0.080175  0.138842  0  4.053166  0
C  C132  1  0.37649965  0.07797683  0.06701781  1  0.026329  0  -0.10091  -0.17616  0  3.996495  0
C  C133  1  0.12350284  0.92202166  0.56701801  1  0.026298  0  -0.100874  -0.176149  0  3.996505  0
C  C134  1  0.62350197  0.92202144  0.93298231  1  0.026333  0  -0.100883  -0.176199  0  3.996512  0
C  C135  1  0.87649976  0.07797746  0.43298174  1  0.026345  0  -0.100905  -0.176136  0  3.996454  0
C  C136  1  0.41800108  0.16160468  0.09979013  1  -0.029522  0  -0.094019  -0.082972  0  4.040567  0
C  C137  1  0.08199950  0.83839377  0.59979035  1  -0.029514  0  -0.094038  -0.083036  0  4.040688  0
C  C138  1  0.58199865  0.83839443  0.90020961  1  -0.029563  0  -0.094033  -0.082987  0  4.040597  0
C  C139  1  0.91800215  0.16160535  0.40020976  1  -0.029536  0  -0.093992  -0.083022  0  4.040568  0
C  C140  1  0.43661524  0.13808561  0.15020373  1  -0.018368  0  -0.09509  -0.087687  0  4.031376  0
C  C141  1  0.06338342  0.86191279  0.65020358  1  -0.018512  0  -0.095062  -0.087597  0  4.031344  0
C  C142  1  0.56338448  0.86191350  0.84979638  1  -0.018385  0  -0.095104  -0.08772  0  4.031427  0
C  C143  1  0.93661631  0.13808632  0.34979617  1  -0.018494  0  -0.095129  -0.087715  0  4.031405  0
C  C144  1  0.41581149  0.03019992  0.16946388  1  -0.004764  0  -0.098208  -0.164963  0  3.977705  0
C  C145  1  0.08418816  0.96979931  0.66946407  1  -0.004621  0  -0.098236  -0.165027  0  3.977706  0
C  C146  1  0.58418824  0.96979920  0.83053587  1  -0.004754  0  -0.098195  -0.164902  0  3.977709  0
C  C147  1  0.91581252  0.03019980  0.33053604  1  -0.004639  0  -0.098214  -0.164951  0  3.977704  0
C  C148  1  0.37379339  0.94495376  0.13684418  1  0.313666  0  0.084976  0.152197  0  4.030775  0
C  C149  1  0.12620911  0.05504465  0.63684454  1  0.313664  0  0.084985  0.152153  0  4.030776  0
C  C150  1  0.62620823  0.05504451  0.86315593  1  0.313687  0  0.084999  0.152195  0  4.030711  0
C  C151  1  0.87379350  0.94495446  0.36315557  1  0.313646  0  0.084981  0.152192  0  4.030733  0
C  C152  1  0.27546051  0.40128450  0.31874204  1  -0.071805  0  -0.099258  -0.089986  0  4.026674  0
C  C153  1  0.22453916  0.59871458  0.81874230  1  -0.071924  0  -0.099241  -0.089974  0  4.026815  0
C  C154  1  0.72453823  0.59871376  0.68125807  1  -0.071915  0  -0.099237  -0.089925  0  4.026774  0
C  C155  1  0.77546063  0.40128622  0.18125818  1  -0.071812  0  -0.099258  -0.089972  0  4.026708  0
C  C156  1  0.30072964  0.48550854  0.28402440  1  0.032466  0  -0.100561  -0.174743  0  4.003105  0
C  C157  1  0.19927007  0.51449226  0.78402505  1  0.032458  0  -0.10059  -0.174741  0  4.003242  0
C  C158  1  0.69927110  0.51449226  0.71597498  1  0.032439  0  -0.10062  -0.174854  0  4.003248  0
C  C159  1  0.80072875  0.48550854  0.21597580  1  0.032447  0  -0.100597  -0.174803  0  4.003219  0
C  C160  1  0.20413944  0.56320251  0.27553037  1  0.301994  0  0.085909  0.145101  0  4.031346  0
C  C161  1  0.29586025  0.43679746  0.77553066  1  0.302292  0  0.085951  0.145072  0  4.031325  0
C  C162  1  0.79586034  0.43679829  0.72446974  1  0.302142  0  0.085911  0.145127  0  4.031194  0
C  C163  1  0.70414047  0.56320250  0.22446982  1  0.301987  0  0.085895  0.145046  0  4.031403  0
C  C164  1  0.08404338  0.69936741  0.25190342  1  1.037351  0  0.212341  0.242494  0  4.094715  0
C  C165  1  0.41595829  0.30063427  0.75190190  1  1.037193  0  0.212329  0.242535  0  4.094652  0
C  C166  1  0.91595833  0.30063339  0.74809779  1  1.037229  0  0.212316  0.24251  0  4.094772  0
C  C167  1  0.58404348  0.69936822  0.24809674  1  1.037331  0  0.21231  0.242429  0  4.094749  0
C  C168  1  0.02940694  0.79490173  0.22750255  1  1.020887  0  0.226942  0.253455  0  4.053585  0
C  C169  1  0.47059577  0.20510251  0.72750253  1  1.021331  0  0.226966  0.253368  0  4.053617  0
C  C170  1  0.97059584  0.20510245  0.77249756  1  1.021318  0  0.226987  0.253443  0  4.053648  0
C  C171  1  0.52940605  0.79490167  0.27249685  1  1.020878  0  0.226946  0.253442  0  4.053574  0
C  C172  1  0.99508198  0.93937671  0.17769690  1  0.358432  0  0.09633  0.148814  0  4.017246  0
C  C173  1  0.50491772  0.06061990  0.67769505  1  0.358346  0  0.096423  0.149056  0  4.017097  0
C  C174  1  0.00491768  0.06062071  0.82230468  1  0.358342  0  0.096405  0.148966  0  4.0172  0
C  C175  1  0.49508195  0.93937753  0.32230322  1  0.358422  0  0.096353  0.148848  0  4.017305  0
C  C176  1  0.00001489  0.02636103  0.14305700  1  -0.010951  0  -0.098636  -0.172679  0  3.993608  0
C  C177  1  0.49998491  0.97364245  0.64305904  1  -0.011031  0  -0.098666  -0.172743  0  3.993898  0
C  C178  1  0.99998501  0.97364316  0.85694128  1  -0.011028  0  -0.09864  -0.172678  0  3.993802  0
C  C179  1  0.50001493  0.02636004  0.35694292  1  -0.011002  0  -0.098636  -0.172711  0  3.993749  0
C  C180  1  0.89304112  0.09390457  0.14060679  1  -0.057697  0  -0.096531  -0.081489  0  4.017936  0
C  C181  1  0.60695671  0.90609376  0.64060700  1  -0.057588  0  -0.096544  -0.081505  0  4.017755  0
C  C182  1  0.10695665  0.90609369  0.85939332  1  -0.057719  0  -0.096574  -0.081567  0  4.017745  0
C  C183  1  0.39304199  0.09390366  0.35939311  1  -0.057654  0  -0.096541  -0.081491  0  4.017969  0
C  C184  1  0.15741603  0.39374025  0.34437499  1  -0.049762  0  -0.103345  -0.095814  0  4.037859  0
C  C185  1  0.34258463  0.60625966  0.84437563  1  -0.049659  0  -0.103314  -0.095733  0  4.037782  0
C  C186  1  0.84258373  0.60625971  0.65562438  1  -0.049691  0  -0.103322  -0.095812  0  4.037797  0
C  C187  1  0.65741612  0.39374115  0.15562522  1  -0.049753  0  -0.103335  -0.095829  0  4.037819  0
C  C188  1  0.06126709  0.47068204  0.33667586  1  -0.052068  0  -0.098984  -0.16976  0  3.989741  0
C  C189  1  0.43873257  0.52931703  0.83667651  1  -0.052084  0  -0.099016  -0.169842  0  3.989729  0
C  C190  1  0.93873161  0.52931538  0.66332351  1  -0.05201  0  -0.099016  -0.169711  0  3.989789  0
C  C191  1  0.56126718  0.47068293  0.16332434  1  -0.052082  0  -0.098957  -0.169701  0  3.989714  0
C  C192  1  0.08571670  0.55625760  0.30198840  1  0.405695  0  0.088379  0.150918  0  4.053956  0
C  C193  1  0.41428398  0.44374319  0.80198980  1  0.405691  0  0.088329  0.150964  0  4.053788  0
C  C194  1  0.91428498  0.44374236  0.69801098  1  0.405689  0  0.088335  0.150878  0  4.053927  0
C  C195  1  0.58571676  0.55625761  0.19801105  1  0.405709  0  0.088334  0.150903  0  4.053869  0
C  C196  1  0.88768832  0.91938883  0.20928094  1  0.419071  0  0.089  0.146527  0  4.046643  0
C  C197  1  0.61231444  0.08061282  0.70928129  1  0.419149  0  0.088981  0.146403  0  4.046581  0
C  C198  1  0.11231341  0.08061282  0.79071881  1  0.419121  0  0.08899  0.146418  0  4.046565  0
C  C199  1  0.38768729  0.91938883  0.29071919  1  0.419071  0  0.089009  0.146527  0  4.04663  0
C  C200  1  0.78059067  0.98786846  0.20585697  1  -0.041897  0  -0.093274  -0.155622  0  3.980012  0
C  C201  1  0.71940717  0.01212981  0.70585697  1  -0.041951  0  -0.093249  -0.155537  0  3.980196  0
C  C202  1  0.21940714  0.01213065  0.79414351  1  -0.041796  0  -0.093236  -0.15551  0  3.980071  0
C  C203  1  0.28059060  0.98786845  0.29414314  1  -0.041917  0  -0.093279  -0.155644  0  3.980022  0
C  C204  1  0.78530281  0.07460058  0.17129141  1  -0.034659  0  -0.095868  -0.086412  0  4.01441  0
C  C205  1  0.71469799  0.92540026  0.67129345  1  -0.034698  0  -0.095832  -0.086382  0  4.014353  0
C  C206  1  0.21469793  0.92540022  0.82870686  1  -0.034676  0  -0.095828  -0.08637  0  4.014318  0
C  C207  1  0.28530275  0.07460054  0.32870887  1  -0.034647  0  -0.095854  -0.086408  0  4.014386  0
C  C208  1  0.78559797  0.68147016  0.10477993  1  -0.066874  0  -0.103962  -0.089054  0  4.027981  0
C  C209  1  0.71440283  0.31853075  0.60477987  1  -0.066747  0  -0.103955  -0.088979  0  4.027975  0
C  C210  1  0.21440277  0.31853065  0.89522019  1  -0.06685  0  -0.103962  -0.088991  0  4.028014  0
C  C211  1  0.28559792  0.68147006  0.39522024  1  -0.066891  0  -0.103954  -0.089051  0  4.028038  0
C  C212  1  0.90206397  0.70974505  0.08194311  1  -0.047178  0  -0.106934  -0.174846  0  4.004219  0
C  C213  1  0.59793296  0.29025503  0.58194232  1  -0.047259  0  -0.106942  -0.174912  0  4.004114  0
C  C214  1  0.09793287  0.29025406  0.91805774  1  -0.047187  0  -0.106934  -0.174894  0  4.004116  0
C  C215  1  0.40206298  0.70974577  0.41805669  1  -0.047178  0  -0.106929  -0.174789  0  4.004216  0
C  C216  1  0.91105889  0.81226230  0.05627150  1  0.36976  0  0.083243  0.153895  0  4.033235  0
C  C217  1  0.58894188  0.18773780  0.55627074  1  0.369767  0  0.083228  0.153872  0  4.033224  0
C  C218  1  0.08894183  0.18773766  0.94372935  1  0.369754  0  0.083234  0.153893  0  4.033247  0
C  C219  1  0.41105884  0.81226215  0.44372901  1  0.369792  0  0.083217  0.153833  0  4.03326  0
C  C220  1  0.96286783  0.96036287  0.01429046  1  1.040843  0  0.193383  0.225921  0  4.191342  0
C  C221  1  0.53713483  0.03963643  0.51429008  1  0.979569  0  0.193455  0.226026  0  4.191311  0
C  C222  1  0.03713379  0.03963540  0.98570966  1  0.979548  0  0.193488  0.226034  0  4.191303  0
C  C223  1  0.46286682  0.96036269  0.48570929  1  1.040854  0  0.19343  0.22598  0  4.19139  0
C  C224  1  0.80343175  0.88508157  0.05410429  1  0.340988  0  0.086616  0.154533  0  4.031942  0
C  C225  1  0.69656706  0.11491769  0.55410317  1  0.341034  0  0.086638  0.154588  0  4.031964  0
C  C226  1  0.19656602  0.11491670  0.94589693  1  0.341051  0  0.086618  0.154568  0  4.032027  0
C  C227  1  0.30343077  0.88508226  0.44589621  1  0.34099  0  0.086615  0.154546  0  4.031934  0
C  C228  1  0.68739296  0.85592351  0.07748466  1  0.04461  0  -0.100892  -0.166247  0  3.994243  0
C  C229  1  0.81260976  0.14407743  0.57748537  1  0.044676  0  -0.10091  -0.166276  0  3.994287  0
C  C230  1  0.31260971  0.14407730  0.92251472  1  0.044687  0  -0.100907  -0.166236  0  3.994212  0
C  C231  1  0.18739288  0.85592254  0.42251547  1  0.044618  0  -0.100902  -0.166225  0  3.994251  0
C  C232  1  0.68024445  0.75340645  0.10265430  1  -0.072078  0  -0.106437  -0.0912  0  4.027872  0
C  C233  1  0.81975347  0.24659445  0.60265315  1  -0.072164  0  -0.106432  -0.091254  0  4.02805  0
C  C234  1  0.31975245  0.24659435  0.89734692  1  -0.072182  0  -0.106425  -0.091265  0  4.028094  0
C  C235  1  0.18024437  0.75340550  0.39734622  1  -0.072089  0  -0.10642  -0.091189  0  4.027895  0
N  N236  1  0.26610081  0.61223537  0.13728509  1  -1.197033  0  -0.346882  -0.381696  0  3.435713  0
N  N237  1  0.23390076  0.38776389  0.63728502  1  -1.19694  0  -0.346902  -0.381704  0  3.435793  0
N  N238  1  0.73389987  0.38776374  0.86271502  1  -1.196945  0  -0.346908  -0.381718  0  3.435755  0
N  N239  1  0.76610092  0.61223607  0.36271472  1  -1.19695  0  -0.346896  -0.38173  0  3.435693  0
N  N240  1  0.22936210  0.61150592  0.05613278  1  -1.28844  0  -0.368327  -0.280637  0  3.582934  0
N  N241  1  0.27063754  0.38849341  0.55613271  1  -1.288413  0  -0.368352  -0.280654  0  3.582806  0
N  N242  1  0.77063763  0.38849319  0.94386770  1  -1.288402  0  -0.368338  -0.28072  0  3.582966  0
N  N243  1  0.72936314  0.61150570  0.44386703  1  -1.288423  0  -0.36833  -0.280612  0  3.582954  0
N  N244  1  0.34223287  0.83150601  0.14419628  1  -1.209554  0  -0.362375  -0.403568  0  3.470732  0
N  N245  1  0.15776774  0.16849324  0.64419662  1  -1.209502  0  -0.362326  -0.403482  0  3.470372  0
N  N246  1  0.65776689  0.16849395  0.85580346  1  -1.209475  0  -0.362308  -0.40347  0  3.470345  0
N  N247  1  0.84223198  0.83150587  0.35580349  1  -1.209542  0  -0.362341  -0.403511  0  3.47046  0
N  N248  1  0.31021127  0.87047344  0.06300938  1  -1.239578  0  -0.365342  -0.375507  0  3.497104  0
N  N249  1  0.18979024  0.12952420  0.56300972  1  -1.239559  0  -0.365343  -0.375455  0  3.497194  0
N  N250  1  0.68979035  0.12952483  0.93699037  1  -1.239579  0  -0.365341  -0.375474  0  3.497205  0
N  N251  1  0.81021138  0.87047407  0.43699039  1  -1.239656  0  -0.365393  -0.375566  0  3.497225  0
N  N252  1  0.19958857  0.65490485  0.24397209  1  -1.214219  0  -0.361763  -0.361465  0  3.513265  0
N  N253  1  0.30041313  0.34509769  0.74397203  1  -1.214212  0  -0.361845  -0.361567  0  3.513402  0
N  N254  1  0.80041317  0.34509680  0.75602839  1  -1.214101  0  -0.361757  -0.361502  0  3.513325  0
N  N255  1  0.69958866  0.65490565  0.25602771  1  -1.214221  0  -0.361766  -0.361443  0  3.513279  0
N  N256  1  0.08228063  0.85846915  0.19025780  1  -1.30595  0  -0.377846  -0.293611  0  3.602618  0
N  N257  1  0.41771821  0.14153428  0.69025631  1  -1.305909  0  -0.37795  -0.293681  0  3.602577  0
N  N258  1  0.91771828  0.14153419  0.80974342  1  -1.305891  0  -0.3779  -0.293598  0  3.602599  0
N  N259  1  0.58228070  0.85846906  0.30974233  1  -1.305927  0  -0.377827  -0.293548  0  3.602568  0
N  N260  1  0.01211723  0.64413579  0.28644073  1  -1.253314  0  -0.369649  -0.37906  0  3.530112  0
N  N261  1  0.48788440  0.35586502  0.78644068  1  -1.253429  0  -0.369589  -0.379019  0  3.529972  0
N  N262  1  0.98788447  0.35586501  0.71355975  1  -1.253455  0  -0.369595  -0.379023  0  3.530187  0
N  N263  1  0.51211733  0.64413663  0.21355944  1  -1.253293  0  -0.369599  -0.378992  0  3.53003  0
N  N264  1  0.91314153  0.82963628  0.24018526  1  -1.200451  0  -0.33585  -0.382289  0  3.353927  0
N  N265  1  0.58685838  0.17036618  0.74018413  1  -1.200932  0  -0.335852  -0.382196  0  3.354004  0
N  N266  1  0.08685831  0.17036621  0.75981595  1  -1.200934  0  -0.335852  -0.382228  0  3.354015  0
N  N267  1  0.41314147  0.82963631  0.25981488  1  -1.200461  0  -0.335858  -0.382277  0  3.353925  0
N  N268  1  0.01191752  0.86332399  0.03020355  1  -1.257584  0  -0.364542  -0.403275  0  3.439043  0
N  N269  1  0.48808404  0.13667538  0.53020243  1  -1.257543  0  -0.364552  -0.403288  0  3.439077  0
N  N270  1  0.98808317  0.13667513  0.96979730  1  -1.25755  0  -0.364596  -0.403365  0  3.439006  0
N  N271  1  0.51191763  0.86332458  0.46979658  1  -1.257545  0  -0.364561  -0.403314  0  3.439209  0
N  N272  1  0.84013041  0.97950228  0.02666698  1  -1.246012  0  -0.368958  -0.389133  0  3.486791  0
N  N273  1  0.65987035  0.02049786  0.52666698  1  -1.246094  0  -0.368994  -0.389223  0  3.486899  0
N  N274  1  0.15987030  0.02049768  0.97333314  1  -1.246103  0  -0.368985  -0.389213  0  3.486996  0
N  N275  1  0.34013036  0.97950210  0.47333314  1  -1.246043  0  -0.368971  -0.38917  0  3.486843  0
Cl  Cl276  1  0.24028717  0.72277150  0.95255085  1  -0.645314  0  -0.274068  -0.463306  0  1.265184  0
Cl  Cl277  1  0.25971448  0.27722915  0.45255024  1  -0.645321  0  -0.274037  -0.463248  0  1.265207  0
Cl  Cl278  1  0.75971354  0.27722846  0.04744926  1  -0.645312  0  -0.274061  -0.463295  0  1.26521  0
Cl  Cl279  1  0.74028720  0.72277081  0.54744914  1  -0.645307  0  -0.274057  -0.463291  0  1.265178  0
