# generated using pymatgen
data_ZnH4(C2N3)2
_symmetry_space_group_name_H-M   'P 1'
_cell_length_a   12.52033186
_cell_length_b   12.52033277
_cell_length_c   12.52033871
_cell_angle_alpha   59.99999428
_cell_angle_beta   60.00000732
_cell_angle_gamma   59.99997923
_symmetry_Int_Tables_number   1
_chemical_formula_structural   ZnH4(C2N3)2
_chemical_formula_sum   'Zn6 H24 C24 N36'
_cell_volume   1387.81868176
_cell_formula_units_Z   6
loop_
 _symmetry_equiv_pos_site_id
 _symmetry_equiv_pos_as_xyz
  1  'x, y, z'
loop_
 _atom_site_type_symbol
 _atom_site_label
 _atom_site_symmetry_multiplicity
 _atom_site_fract_x
 _atom_site_fract_y
 _atom_site_fract_z
 _atom_site_occupancy
 _atom_site_hle17_bader_spin_density
 _atom_site_hle17_ddec_charge
 _atom_site_hle17_ddec_spin_density
 _atom_site_hle17_ddec_sum_bond_order
 _atom_site_hle17_magmom
 _atom_site_hse06_10hf_bader_spin_density
 _atom_site_hse06_10hf_ddec_charge
 _atom_site_hse06_10hf_ddec_spin_density
 _atom_site_hse06_10hf_ddec_sum_bond_order
 _atom_site_hse06_10hf_magmom
 _atom_site_hse06_bader_spin_density
 _atom_site_hse06_ddec_charge
 _atom_site_hse06_ddec_spin_density
 _atom_site_hse06_ddec_sum_bond_order
 _atom_site_hse06_magmom
 _atom_site_pbe_bader_spin_density
 _atom_site_pbe_cm5_charge
 _atom_site_pbe_ddec_charge
 _atom_site_pbe_ddec_spin_density
 _atom_site_pbe_ddec_sum_bond_order
 _atom_site_pbe_magmom
Zn  Zn0  1  0.50000021  0.50000002  0.50000014  1  0  0.752513  0  2.150284  0  0  0.546181  0  2.603638  0  0  0.585372  0  2.567371  0  0  0.696375  0.518964  0  2.628559  0
Zn  Zn1  1  0.00000005  0.49999956  0.50000015  1  0  0.752503  0  2.150309  0  0  0.546169  0  2.603664  0  0  0.585359  0  2.567393  0  0  0.696368  0.518952  0  2.628584  0
Zn  Zn2  1  0.99999992  0.49999991  0.00000036  1  0  0.75256  0  2.150237  0  0  0.546236  0  2.603585  0  0  0.585427  0  2.567314  0  0  0.696387  0.519017  0  2.628508  0
Zn  Zn3  1  0.00000056  0.99999970  0.50000007  1  0  0.75253  0  2.150262  0  0  0.546206  0  2.603605  0  0  0.585403  0  2.567335  0  0  0.696415  0.518992  0  2.628523  0
Zn  Zn4  1  0.12500018  0.62499965  0.62499994  1  0  0.723138  0  2.121952  0  0  0.485516  0  2.603968  0  0  0.527153  0  2.56534  0  0  0.699183  0.456838  0  2.630059  0
Zn  Zn5  1  0.87500011  0.37500026  0.37499935  1  0  0.72313  0  2.121963  0  0  0.485508  0  2.603988  0  0  0.527143  0  2.565355  0  0  0.699195  0.456832  0  2.63008  0
H  H6  1  0.52354298  0.33944224  0.33944165  1  0  0.110293  0  0.940946  0  0  0.122211  0  0.99435  0  0  0.125009  0  0.993163  0  0  0.120454  0.119939  0  0.995759  0
H  H7  1  0.29757320  0.33944258  0.33944166  1  0  0.110278  0  0.940909  0  0  0.122213  0  0.994297  0  0  0.124991  0  0.993132  0  0  0.120456  0.119942  0  0.995705  0
H  H8  1  0.83944188  0.79757384  0.02354227  1  0  0.110259  0  0.940932  0  0  0.122181  0  0.994333  0  0  0.124969  0  0.993157  0  0  0.120436  0.119909  0  0.995742  0
H  H9  1  0.83944184  0.02354286  0.79757284  1  0  0.110291  0  0.94095  0  0  0.122211  0  0.994354  0  0  0.125008  0  0.993166  0  0  0.120448  0.119939  0  0.995762  0
H  H10  1  0.52354260  0.79757357  0.33944157  1  0  0.11028  0  0.940941  0  0  0.122194  0  0.994349  0  0  0.124993  0  0.993161  0  0  0.120455  0.119924  0  0.995756  0
H  H11  1  0.29757353  0.02354228  0.33944171  1  0  0.110264  0  0.940928  0  0  0.122178  0  0.994339  0  0  0.124977  0  0.993149  0  0  0.120436  0.119908  0  0.995746  0
H  H12  1  0.83944231  0.33944078  0.79757376  1  0  0.11027  0  0.94091  0  0  0.122203  0  0.9943  0  0  0.124981  0  0.993136  0  0  0.120453  0.119933  0  0.995708  0
H  H13  1  0.83944180  0.33944204  0.02354235  1  0  0.110292  0  0.940929  0  0  0.122208  0  0.994337  0  0  0.125007  0  0.993149  0  0  0.120436  0.119939  0  0.995743  0
H  H14  1  0.52354278  0.33944193  0.79757279  1  0  0.110297  0  0.940943  0  0  0.122234  0  0.994324  0  0  0.125012  0  0.993162  0  0  0.120452  0.119963  0  0.995732  0
H  H15  1  0.29757422  0.33944208  0.02354237  1  0  0.110282  0  0.940927  0  0  0.12222  0  0.994311  0  0  0.124997  0  0.993149  0  0  0.120434  0.119949  0  0.99572  0
H  H16  1  0.83944158  0.02354271  0.33944169  1  0  0.1103  0  0.94094  0  0  0.122239  0  0.994318  0  0  0.125015  0  0.993157  0  0  0.120453  0.119967  0  0.995727  0
H  H17  1  0.83944166  0.79757355  0.33944156  1  0  0.110282  0  0.940895  0  0  0.12222  0  0.994282  0  0  0.124997  0  0.99312  0  0  0.120433  0.119949  0  0.995691  0
H  H18  1  0.70242675  0.66055859  0.66055764  1  0  0.110282  0  0.940915  0  0  0.122198  0  0.994323  0  0  0.124995  0  0.993135  0  0  0.120451  0.119926  0  0.995731  0
H  H19  1  0.47645777  0.66055813  0.66055764  1  0  0.110263  0  0.940939  0  0  0.122178  0  0.994349  0  0  0.124976  0  0.993161  0  0  0.120433  0.119906  0  0.995757  0
H  H20  1  0.16055809  0.20242574  0.97645800  1  0  0.110291  0  0.940917  0  0  0.12223  0  0.9943  0  0  0.125006  0  0.993139  0  0  0.120441  0.119958  0  0.995708  0
H  H21  1  0.16055733  0.97645752  0.20242743  1  0  0.110296  0  0.940944  0  0  0.122221  0  0.994338  0  0  0.125008  0  0.993165  0  0  0.120459  0.119949  0  0.995746  0
H  H22  1  0.16055783  0.20242716  0.66055773  1  0  0.110283  0  0.940916  0  0  0.122197  0  0.994327  0  0  0.124996  0  0.993138  0  0  0.120454  0.119926  0  0.995735  0
H  H23  1  0.16055791  0.97645800  0.66055760  1  0  0.110277  0  0.940928  0  0  0.122193  0  0.994335  0  0  0.124992  0  0.993147  0  0  0.120439  0.119922  0  0.995743  0
H  H24  1  0.47645718  0.66055765  0.20242748  1  0  0.110295  0  0.940937  0  0  0.122232  0  0.994317  0  0  0.125009  0  0.993156  0  0  0.120452  0.119961  0  0.995725  0
H  H25  1  0.70242495  0.66055831  0.97645790  1  0  0.110276  0  0.940932  0  0  0.122215  0  0.994316  0  0  0.124992  0  0.993153  0  0  0.120439  0.119943  0  0.995722  0
H  H26  1  0.16055765  0.66055880  0.20242651  1  0  0.11029  0  0.940923  0  0  0.122209  0  0.994328  0  0  0.125007  0  0.993141  0  0  0.120446  0.119939  0  0.995735  0
H  H27  1  0.16055736  0.66055834  0.97645792  1  0  0.110281  0  0.940943  0  0  0.122216  0  0.994327  0  0  0.124994  0  0.993163  0  0  0.120458  0.119945  0  0.995734  0
H  H28  1  0.70242676  0.97645763  0.66055758  1  0  0.110297  0  0.94095  0  0  0.122214  0  0.994354  0  0  0.125013  0  0.993166  0  0  0.120451  0.119944  0  0.99576  0
H  H29  1  0.47645815  0.20242680  0.66055772  1  0  0.110289  0  0.940937  0  0  0.122224  0  0.994319  0  0  0.125001  0  0.993156  0  0  0.120459  0.119954  0  0.995726  0
C  C30  1  0.42026796  0.38509621  0.38509639  1  0  -0.039195  0  3.783603  0  0  -0.075059  0  4.056308  0  0  -0.074272  0  4.074091  0  0  -0.002812  -0.075394  0  4.044036  0
C  C31  1  0.30953893  0.38509591  0.38509639  1  0  -0.039058  0  3.783482  0  0  -0.074914  0  4.056146  0  0  -0.074107  0  4.073941  0  0  -0.002778  -0.075248  0  4.043872  0
C  C32  1  0.88509514  0.80953927  0.92026884  1  0  -0.039005  0  3.783465  0  0  -0.074849  0  4.056128  0  0  -0.074056  0  4.073922  0  0  -0.002745  -0.075184  0  4.043854  0
C  C33  1  0.88509559  0.92026847  0.80953905  1  0  -0.039297  0  3.783675  0  0  -0.075169  0  4.05639  0  0  -0.074382  0  4.074179  0  0  -0.002858  -0.075504  0  4.044117  0
C  C34  1  0.42026802  0.80953878  0.38509631  1  0  -0.039178  0  3.783616  0  0  -0.075037  0  4.056314  0  0  -0.074251  0  4.074104  0  0  -0.002827  -0.075371  0  4.044038  0
C  C35  1  0.30953850  0.92026831  0.38509630  1  0  -0.039141  0  3.783582  0  0  -0.075003  0  4.056283  0  0  -0.074214  0  4.074073  0  0  -0.002811  -0.075336  0  4.044008  0
C  C36  1  0.88509602  0.38509607  0.80953915  1  0  -0.039039  0  3.783517  0  0  -0.074895  0  4.056183  0  0  -0.074088  0  4.073978  0  0  -0.002768  -0.075229  0  4.043907  0
C  C37  1  0.88509620  0.38509623  0.92026794  1  0  -0.039221  0  3.783592  0  0  -0.075087  0  4.056303  0  0  -0.074298  0  4.074085  0  0  -0.00281  -0.075422  0  4.044028  0
C  C38  1  0.42026904  0.38509559  0.80953916  1  0  -0.039192  0  3.783598  0  0  -0.07506  0  4.056283  0  0  -0.074253  0  4.074076  0  0  -0.002809  -0.075393  0  4.044009  0
C  C39  1  0.30953906  0.38509592  0.92026894  1  0  -0.039121  0  3.783554  0  0  -0.074995  0  4.05624  0  0  -0.074188  0  4.074031  0  0  -0.002777  -0.075329  0  4.043965  0
C  C40  1  0.88509577  0.92026875  0.38509628  1  0  -0.039184  0  3.783599  0  0  -0.07505  0  4.056285  0  0  -0.074243  0  4.074078  0  0  -0.002808  -0.075384  0  4.044013  0
C  C41  1  0.88509626  0.80953893  0.38509630  1  0  -0.039111  0  3.783523  0  0  -0.074981  0  4.056209  0  0  -0.074176  0  4.074001  0  0  -0.002773  -0.075316  0  4.043935  0
C  C42  1  0.69046136  0.61490400  0.61490290  1  0  -0.039211  0  3.783655  0  0  -0.075066  0  4.056351  0  0  -0.074277  0  4.07414  0  0  -0.002844  -0.075399  0  4.044076  0
C  C43  1  0.57973153  0.61490450  0.61490290  1  0  -0.039138  0  3.783667  0  0  -0.074996  0  4.056357  0  0  -0.074209  0  4.074147  0  0  -0.00281  -0.07533  0  4.044082  0
C  C44  1  0.11490403  0.19046111  0.07973143  1  0  -0.039121  0  3.783533  0  0  -0.074991  0  4.056208  0  0  -0.074186  0  4.074003  0  0  -0.002769  -0.075325  0  4.043933  0
C  C45  1  0.11490312  0.07973145  0.19046122  1  0  -0.039121  0  3.783537  0  0  -0.07498  0  4.056216  0  0  -0.074181  0  4.074005  0  0  -0.00277  -0.075313  0  4.043942  0
C  C46  1  0.11490403  0.19046098  0.61490299  1  0  -0.039193  0  3.783632  0  0  -0.075047  0  4.056329  0  0  -0.074262  0  4.074119  0  0  -0.002837  -0.075381  0  4.044054  0
C  C47  1  0.11490372  0.07973196  0.61490301  1  0  -0.039172  0  3.783633  0  0  -0.075028  0  4.056327  0  0  -0.074241  0  4.074118  0  0  -0.002822  -0.075362  0  4.044052  0
C  C48  1  0.57973093  0.61490399  0.19046111  1  0  -0.039177  0  3.783561  0  0  -0.075044  0  4.056248  0  0  -0.074237  0  4.074039  0  0  -0.002799  -0.075378  0  4.043972  0
C  C49  1  0.69046010  0.61490446  0.07973133  1  0  -0.039074  0  3.783556  0  0  -0.074952  0  4.056238  0  0  -0.074144  0  4.074026  0  0  -0.002765  -0.075284  0  4.043961  0
C  C50  1  0.11490315  0.61490431  0.19046113  1  0  -0.039294  0  3.783673  0  0  -0.075169  0  4.0564  0  0  -0.074379  0  4.074183  0  0  -0.002862  -0.075501  0  4.044123  0
C  C51  1  0.11490329  0.61490448  0.07973135  1  0  -0.039081  0  3.783532  0  0  -0.074937  0  4.056205  0  0  -0.074131  0  4.074001  0  0  -0.002785  -0.07527  0  4.043927  0
C  C52  1  0.69046179  0.07973160  0.61490299  1  0  -0.039267  0  3.783695  0  0  -0.075136  0  4.056411  0  0  -0.074348  0  4.074197  0  0  -0.002858  -0.07547  0  4.044135  0
C  C53  1  0.57973114  0.19046160  0.61490396  1  0  -0.039101  0  3.783554  0  0  -0.074958  0  4.05622  0  0  -0.074151  0  4.074018  0  0  -0.002803  -0.075291  0  4.043942  0
N  N54  1  0.37906921  0.45813406  0.45813399  1  0  -0.216564  0  3.237113  0  0  -0.162008  0  3.52302  0  0  -0.17243  0  3.539841  0  0  -0.2326  -0.1547  0  3.511469  0
N  N55  1  0.20466156  0.45813399  0.45813399  1  0  -0.216616  0  3.237166  0  0  -0.162061  0  3.523075  0  0  -0.172484  0  3.539889  0  0  -0.232614  -0.154755  0  3.511526  0
N  N56  1  0.95813336  0.70466204  0.87906984  1  0  -0.216596  0  3.237173  0  0  -0.16204  0  3.523071  0  0  -0.17246  0  3.539885  0  0  -0.232604  -0.154732  0  3.511521  0
N  N57  1  0.95813381  0.87907009  0.70466188  1  0  -0.21647  0  3.237141  0  0  -0.161905  0  3.523033  0  0  -0.172328  0  3.539854  0  0  -0.232578  -0.154598  0  3.511481  0
N  N58  1  0.37906992  0.70466183  0.45813395  1  0  -0.216519  0  3.237143  0  0  -0.161946  0  3.523024  0  0  -0.172369  0  3.539845  0  0  -0.232574  -0.154639  0  3.511474  0
N  N59  1  0.20466155  0.87907020  0.45813392  1  0  -0.216524  0  3.237118  0  0  -0.161954  0  3.523002  0  0  -0.17238  0  3.539826  0  0  -0.23258  -0.154648  0  3.511453  0
N  N60  1  0.95813462  0.45813309  0.70466195  1  0  -0.216609  0  3.237211  0  0  -0.162053  0  3.523114  0  0  -0.172473  0  3.539928  0  0  -0.232616  -0.154746  0  3.511565  0
N  N61  1  0.95813391  0.45813394  0.87906988  1  0  -0.216552  0  3.237115  0  0  -0.161997  0  3.52302  0  0  -0.172419  0  3.539843  0  0  -0.232603  -0.15469  0  3.51147  0
N  N62  1  0.37906938  0.45813418  0.70466197  1  0  -0.216534  0  3.237176  0  0  -0.161988  0  3.523095  0  0  -0.172411  0  3.539911  0  0  -0.232584  -0.154683  0  3.511546  0
N  N63  1  0.20466183  0.45813416  0.87906991  1  0  -0.216584  0  3.237163  0  0  -0.16203  0  3.523078  0  0  -0.172451  0  3.53989  0  0  -0.232604  -0.154722  0  3.511527  0
N  N64  1  0.95813364  0.87906998  0.45813390  1  0  -0.216582  0  3.237195  0  0  -0.162049  0  3.523137  0  0  -0.17247  0  3.53995  0  0  -0.232613  -0.154742  0  3.511587  0
N  N65  1  0.95813435  0.70466154  0.45813393  1  0  -0.216601  0  3.237166  0  0  -0.162048  0  3.52308  0  0  -0.172467  0  3.539891  0  0  -0.232615  -0.15474  0  3.511528  0
N  N66  1  0.79533872  0.54186592  0.54186530  1  0  -0.216495  0  3.237183  0  0  -0.161928  0  3.523074  0  0  -0.172353  0  3.539892  0  0  -0.23256  -0.154621  0  3.511522  0
N  N67  1  0.62093028  0.54186665  0.54186530  1  0  -0.216491  0  3.237179  0  0  -0.16191  0  3.523049  0  0  -0.172335  0  3.539872  0  0  -0.232556  -0.154603  0  3.5115  0
N  N68  1  0.04186660  0.29533754  0.12093043  1  0  -0.216559  0  3.23721  0  0  -0.162005  0  3.523119  0  0  -0.172424  0  3.53993  0  0  -0.232608  -0.154697  0  3.51157  0
N  N69  1  0.04186535  0.12093029  0.29533839  1  0  -0.216568  0  3.237205  0  0  -0.16201  0  3.523102  0  0  -0.172433  0  3.53992  0  0  -0.232619  -0.154703  0  3.511552  0
N  N70  1  0.04186594  0.29533837  0.54186537  1  0  -0.216507  0  3.237176  0  0  -0.161942  0  3.523068  0  0  -0.172364  0  3.539887  0  0  -0.232568  -0.154635  0  3.511516  0
N  N71  1  0.04186585  0.12093073  0.54186540  1  0  -0.216486  0  3.237132  0  0  -0.161918  0  3.523019  0  0  -0.17234  0  3.539839  0  0  -0.232558  -0.154609  0  3.511466  0
N  N72  1  0.62092978  0.54186621  0.29533830  1  0  -0.216564  0  3.237169  0  0  -0.16202  0  3.523095  0  0  -0.172444  0  3.539912  0  0  -0.232612  -0.154713  0  3.511546  0
N  N73  1  0.79533734  0.54186622  0.12093036  1  0  -0.216596  0  3.23716  0  0  -0.162032  0  3.52306  0  0  -0.172455  0  3.539873  0  0  -0.232597  -0.154726  0  3.511512  0
N  N74  1  0.04186614  0.54186570  0.29533832  1  0  -0.216491  0  3.237159  0  0  -0.161927  0  3.523052  0  0  -0.172353  0  3.539874  0  0  -0.232584  -0.154621  0  3.511501  0
N  N75  1  0.04186605  0.54186564  0.12093039  1  0  -0.216544  0  3.237145  0  0  -0.161994  0  3.523059  0  0  -0.172419  0  3.539872  0  0  -0.232582  -0.154687  0  3.511509  0
N  N76  1  0.79533794  0.12093051  0.54186537  1  0  -0.216519  0  3.237206  0  0  -0.161962  0  3.523103  0  0  -0.172386  0  3.539926  0  0  -0.232582  -0.154656  0  3.511555  0
N  N77  1  0.62092971  0.29533901  0.54186633  1  0  -0.216566  0  3.237197  0  0  -0.162014  0  3.523101  0  0  -0.172436  0  3.539915  0  0  -0.23258  -0.154707  0  3.511552  0
N  N78  1  0.24864547  0.50135433  0.50135398  1  0  -0.080505  0  3.158912  0  0  -0.033367  0  3.446409  0  0  -0.039696  0  3.462082  0  0  -0.118761  -0.028919  0  3.435734  0
N  N79  1  0.00135410  0.74864577  0.74864591  1  0  -0.080544  0  3.158934  0  0  -0.033407  0  3.446429  0  0  -0.039736  0  3.462098  0  0  -0.118757  -0.02896  0  3.435754  0
N  N80  1  0.24864575  0.74864523  0.50135394  1  0  -0.080531  0  3.158895  0  0  -0.033397  0  3.446383  0  0  -0.039722  0  3.462051  0  0  -0.118751  -0.028948  0  3.43571  0
N  N81  1  0.00135415  0.50135361  0.74864595  1  0  -0.080513  0  3.158937  0  0  -0.033377  0  3.446431  0  0  -0.039704  0  3.462105  0  0  -0.118754  -0.028928  0  3.435756  0
N  N82  1  0.24864553  0.50135433  0.74864594  1  0  -0.08052  0  3.158931  0  0  -0.033382  0  3.446433  0  0  -0.039711  0  3.462108  0  0  -0.118766  -0.028934  0  3.435758  0
N  N83  1  0.00135404  0.74864577  0.50135394  1  0  -0.080481  0  3.158911  0  0  -0.033336  0  3.446408  0  0  -0.039666  0  3.462082  0  0  -0.118751  -0.028889  0  3.435733  0
N  N84  1  0.75135482  0.49864558  0.49864531  1  0  -0.080568  0  3.158929  0  0  -0.033447  0  3.446442  0  0  -0.03977  0  3.462105  0  0  -0.118775  -0.028999  0  3.435769  0
N  N85  1  0.99864633  0.25135428  0.25135437  1  0  -0.080588  0  3.158985  0  0  -0.033457  0  3.446491  0  0  -0.039788  0  3.462163  0  0  -0.118793  -0.029009  0  3.435817  0
N  N86  1  0.99864545  0.25135494  0.49864535  1  0  -0.080558  0  3.158934  0  0  -0.033429  0  3.446448  0  0  -0.039756  0  3.462114  0  0  -0.118772  -0.028983  0  3.435775  0
N  N87  1  0.75135410  0.49864652  0.25135433  1  0  -0.080527  0  3.158914  0  0  -0.033393  0  3.446414  0  0  -0.03972  0  3.462087  0  0  -0.118776  -0.028945  0  3.435742  0
N  N88  1  0.99864581  0.49864598  0.25135432  1  0  -0.080525  0  3.158922  0  0  -0.033381  0  3.446413  0  0  -0.039702  0  3.462078  0  0  -0.118749  -0.028932  0  3.435738  0
N  N89  1  0.75135421  0.25135436  0.49864634  1  0  -0.080488  0  3.158889  0  0  -0.033345  0  3.44638  0  0  -0.039669  0  3.462048  0  0  -0.118752  -0.028896  0  3.435706  0
