# generated using pymatgen
data_Zn3P2H28C10(NO2)4
_symmetry_space_group_name_H-M   'P 1'
_cell_length_a   4.92452261
_cell_length_b   12.75362336
_cell_length_c   19.70731531
_cell_angle_alpha   107.05991585
_cell_angle_beta   89.99107327
_cell_angle_gamma   101.13387283
_symmetry_Int_Tables_number   1
_chemical_formula_structural   Zn3P2H28C10(NO2)4
_chemical_formula_sum   'Zn6 P4 H56 C20 N8 O16'
_cell_volume   1158.88772432
_cell_formula_units_Z   2
loop_
 _symmetry_equiv_pos_site_id
 _symmetry_equiv_pos_as_xyz
  1  'x, y, z'
loop_
 _atom_site_type_symbol
 _atom_site_label
 _atom_site_symmetry_multiplicity
 _atom_site_fract_x
 _atom_site_fract_y
 _atom_site_fract_z
 _atom_site_occupancy
 _atom_site_pbe_bader_charge
 _atom_site_pbe_bader_spin_density
 _atom_site_pbe_cm5_charge
 _atom_site_pbe_ddec_charge
 _atom_site_pbe_ddec_spin_density
 _atom_site_pbe_ddec_sum_bond_order
 _atom_site_pbe_magmom
Zn  Zn0  1  0.02977078  0.99994034  0.00004469  1  1.236402  0  0.705543  0.86489  0  2.310381  0
Zn  Zn1  1  0.94444856  0.00003487  0.49999207  1  1.236184  0  0.705712  0.867786  0  2.305823  0
Zn  Zn2  1  0.64173003  0.89287212  0.76319617  1  1.282185  0  0.692595  0.953685  0  2.367389  0
Zn  Zn3  1  0.74876910  0.10715054  0.23685954  1  1.282832  0  0.692462  0.95379  0  2.367287  0
Zn  Zn4  1  0.33488745  0.10488848  0.73785361  1  1.280532  0  0.692361  0.953919  0  2.359783  0
Zn  Zn5  1  0.22986235  0.89497938  0.26223489  1  1.282873  0  0.692653  0.954984  0  2.358898  0
P  P6  1  0.76316155  0.02842856  0.65177563  1  3.645133  0  0.346041  1.477318  0  5.605668  0
P  P7  1  0.73451563  0.97153347  0.34825986  1  3.648834  0  0.345941  1.475857  0  5.61055  0
P  P8  1  0.21408823  0.96901663  0.84896852  1  3.645206  0  0.345384  1.474043  0  5.612303  0
P  P9  1  0.24492036  0.03082482  0.15107997  1  3.653998  0  0.344761  1.472271  0  5.616368  0
H  H10  1  0.85422568  0.75776195  0.66829679  1  0.40745  0  0.305929  0.293953  0  0.916186  0
H  H11  1  0.09713978  0.24226318  0.33160708  1  0.413051  0  0.305856  0.294012  0  0.915939  0
H  H12  1  0.95691456  0.75222463  0.74668921  1  0.478433  0  0.28778  0.295735  0  0.981763  0
H  H13  1  0.20459538  0.24772786  0.25314499  1  0.475484  0  0.287585  0.295347  0  0.9822  0
H  H14  1  0.39828461  0.65165710  0.67039373  1  0.040464  0  0.102161  0.071825  0  0.968826  0
H  H15  1  0.74743703  0.34850686  0.32983978  1  0.034288  0  0.10196  0.070894  0  0.968912  0
H  H16  1  0.49142463  0.63926651  0.75333733  1  0.037926  0  0.103153  0.075407  0  0.987255  0
H  H17  1  0.85182798  0.36077382  0.24678000  1  0.04172  0  0.102929  0.075611  0  0.986403  0
H  H18  1  0.81354681  0.51603854  0.69896557  1  0.011302  0  0.085191  0.075872  0  1.001629  0
H  H19  1  0.29774427  0.48395697  0.30076058  1  -0.005356  0  0.085421  0.076441  0  1.002026  0
H  H20  1  0.78313828  0.54565716  0.61752380  1  0.00922  0  0.086397  0.076736  0  0.989376  0
H  H21  1  0.23878395  0.45448094  0.38227893  1  0.000821  0  0.086226  0.076703  0  0.989238  0
H  H22  1  0.29807654  0.42698120  0.68367693  1  0.004708  0  0.086676  0.074307  0  1.000148  0
H  H23  1  0.87170517  0.57312349  0.31633475  1  0.014636  0  0.086519  0.074334  0  1.000044  0
H  H24  1  0.28022138  0.45796439  0.60283152  1  0.004624  0  0.084858  0.068024  0  0.995379  0
H  H25  1  0.82311800  0.54206851  0.39716475  1  -0.000468  0  0.084526  0.067839  0  0.995956  0
H  H26  1  0.61355358  0.29507287  0.63469546  1  0.046103  0  0.09124  0.096192  0  1.002115  0
H  H27  1  0.31858325  0.70530487  0.36528654  1  0.060656  0  0.090976  0.096509  0  1.001781  0
H  H28  1  0.63318879  0.33520718  0.55578464  1  0.006813  0  0.085376  0.076677  0  0.98858  0
H  H29  1  0.29883317  0.66503828  0.44415038  1  -0.004724  0  0.085156  0.076593  0  0.989208  0
H  H30  1  0.10194008  0.22449584  0.61026534  1  0.053684  0  0.104067  0.076268  0  0.995093  0
H  H31  1  0.87718821  0.77553301  0.38994113  1  0.063087  0  0.104189  0.076653  0  0.993843  0
H  H32  1  0.11632797  0.26447575  0.53158757  1  0.011017  0  0.096672  0.059396  0  0.976799  0
H  H33  1  0.85237273  0.73551211  0.46860876  1  0.009139  0  0.096705  0.059414  0  0.976482  0
H  H34  1  0.41362172  0.09658086  0.55763842  1  0.481841  0  0.293132  0.301037  0  0.968153  0
H  H35  1  0.31723575  0.90347826  0.44246244  1  0.486095  0  0.292903  0.300742  0  0.969885  0
H  H36  1  0.39478154  0.12642236  0.48285059  1  0.448128  0  0.30147  0.299669  0  0.922918  0
H  H37  1  0.26831833  0.87374081  0.51727798  1  0.450362  0  0.301147  0.298751  0  0.922908  0
H  H38  1  0.58200941  0.87947050  0.02275173  1  0.449687  0  0.300329  0.299936  0  0.92739  0
H  H39  1  0.70255372  0.12037581  0.97727350  1  0.453846  0  0.300395  0.300702  0  0.926188  0
H  H40  1  0.55952136  0.89864674  0.94477236  1  0.48032  0  0.292951  0.300444  0  0.966115  0
H  H41  1  0.66106642  0.10138315  0.05531391  1  0.483032  0  0.292823  0.300589  0  0.965553  0
H  H42  1  0.86061720  0.73900696  0.98072756  1  0.02241  0  0.097705  0.062207  0  0.974984  0
H  H43  1  0.12139781  0.26091431  0.01908340  1  0.021323  0  0.097701  0.062442  0  0.97452  0
H  H44  1  0.86956707  0.76702541  0.89807474  1  0.042225  0  0.104797  0.077888  0  0.984861  0
H  H45  1  0.10311671  0.23303321  0.10178232  1  0.050244  0  0.104646  0.077333  0  0.984786  0
H  H46  1  0.34365928  0.66533793  0.95924842  1  0.006356  0  0.085837  0.078507  0  0.98685  0
H  H47  1  0.67787824  0.33448990  0.04083322  1  -0.010966  0  0.085613  0.078224  0  0.987149  0
H  H48  1  0.35682296  0.69526155  0.87694134  1  0.03045  0  0.09171  0.09295  0  0.99724  0
H  H49  1  0.66229486  0.30475888  0.12319678  1  0.035093  0  0.091912  0.093401  0  0.997135  0
H  H50  1  0.68702584  0.56488780  0.83530788  1  0.003553  0  0.086632  0.072921  0  1.001991  0
H  H51  1  0.12281925  0.43527115  0.16445778  1  0.006812  0  0.086852  0.073443  0  1.002169  0
H  H52  1  0.68377143  0.53721322  0.91759065  1  0.009666  0  0.084422  0.069072  0  0.993056  0
H  H53  1  0.14615154  0.46283766  0.08213223  1  0.006914  0  0.084512  0.06952  0  0.9929  0
H  H54  1  0.16948952  0.47976040  0.81481708  1  0.005405  0  0.086084  0.076938  0  1.002932  0
H  H55  1  0.69028770  0.52015587  0.18529874  1  0.006305  0  0.085859  0.076388  0  1.002878  0
H  H56  1  0.18217725  0.44727599  0.89583054  1  0.001366  0  0.085856  0.077806  0  0.989939  0
H  H57  1  0.73402236  0.55258069  0.10423529  1  -0.010634  0  0.085724  0.077833  0  0.989665  0
H  H58  1  0.51350467  0.36180364  0.76578955  1  0.021939  0  0.102561  0.074284  0  0.986872  0
H  H59  1  0.15288020  0.63810217  0.23382315  1  0.052096  0  0.102614  0.074033  0  0.986366  0
H  H60  1  0.55878270  0.33707676  0.84789098  1  0.043171  0  0.102948  0.073756  0  0.966395  0
H  H61  1  0.22081322  0.66308502  0.15170024  1  0.027905  0  0.102761  0.073491  0  0.965973  0
H  H62  1  0.02803346  0.25113931  0.75737525  1  0.472813  0  0.289577  0.293751  0  0.97279  0
H  H63  1  0.77701524  0.74848798  0.24288149  1  0.474083  0  0.289992  0.294266  0  0.971877  0
H  H64  1  0.10034912  0.22962762  0.83305711  1  0.418131  0  0.306938  0.296487  0  0.915581  0
H  H65  1  0.86956758  0.77039612  0.16724345  1  0.420514  0  0.307201  0.296455  0  0.91619  0
C  C66  1  0.57290830  0.64296965  0.70191057  1  0.308482  0  -0.072044  0.031286  0  3.936975  0
C  C67  1  0.93030484  0.35712718  0.29814945  1  0.319409  0  -0.071661  0.032711  0  3.937819  0
C  C68  1  0.66719205  0.53445378  0.66371112  1  -0.037137  0  -0.169284  -0.184678  0  3.97737  0
C  C69  1  0.13347232  0.46564810  0.33617071  1  -0.004801  0  -0.169406  -0.186008  0  3.979969  0
C  C70  1  0.42057111  0.43650683  0.63812771  1  -0.002518  0  -0.164871  -0.13727  0  3.978186  0
C  C71  1  0.98478889  0.56360215  0.36185382  1  -0.026728  0  -0.164255  -0.136496  0  3.978527  0
C  C72  1  0.49662203  0.32471397  0.59876510  1  -0.039432  0  -0.170189  -0.185122  0  3.950383  0
C  C73  1  0.17236465  0.67546527  0.40122637  1  -0.034652  0  -0.169987  -0.185982  0  3.94999  0
C  C74  1  0.23684684  0.23602677  0.56737431  1  0.317666  0  -0.070839  0.034543  0  3.930299  0
C  C75  1  0.00098874  0.76401718  0.43275305  1  0.297749  0  -0.071311  0.034002  0  3.927483  0
C  C76  1  0.73722133  0.76156709  0.94248924  1  0.30354  0  -0.071435  0.030883  0  3.931533  0
C  C77  1  0.97581810  0.23841365  0.05742587  1  0.302606  0  -0.071444  0.03108  0  3.93104  0
C  C78  1  0.47726908  0.67078610  0.91491214  1  0.003699  0  -0.168568  -0.184014  0  3.951797  0
C  C79  1  0.80666050  0.32916579  0.08508701  1  -0.015123  0  -0.168171  -0.183539  0  3.951429  0
C  C80  1  0.55367875  0.55749992  0.87944349  1  -0.024842  0  -0.163964  -0.13893  0  3.980346  0
C  C81  1  0.99627663  0.44252500  0.12039795  1  -0.004732  0  -0.164577  -0.140633  0  3.980773  0
C  C82  1  0.30759597  0.45991290  0.85136758  1  -0.019281  0  -0.169246  -0.186205  0  3.976071  0
C  C83  1  0.84760275  0.54002353  0.14859714  1  0.014626  0  -0.168704  -0.185345  0  3.97582  0
C  C84  1  0.40484517  0.35205216  0.81307760  1  0.315758  0  -0.07173  0.029103  0  3.93984  0
C  C85  1  0.05280014  0.64794204  0.18673003  1  0.288017  0  -0.071206  0.030439  0  3.9403  0
N  N86  1  0.78399827  0.74631659  0.71496185  1  -1.154771  0  -0.625129  -0.5815  0  3.400522  0
N  N87  1  0.03785620  0.25370054  0.28498513  1  -1.169482  0  -0.62497  -0.58175  0  3.40173  0
N  N88  1  0.28907637  0.12550513  0.52764568  1  -1.1786  0  -0.629395  -0.571719  0  3.393594  0
N  N89  1  0.16365048  0.87459845  0.47245789  1  -1.165368  0  -0.628976  -0.570479  0  3.393351  0
N  N90  1  0.68543230  0.87413992  0.97696360  1  -1.176325  0  -0.627927  -0.56808  0  3.388771  0
N  N91  1  0.81138352  0.12579699  0.02306154  1  -1.180525  0  -0.627729  -0.569438  0  3.389881  0
N  N92  1  0.18883467  0.24962861  0.79034944  1  -1.156472  0  -0.623544  -0.580228  0  3.39844  0
N  N93  1  0.93891147  0.75025074  0.20979320  1  -1.167033  0  -0.624454  -0.581447  0  3.400025  0
O  O94  1  0.59176237  0.93242059  0.67664552  1  -1.453864  0  -0.408802  -0.816421  0  2.31134  0
O  O95  1  0.65895551  0.06747779  0.32336186  1  -1.453349  0  -0.4089  -0.816249  0  2.312618  0
O  O96  1  0.69898739  0.14312831  0.69828367  1  -1.456134  0  -0.408163  -0.817389  0  2.221315  0
O  O97  1  0.55569946  0.85679258  0.30179439  1  -1.456157  0  -0.408033  -0.817467  0  2.223493  0
O  O98  1  0.67139872  0.00803529  0.57268738  1  -1.446454  0  -0.391441  -0.769461  0  2.302855  0
O  O99  1  0.66312452  0.99197333  0.42735913  1  -1.444575  0  -0.391237  -0.769459  0  2.304264  0
O  O100  1  0.07786000  0.03097614  0.65600691  1  -1.442436  0  -0.399693  -0.807054  0  2.33971  0
O  O101  1  0.04670061  0.96906159  0.34402607  1  -1.446993  0  -0.399693  -0.806864  0  2.337994  0
O  O102  1  0.30520459  0.98857997  0.92792574  1  -1.446431  0  -0.391578  -0.770433  0  2.314104  0
O  O103  1  0.31651509  0.01114956  0.07210488  1  -1.443692  0  -0.391289  -0.769151  0  2.313696  0
O  O104  1  0.27638461  0.85406223  0.80248309  1  -1.458677  0  -0.407927  -0.815524  0  2.22497  0
O  O105  1  0.42226742  0.14579525  0.19751710  1  -1.457827  0  -0.407874  -0.815197  0  2.22671  0
O  O106  1  0.38856611  0.06464749  0.82423992  1  -1.454029  0  -0.407996  -0.816574  0  2.313384  0
O  O107  1  0.32360221  0.93520650  0.17583749  1  -1.453196  0  -0.408299  -0.816217  0  2.314222  0
O  O108  1  0.90031040  0.96828987  0.84488684  1  -1.443817  0  -0.400668  -0.808397  0  2.336495  0
O  O109  1  0.93190941  0.03166516  0.15517835  1  -1.454847  0  -0.399993  -0.807875  0  2.337095  0
