# generated using pymatgen
data_MnH19C28(NO3)2
_symmetry_space_group_name_H-M   'P 1'
_cell_length_a   9.33546716
_cell_length_b   11.01106339
_cell_length_c   11.39952539
_cell_angle_alpha   90.00096179
_cell_angle_beta   90.04182217
_cell_angle_gamma   107.39133898
_symmetry_Int_Tables_number   1
_chemical_formula_structural   MnH19C28(NO3)2
_chemical_formula_sum   'Mn2 H38 C56 N4 O12'
_cell_volume   1118.22782499
_cell_formula_units_Z   2
loop_
 _symmetry_equiv_pos_site_id
 _symmetry_equiv_pos_as_xyz
  1  'x, y, z'
loop_
 _atom_site_type_symbol
 _atom_site_label
 _atom_site_symmetry_multiplicity
 _atom_site_fract_x
 _atom_site_fract_y
 _atom_site_fract_z
 _atom_site_occupancy
 _atom_site_pbe_cm5_charge
 _atom_site_pbe_ddec_charge
 _atom_site_pbe_ddec_spin_density
 _atom_site_pbe_ddec_sum_bond_order
 _atom_site_pbe_magmom
Mn  Mn0  1  0.49185164  0.00050395  0.00206956  1  0.763536  0.856583  -0.031436  3.32546  -0.029
Mn  Mn1  1  0.49156359  0.50074493  0.49797863  1  0.76262  0.855625  0.030718  3.323973  0.029
H  H2  1  0.74752847  0.38991308  0.89940058  1  0.101613  0.120786  -0.000269  1.007805  0.0
H  H3  1  0.25112769  0.10924457  0.39861963  1  0.102665  0.1225  0.000327  1.005164  0.0
H  H4  1  0.25017175  0.60928522  0.10142700  1  0.102559  0.122199  -0.000325  1.006054  0.0
H  H5  1  0.74741076  0.89032376  0.60063883  1  0.101494  0.120538  0.000269  1.00771  0.0
H  H6  1  0.90054200  0.56506220  0.02506825  1  0.098459  0.09619  -3.4e-05  1.021698  0.0
H  H7  1  0.10047125  0.93398826  0.52516156  1  0.098421  0.095691  -2.9e-05  1.021692  0.0
H  H8  1  0.09979073  0.43391323  0.97467761  1  0.09831  0.095566  3e-05  1.021867  0.0
H  H9  1  0.90073749  0.06512351  0.47495738  1  0.098509  0.096357  3.3e-05  1.020881  0.0
H  H10  1  0.89828481  0.54041157  0.24380017  1  0.099334  0.104794  4.6e-05  1.020014  0.0
H  H11  1  0.10474427  0.95936080  0.74374849  1  0.099429  0.104768  -3.9e-05  1.019687  0.0
H  H12  1  0.10523029  0.45884128  0.75603699  1  0.099502  0.104816  3.9e-05  1.01981  0.0
H  H13  1  0.89865745  0.04000225  0.25624654  1  0.099398  0.104979  -4.4e-05  1.019894  0.0
H  H14  1  0.74223135  0.34225075  0.33397764  1  0.105996  0.109809  -0.000192  1.0187  0.0
H  H15  1  0.26053870  0.15865404  0.83308484  1  0.106004  0.109254  0.000237  1.016674  0.0
H  H16  1  0.26143864  0.65801933  0.66701313  1  0.105796  0.109248  -0.000235  1.016956  0.0
H  H17  1  0.74241543  0.84177935  0.16606617  1  0.10582  0.109208  0.000189  1.018899  0.0
H  H18  1  0.54576598  0.14751008  0.32019226  1  0.121278  0.087905  6.2e-05  0.998382  0.0
H  H19  1  0.46078674  0.35146694  0.81714114  1  0.12092  0.087026  4.1e-05  0.995145  0.0
H  H20  1  0.46082901  0.85101222  0.68314245  1  0.121173  0.087412  -4.6e-05  0.995579  0.0
H  H21  1  0.54556756  0.64729958  0.17978008  1  0.121251  0.088191  -5.7e-05  0.996716  0.0
H  H22  1  0.52433937  0.93797007  0.37952753  1  0.102023  0.105648  -7e-06  1.051434  0.0
H  H23  1  0.47320876  0.56414067  0.87534733  1  0.101933  0.105633  -0.0  1.053666  0.0
H  H24  1  0.47195195  0.06344881  0.62498576  1  0.101929  0.105787  -0.0  1.054303  0.0
H  H25  1  0.52399273  0.43740680  0.12096063  1  0.101731  0.104833  7e-06  1.051739  0.0
H  H26  1  0.33197899  0.77026979  0.48834872  1  0.103644  0.101122  -0.000393  1.016745  0.0
H  H27  1  0.66503777  0.72884753  0.98753868  1  0.104158  0.102237  0.000252  1.014821  0.0
H  H28  1  0.66293709  0.22854611  0.51273242  1  0.104436  0.102283  -0.000261  1.016093  0.0
H  H29  1  0.33163502  0.26961294  0.01199730  1  0.103572  0.101255  0.000391  1.016096  0.0
H  H30  1  0.07140250  0.68913555  0.41017935  1  0.100785  0.101422  -2e-06  1.036897  0.0
H  H31  1  0.92754503  0.80823206  0.91339349  1  0.101997  0.105782  3.1e-05  1.039191  0.0
H  H32  1  0.92570850  0.30854705  0.58653646  1  0.101791  0.105834  -3.1e-05  1.038796  0.0
H  H33  1  0.07092998  0.18873511  0.08969843  1  0.100999  0.101823  3e-06  1.037165  0.0
H  H34  1  0.00575688  0.77506102  0.22183949  1  0.104878  0.105607  6.7e-05  1.023629  0.0
H  H35  1  0.99485780  0.72345563  0.72559536  1  0.105551  0.106553  -4.1e-05  1.023884  0.0
H  H36  1  0.99412828  0.22362981  0.77402449  1  0.105544  0.106234  4.2e-05  1.024382  0.0
H  H37  1  0.00523746  0.27487787  0.27779531  1  0.104865  0.105583  -6.6e-05  1.023536  0.0
H  H38  1  0.99852318  0.00811213  0.98588894  1  0.29921  0.353813  -1.6e-05  1.000686  0.0
H  H39  1  0.99820094  0.50821888  0.51355059  1  0.29945  0.354767  1.6e-05  0.999331  0.0
C  C40  1  0.65938611  0.26373211  0.04406737  1  0.096963  0.300063  -0.008123  4.056957  -0.006
C  C41  1  0.33890739  0.23651018  0.54268009  1  0.097202  0.298835  0.004842  4.050848  0.003
C  C42  1  0.33866702  0.73632477  0.95744982  1  0.096635  0.298444  -0.004887  4.052097  -0.003
C  C43  1  0.65907325  0.76388107  0.45605451  1  0.095923  0.298334  0.008085  4.05729  0.006
C  C44  1  0.74818256  0.37930149  0.99443973  1  -0.109537  -0.219464  0.009043  3.968956  0.005
C  C45  1  0.25113132  0.12026754  0.49366404  1  -0.107591  -0.216089  -0.005898  3.960968  -0.004
C  C46  1  0.25056518  0.62021408  0.00639956  1  -0.107152  -0.215776  0.00596  3.961886  0.004
C  C47  1  0.74803838  0.87951854  0.50558672  1  -0.108783  -0.218244  -0.008891  3.968002  -0.005
C  C48  1  0.83313674  0.47687595  0.06550435  1  -0.08571  -0.049695  -0.004459  4.025429  -0.003
C  C49  1  0.16755409  0.02257744  0.56526233  1  -0.084647  -0.048368  0.002882  4.022191  0.002
C  C50  1  0.16711333  0.52243425  0.93472133  1  -0.085218  -0.048287  -0.002904  4.021817  -0.002
C  C51  1  0.83317620  0.97692362  0.43450471  1  -0.085898  -0.050195  0.004446  4.024266  0.003
C  C52  1  0.83224587  0.46360817  0.18821084  1  -0.103903  -0.114461  0.009707  4.02418  0.005
C  C53  1  0.16947384  0.03631294  0.68785936  1  -0.104673  -0.114414  -0.005735  4.026083  -0.003
C  C54  1  0.16954898  0.53593438  0.81210566  1  -0.104253  -0.114918  0.005808  4.02583  0.003
C  C55  1  0.83236416  0.96340842  0.31181590  1  -0.103751  -0.11422  -0.009499  4.023835  -0.005
C  C56  1  0.74612871  0.35131434  0.23873544  1  -0.078158  -0.087696  -0.003197  3.975176  -0.002
C  C57  1  0.25511879  0.14925487  0.73783005  1  -0.078909  -0.089001  0.002126  3.977073  0.002
C  C58  1  0.25545574  0.64876354  0.76222489  1  -0.078702  -0.088564  -0.002158  3.977147  -0.002
C  C59  1  0.74612881  0.85104680  0.26134414  1  -0.07824  -0.087389  0.003165  3.974692  0.002
C  C60  1  0.66091648  0.24887757  0.16908958  1  -0.026461  -0.075635  0.005274  4.043926  0.003
C  C61  1  0.33836909  0.25184063  0.66764054  1  -0.025936  -0.074704  -0.002091  4.036774  -0.001
C  C62  1  0.33843658  0.75147410  0.83244729  1  -0.025813  -0.074405  0.002146  4.038157  0.001
C  C63  1  0.66066954  0.74883364  0.33107157  1  -0.025786  -0.074768  -0.005131  4.042699  -0.003
C  C64  1  0.56326955  0.14010423  0.22576892  1  0.078734  0.103226  -0.005036  3.904166  -0.004
C  C65  1  0.43772121  0.36071119  0.72370939  1  0.081509  0.10802  0.002729  3.901144  0.003
C  C66  1  0.43763171  0.86032387  0.77646143  1  0.080826  0.106995  -0.002744  3.902261  -0.003
C  C67  1  0.56289228  0.64003176  0.27432947  1  0.078089  0.102378  0.005084  3.902338  0.004
C  C68  1  0.37504560  0.94427513  0.23744030  1  0.102242  0.200618  -0.002362  4.005716  -0.002
C  C69  1  0.62342897  0.55715731  0.73460637  1  0.104606  0.205276  0.002348  3.993345  0.002
C  C70  1  0.62287321  0.05688422  0.76545060  1  0.104537  0.205747  -0.002387  3.994056  -0.002
C  C71  1  0.37457510  0.44415456  0.26266941  1  0.101483  0.19905  0.002396  4.005954  0.002
C  C72  1  0.41047056  0.90087840  0.34562343  1  -0.090435  -0.172326  0.002175  3.966891  0.001
C  C73  1  0.58760512  0.60080570  0.84261460  1  -0.090252  -0.173943  -0.001102  3.964928  -0.001
C  C74  1  0.58648763  0.10028440  0.65749176  1  -0.09035  -0.175321  0.001104  3.96669  0.001
C  C75  1  0.41008008  0.40044295  0.15469881  1  -0.089954  -0.170898  -0.002157  3.966537  -0.001
C  C76  1  0.30198452  0.80775336  0.40656476  1  -0.080729  -0.045867  7.4e-05  3.979319  0.0
C  C77  1  0.69579772  0.69224315  0.90561518  1  -0.078892  -0.042578  0.000433  3.974947  0.0
C  C78  1  0.69424188  0.19190617  0.59444660  1  -0.07948  -0.041938  -0.000445  3.974529  0.0
C  C79  1  0.30161438  0.30725038  0.09365172  1  -0.080869  -0.04659  -5.9e-05  3.979261  0.0
C  C80  1  0.15637243  0.76088905  0.36189276  1  -0.094746  -0.093664  0.003986  3.993853  0.002
C  C81  1  0.84244222  0.73838107  0.86323121  1  -0.094799  -0.095409  -0.002248  3.991881  -0.001
C  C82  1  0.84101151  0.23839984  0.63670744  1  -0.094519  -0.095725  0.002264  3.991678  0.001
C  C83  1  0.15591489  0.26056707  0.13797376  1  -0.094998  -0.094042  -0.003963  3.99472  -0.002
C  C84  1  0.11969019  0.80741957  0.25616991  1  -0.078898  -0.074942  0.000178  3.971398  0.0
C  C85  1  0.87999885  0.69192174  0.75794377  1  -0.079068  -0.072301  0.000175  3.964351  0.0
C  C86  1  0.87916345  0.19193121  0.74185526  1  -0.078916  -0.072081  -0.000179  3.964923  0.0
C  C87  1  0.11921566  0.30720742  0.24360095  1  -0.07874  -0.075113  -0.000175  3.969289  0.0
C  C88  1  0.22847917  0.89779742  0.19151358  1  -0.012812  -0.123692  0.00256  3.957  0.002
C  C89  1  0.77185889  0.60224178  0.69161062  1  -0.01342  -0.129476  -0.001441  3.954154  -0.001
C  C90  1  0.77146475  0.10205449  0.80824094  1  -0.013903  -0.130093  0.001442  3.953302  0.001
C  C91  1  0.22801110  0.39764336  0.30838424  1  -0.012573  -0.122055  -0.002556  3.954038  -0.002
C  C92  1  0.18197232  0.94762103  0.08071043  1  0.233  0.585423  0.003477  4.10718  0.002
C  C93  1  0.82140888  0.55080957  0.58354151  1  0.241491  0.590996  -8.9e-05  4.086346  0.0
C  C94  1  0.82144209  0.05050885  0.91612920  1  0.242352  0.592358  8.7e-05  4.083305  0.0
C  C95  1  0.18143497  0.44745441  0.41915083  1  0.232251  0.58385  -0.003467  4.107685  -0.002
N  N96  1  0.48465939  0.03613105  0.17161602  1  -0.352716  -0.265355  0.000755  3.579413  0.008
N  N97  1  0.51166215  0.46581829  0.66937130  1  -0.34362  -0.267058  0.001054  3.553789  -0.006
N  N98  1  0.51146134  0.96550040  0.83082345  1  -0.344205  -0.266965  -0.001068  3.554314  0.006
N  N99  1  0.48415552  0.53616123  0.32851000  1  -0.352375  -0.264187  -0.000596  3.58136  -0.008
O  O100  1  0.57105571  0.17653858  0.97458349  1  -0.310245  -0.450265  -0.004587  2.437172  -0.002
O  O101  1  0.42649464  0.32388153  0.47267070  1  -0.310021  -0.448702  0.016978  2.429232  0.012
O  O102  1  0.42632144  0.82374953  0.02746423  1  -0.309859  -0.448516  -0.016943  2.430612  -0.012
O  O103  1  0.57053330  0.67690308  0.52557237  1  -0.309583  -0.450009  0.004528  2.434816  0.002
O  O104  1  0.27581482  0.99791658  0.99807535  1  -0.280097  -0.474447  0.017865  2.31049  0.009
O  O105  1  0.73762998  0.50005353  0.49939065  1  -0.253606  -0.467537  -0.004298  2.215847  -0.001
O  O106  1  0.73801831  0.99973730  0.00038298  1  -0.254003  -0.468424  0.004274  2.214237  0.001
O  O107  1  0.27525714  0.49782088  0.50190111  1  -0.279284  -0.473359  -0.017863  2.308476  -0.009
O  O108  1  0.04358239  0.93888011  0.07142660  1  -0.294138  -0.505327  0.005531  2.265777  0.004
O  O109  1  0.96494429  0.56120103  0.58331333  1  -0.312684  -0.482946  -0.000288  2.366372  0.0
O  O110  1  0.96496088  0.06085273  0.91602647  1  -0.312736  -0.482541  0.000286  2.365145  0.0
O  O111  1  0.04299588  0.43859886  0.42820459  1  -0.293785  -0.505286  -0.005519  2.265196  -0.004
