# generated using pymatgen
data_ZnH8C7N3
_symmetry_space_group_name_H-M   'P 1'
_cell_length_a   7.38688082
_cell_length_b   12.16212168
_cell_length_c   12.16178384
_cell_angle_alpha   60.95761886
_cell_angle_beta   81.46344639
_cell_angle_gamma   81.46056402
_symmetry_Int_Tables_number   1
_chemical_formula_structural   ZnH8C7N3
_chemical_formula_sum   'Zn4 H32 C28 N12'
_cell_volume   940.95080972
_cell_formula_units_Z   4
loop_
 _symmetry_equiv_pos_site_id
 _symmetry_equiv_pos_as_xyz
  1  'x, y, z'
loop_
 _atom_site_type_symbol
 _atom_site_label
 _atom_site_symmetry_multiplicity
 _atom_site_fract_x
 _atom_site_fract_y
 _atom_site_fract_z
 _atom_site_occupancy
 _atom_site_hle17_bader_spin_density
 _atom_site_hle17_ddec_charge
 _atom_site_hle17_ddec_spin_density
 _atom_site_hle17_ddec_sum_bond_order
 _atom_site_hle17_magmom
 _atom_site_hse06_10hf_bader_spin_density
 _atom_site_hse06_10hf_ddec_charge
 _atom_site_hse06_10hf_ddec_spin_density
 _atom_site_hse06_10hf_ddec_sum_bond_order
 _atom_site_hse06_10hf_magmom
 _atom_site_hse06_bader_spin_density
 _atom_site_hse06_ddec_charge
 _atom_site_hse06_ddec_spin_density
 _atom_site_hse06_ddec_sum_bond_order
 _atom_site_hse06_magmom
 _atom_site_pbe_bader_spin_density
 _atom_site_pbe_cm5_charge
 _atom_site_pbe_ddec_charge
 _atom_site_pbe_ddec_spin_density
 _atom_site_pbe_ddec_sum_bond_order
 _atom_site_pbe_magmom
Zn  Zn0  1  0.08541947  0.92391327  0.21260601  1  0  0.698683  0  2.050356  0  0  0.522556  0  2.500834  0  0  0.558069  0  2.466401  0  0  0.568037  0.498437  0  2.524709  0
Zn  Zn1  1  0.41459872  0.78739758  0.07609221  1  0  0.698582  0  2.050493  0  0  0.522413  0  2.500997  0  0  0.557934  0  2.466559  0  0  0.567981  0.498295  0  2.524856  0
Zn  Zn2  1  0.91459600  0.07610716  0.78737563  1  0  0.698786  0  2.050295  0  0  0.52261  0  2.500805  0  0  0.558134  0  2.466365  0  0  0.568081  0.498499  0  2.524671  0
Zn  Zn3  1  0.58540478  0.21262018  0.92388109  1  0  0.698652  0  2.050255  0  0  0.522467  0  2.500725  0  0  0.557984  0  2.466285  0  0  0.567994  0.498347  0  2.524599  0
H  H4  1  0.77900455  0.97061762  0.38358735  1  0  0.093568  0  0.962623  0  0  0.106688  0  1.02247  0  0  0.109567  0  1.020961  0  0  0.100825  0.104578  0  1.023848  0
H  H5  1  0.72098856  0.61641446  0.02938076  1  0  0.093544  0  0.962643  0  0  0.106665  0  1.022482  0  0  0.109547  0  1.02097  0  0  0.10081  0.104553  0  1.023856  0
H  H6  1  0.22108067  0.02937056  0.61640749  1  0  0.093578  0  0.962566  0  0  0.106668  0  1.022433  0  0  0.109544  0  1.02093  0  0  0.100822  0.104561  0  1.023804  0
H  H7  1  0.27894986  0.38358734  0.97060760  1  0  0.093541  0  0.962554  0  0  0.106654  0  1.022413  0  0  0.109537  0  1.020898  0  0  0.100824  0.104542  0  1.023793  0
H  H8  1  0.60950257  0.08466226  0.49684956  1  0  0.0836  0  0.960081  0  0  0.097835  0  1.015686  0  0  0.099761  0  1.015414  0  0  0.099401  0.096324  0  1.016191  0
H  H9  1  0.89048552  0.50315148  0.91533806  1  0  0.083696  0  0.960096  0  0  0.097854  0  1.015778  0  0  0.099777  0  1.015508  0  0  0.099405  0.096364  0  1.016257  0
H  H10  1  0.39059478  0.91529446  0.50318136  1  0  0.083853  0  0.960054  0  0  0.097979  0  1.015729  0  0  0.099918  0  1.015441  0  0  0.099515  0.096457  0  1.016245  0
H  H11  1  0.10945659  0.49684260  0.08466598  1  0  0.083768  0  0.959983  0  0  0.097923  0  1.015655  0  0  0.099848  0  1.015384  0  0  0.099482  0.096406  0  1.016166  0
H  H12  1  0.52035962  0.31621996  0.37737192  1  0  0.090609  0  0.941871  0  0  0.103693  0  0.995564  0  0  0.106497  0  0.994976  0  0  0.102803  0.101495  0  0.996503  0
H  H13  1  0.97961087  0.62262412  0.68377122  1  0  0.090497  0  0.941858  0  0  0.103584  0  0.995556  0  0  0.106388  0  0.994966  0  0  0.102739  0.101391  0  0.99649  0
H  H14  1  0.47962699  0.68372455  0.62268294  1  0  0.09062  0  0.941933  0  0  0.103661  0  0.995673  0  0  0.106481  0  0.995062  0  0  0.102774  0.101452  0  0.99662  0
H  H15  1  0.02038981  0.37736123  0.31624242  1  0  0.090525  0  0.941828  0  0  0.103595  0  0.995548  0  0  0.106411  0  0.994943  0  0  0.102727  0.101377  0  0.996509  0
H  H16  1  0.60105876  0.43114437  0.14593195  1  0  0.080265  0  0.970306  0  0  0.094925  0  1.026504  0  0  0.096807  0  1.026279  0  0  0.098422  0.093582  0  1.026758  0
H  H17  1  0.89893440  0.85406950  0.56885418  1  0  0.080251  0  0.97038  0  0  0.094984  0  1.02649  0  0  0.096865  0  1.026265  0  0  0.098445  0.093637  0  1.026759  0
H  H18  1  0.39884023  0.56882210  0.85411211  1  0  0.080325  0  0.970157  0  0  0.094945  0  1.026394  0  0  0.096828  0  1.026166  0  0  0.098388  0.0936  0  1.026655  0
H  H19  1  0.10113868  0.14592788  0.43115711  1  0  0.0802  0  0.970267  0  0  0.094922  0  1.026407  0  0  0.096803  0  1.026183  0  0  0.098357  0.093571  0  1.026673  0
H  H20  1  0.77593870  0.31836828  0.03401696  1  0  0.092922  0  0.977198  0  0  0.10437  0  1.040369  0  0  0.106749  0  1.039426  0  0  0.100855  0.102525  0  1.041346  0
H  H21  1  0.72406522  0.96597964  0.68163877  1  0  0.092951  0  0.977303  0  0  0.104412  0  1.040451  0  0  0.106788  0  1.03951  0  0  0.100871  0.102555  0  1.041441  0
H  H22  1  0.22397414  0.68164087  0.96598746  1  0  0.093163  0  0.977015  0  0  0.104474  0  1.040309  0  0  0.10685  0  1.039367  0  0  0.100988  0.102645  0  1.041255  0
H  H23  1  0.27599173  0.03402636  0.31836247  1  0  0.093167  0  0.977016  0  0  0.104561  0  1.040231  0  0  0.106935  0  1.039292  0  0  0.100977  0.102724  0  1.041192  0
H  H24  1  0.12767156  0.82365848  0.44779446  1  0  0.128493  0  1.040357  0  0  0.145099  0  1.103725  0  0  0.146571  0  1.107081  0  0  0.059237  0.143894  0  1.101833  0
H  H25  1  0.37234535  0.55222255  0.17637518  1  0  0.128471  0  1.040516  0  0  0.145057  0  1.103888  0  0  0.146527  0  1.107244  0  0  0.059214  0.143848  0  1.101997  0
H  H26  1  0.87233045  0.17636005  0.55219177  1  0  0.128586  0  1.040229  0  0  0.145207  0  1.103566  0  0  0.146678  0  1.106923  0  0  0.059306  0.144003  0  1.10167  0
H  H27  1  0.62766262  0.44779215  0.82361644  1  0  0.128507  0  1.040493  0  0  0.145118  0  1.103826  0  0  0.146587  0  1.107181  0  0  0.059212  0.143911  0  1.101934  0
H  H28  1  0.27575135  0.74204975  0.37703216  1  0  0.140118  0  1.012303  0  0  0.162287  0  1.062066  0  0  0.163737  0  1.065073  0  0  0.063892  0.161292  0  1.060069  0
H  H29  1  0.22426247  0.62300747  0.25796046  1  0  0.140124  0  1.012391  0  0  0.162283  0  1.062161  0  0  0.163731  0  1.065171  0  0  0.063912  0.161285  0  1.060163  0
H  H30  1  0.72423678  0.25795939  0.62295813  1  0  0.140214  0  1.012282  0  0  0.162387  0  1.062029  0  0  0.163839  0  1.06503  0  0  0.06394  0.161391  0  1.060037  0
H  H31  1  0.77574575  0.37702717  0.74201179  1  0  0.140173  0  1.012247  0  0  0.162321  0  1.062031  0  0  0.16377  0  1.065035  0  0  0.063896  0.161325  0  1.060038  0
H  H32  1  0.03937917  0.71487075  0.41563358  1  0  0.13458  0  1.010899  0  0  0.156594  0  1.060522  0  0  0.158501  0  1.062619  0  0  0.062313  0.15543  0  1.058813  0
H  H33  1  0.46063342  0.58439082  0.28516545  1  0  0.134535  0  1.010885  0  0  0.156564  0  1.060483  0  0  0.158473  0  1.062578  0  0  0.062243  0.155399  0  1.058777  0
H  H34  1  0.96060237  0.28515822  0.58434787  1  0  0.134648  0  1.010884  0  0  0.156641  0  1.060525  0  0  0.158548  0  1.062621  0  0  0.062316  0.155478  0  1.058816  0
H  H35  1  0.53937206  0.41564373  0.71481448  1  0  0.134578  0  1.010794  0  0  0.156572  0  1.060439  0  0  0.158482  0  1.062531  0  0  0.062228  0.155412  0  1.058725  0
C  C36  1  0.78553465  0.13708625  0.20177545  1  0  0.189709  0  3.84506  0  0  0.188022  0  4.094325  0  0  0.192045  0  4.120408  0  0  0.081965  0.185487  0  4.076391  0
C  C37  1  0.71445632  0.79821151  0.86292193  1  0  0.189484  0  3.845412  0  0  0.187872  0  4.094585  0  0  0.191904  0  4.120668  0  0  0.08186  0.185332  0  4.076653  0
C  C38  1  0.21446092  0.86291809  0.79822139  1  0  0.189868  0  3.844858  0  0  0.188213  0  4.094077  0  0  0.192246  0  4.120157  0  0  0.082154  0.185663  0  4.076163  0
C  C39  1  0.28553985  0.20178815  0.13707461  1  0  0.189769  0  3.845211  0  0  0.18822  0  4.094306  0  0  0.192245  0  4.12039  0  0  0.082009  0.18568  0  4.076381  0
C  C40  1  0.74064672  0.07194058  0.33278684  1  0  -0.155376  0  3.741001  0  0  -0.174932  0  3.990637  0  0  -0.1799  0  4.012457  0  0  -0.095737  -0.172025  0  3.976241  0
C  C41  1  0.75934048  0.66721192  0.92805772  1  0  -0.155158  0  3.740924  0  0  -0.174714  0  3.99049  0  0  -0.179683  0  4.012303  0  0  -0.095594  -0.1718  0  3.976091  0
C  C42  1  0.25939456  0.92804855  0.66721560  1  0  -0.155475  0  3.740704  0  0  -0.175027  0  3.990382  0  0  -0.179997  0  4.012202  0  0  -0.09581  -0.172111  0  3.975978  0
C  C43  1  0.24062330  0.33278400  0.07194432  1  0  -0.15535  0  3.741391  0  0  -0.174923  0  3.990966  0  0  -0.179892  0  4.012783  0  0  -0.095741  -0.17201  0  3.976567  0
C  C44  1  0.64577955  0.13622975  0.39540045  1  0  -0.058638  0  3.790436  0  0  -0.071203  0  4.0402  0  0  -0.071775  0  4.062414  0  0  -0.091058  -0.070546  0  4.025384  0
C  C45  1  0.85420616  0.60459277  0.86376952  1  0  -0.058827  0  3.790253  0  0  -0.071354  0  4.040046  0  0  -0.071929  0  4.062267  0  0  -0.091104  -0.070712  0  4.025225  0
C  C46  1  0.35426869  0.86373658  0.60462289  1  0  -0.058875  0  3.790472  0  0  -0.071335  0  4.04019  0  0  -0.071918  0  4.062401  0  0  -0.091169  -0.07067  0  4.025377  0
C  C47  1  0.14576619  0.39540034  0.13622980  1  0  -0.058808  0  3.790481  0  0  -0.071302  0  4.040217  0  0  -0.071873  0  4.062431  0  0  -0.091097  -0.070639  0  4.025394  0
C  C48  1  0.59479795  0.26569289  0.32864061  1  0  -0.070195  0  3.760495  0  0  -0.087087  0  4.01169  0  0  -0.090344  0  4.034216  0  0  -0.089809  -0.084766  0  3.996662  0
C  C49  1  0.90518307  0.67135376  0.73430679  1  0  -0.070028  0  3.760445  0  0  -0.086919  0  4.011651  0  0  -0.090173  0  4.034171  0  0  -0.089764  -0.084607  0  3.996629  0
C  C50  1  0.40520093  0.73426305  0.67139868  1  0  -0.070186  0  3.760872  0  0  -0.087059  0  4.012019  0  0  -0.090328  0  4.034538  0  0  -0.089782  -0.084728  0  3.996998  0
C  C51  1  0.09481887  0.32863255  0.26570463  1  0  -0.070204  0  3.760494  0  0  -0.087089  0  4.011699  0  0  -0.090355  0  4.034217  0  0  -0.089821  -0.084752  0  3.996666  0
C  C52  1  0.64012207  0.33023553  0.19846315  1  0  -0.047041  0  3.784065  0  0  -0.058664  0  4.030483  0  0  -0.05941  0  4.053562  0  0  -0.087299  -0.057843  0  4.014215  0
C  C53  1  0.85987506  0.80152881  0.66976055  1  0  -0.04707  0  3.7837  0  0  -0.058749  0  4.030125  0  0  -0.059497  0  4.053207  0  0  -0.087328  -0.05793  0  4.013856  0
C  C54  1  0.35982879  0.66974320  0.80156468  1  0  -0.047147  0  3.783791  0  0  -0.058715  0  4.030133  0  0  -0.059461  0  4.053212  0  0  -0.087286  -0.057899  0  4.013867  0
C  C55  1  0.14016129  0.19846695  0.33023918  1  0  -0.04675  0  3.783698  0  0  -0.058397  0  4.030066  0  0  -0.059145  0  4.05315  0  0  -0.087127  -0.057575  0  4.013782  0
C  C56  1  0.73602649  0.26724011  0.13490296  1  0  -0.16214  0  3.748196  0  0  -0.182656  0  3.999377  0  0  -0.188038  0  4.022611  0  0  -0.097768  -0.178401  0  3.983081  0
C  C57  1  0.76396352  0.86509713  0.73276610  1  0  -0.162126  0  3.747932  0  0  -0.182677  0  3.999095  0  0  -0.188059  0  4.022337  0  0  -0.097787  -0.178404  0  3.982809  0
C  C58  1  0.26392330  0.73274712  0.86512092  1  0  -0.1624  0  3.747523  0  0  -0.182795  0  3.998686  0  0  -0.188175  0  4.021915  0  0  -0.097964  -0.178535  0  3.982397  0
C  C59  1  0.23606253  0.13490428  0.26723351  1  0  -0.162642  0  3.747945  0  0  -0.183175  0  3.999161  0  0  -0.188557  0  4.022394  0  0  -0.098036  -0.178917  0  3.982861  0
C  C60  1  0.13642914  0.78760452  0.37985043  1  0  -0.7644  0  3.676624  0  0  -0.781025  0  3.934562  0  0  -0.800473  0  3.94009  0  0  -0.420886  -0.767597  0  3.930497  0
C  C61  1  0.36359070  0.62017300  0.21241858  1  0  -0.764332  0  3.676838  0  0  -0.780917  0  3.934733  0  0  -0.800376  0  3.940287  0  0  -0.420814  -0.767488  0  3.930665  0
C  C62  1  0.86356615  0.21241308  0.62013684  1  0  -0.764703  0  3.676634  0  0  -0.781311  0  3.934556  0  0  -0.800756  0  3.940071  0  0  -0.421009  -0.767882  0  3.930492  0
C  C63  1  0.63641757  0.37985029  0.78756154  1  0  -0.764422  0  3.676611  0  0  -0.780954  0  3.934473  0  0  -0.80043  0  3.940072  0  0  -0.420703  -0.767522  0  3.930401  0
N  N64  1  0.88320837  0.06812389  0.14301859  1  0  -0.285389  0  3.208042  0  0  -0.221904  0  3.502135  0  0  -0.239281  0  3.513387  0  0  -0.235899  -0.210671  0  3.49473  0
N  N65  1  0.61679291  0.85697822  0.93187791  1  0  -0.285276  0  3.207986  0  0  -0.221832  0  3.502056  0  0  -0.239237  0  3.51334  0  0  -0.235919  -0.21061  0  3.49466  0
N  N66  1  0.11680120  0.93188901  0.85696634  1  0  -0.285257  0  3.208101  0  0  -0.22182  0  3.502214  0  0  -0.23922  0  3.513494  0  0  -0.235936  -0.210598  0  3.494818  0
N  N67  1  0.38320708  0.14303471  0.06810705  1  0  -0.285338  0  3.207962  0  0  -0.221956  0  3.502073  0  0  -0.239334  0  3.513328  0  0  -0.235926  -0.210739  0  3.494689  0
N  N68  1  0.85091251  0.10906724  0.02603396  1  0  -0.012807  0  3.257899  0  0  0.026955  0  3.537448  0  0  0.037183  0  3.545959  0  0  -0.070057  0.020866  0  3.531285  0
N  N69  1  0.64909849  0.97395366  0.89093793  1  0  -0.012933  0  3.257908  0  0  0.026848  0  3.53743  0  0  0.037078  0  3.545959  0  0  -0.070021  0.020763  0  3.531257  0
N  N70  1  0.14909224  0.89095131  0.97395036  1  0  -0.013065  0  3.258243  0  0  0.026775  0  3.537814  0  0  0.037005  0  3.546339  0  0  -0.070069  0.020693  0  3.531637  0
N  N71  1  0.35091108  0.02605924  0.10904700  1  0  -0.01292  0  3.258104  0  0  0.026911  0  3.537681  0  0  0.037135  0  3.546205  0  0  -0.069996  0.020831  0  3.531508  0
N  N72  1  0.94175958  0.05101912  0.96562226  1  0  -0.176707  0  3.2592  0  0  -0.131617  0  3.566866  0  0  -0.146319  0  3.582298  0  0  -0.14928  -0.122129  0  3.556905  0
N  N73  1  0.55825420  0.03436783  0.94898542  1  0  -0.176443  0  3.259008  0  0  -0.131335  0  3.566597  0  0  -0.146036  0  3.582035  0  0  -0.149188  -0.121839  0  3.556621  0
N  N74  1  0.05825053  0.94900037  0.03436114  1  0  -0.176335  0  3.259304  0  0  -0.131424  0  3.567039  0  0  -0.146123  0  3.582474  0  0  -0.149203  -0.121931  0  3.557065  0
N  N75  1  0.44175423  0.96564318  0.05100134  1  0  -0.176441  0  3.259067  0  0  -0.131516  0  3.566794  0  0  -0.146216  0  3.58223  0  0  -0.149229  -0.122025  0  3.556818  0
