# generated using pymatgen
data_CdH12C10S(NO3)2
_symmetry_space_group_name_H-M   'P 1'
_cell_length_a   7.02612563
_cell_length_b   10.14246777
_cell_length_c   10.14247930
_cell_angle_alpha   79.70881517
_cell_angle_beta   76.08537396
_cell_angle_gamma   76.08563378
_symmetry_Int_Tables_number   1
_chemical_formula_structural   CdH12C10S(NO3)2
_chemical_formula_sum   'Cd2 H24 C20 S2 N4 O12'
_cell_volume   675.35689966
_cell_formula_units_Z   2
loop_
 _symmetry_equiv_pos_site_id
 _symmetry_equiv_pos_as_xyz
  1  'x, y, z'
loop_
 _atom_site_type_symbol
 _atom_site_label
 _atom_site_symmetry_multiplicity
 _atom_site_fract_x
 _atom_site_fract_y
 _atom_site_fract_z
 _atom_site_occupancy
 _atom_site_hle17_bader_spin_density
 _atom_site_hle17_ddec_charge
 _atom_site_hle17_ddec_spin_density
 _atom_site_hle17_ddec_sum_bond_order
 _atom_site_hle17_magmom
 _atom_site_hse06_10hf_bader_spin_density
 _atom_site_hse06_10hf_ddec_charge
 _atom_site_hse06_10hf_ddec_spin_density
 _atom_site_hse06_10hf_ddec_sum_bond_order
 _atom_site_hse06_10hf_magmom
 _atom_site_hse06_bader_spin_density
 _atom_site_hse06_ddec_charge
 _atom_site_hse06_ddec_spin_density
 _atom_site_hse06_ddec_sum_bond_order
 _atom_site_hse06_magmom
 _atom_site_pbe_bader_spin_density
 _atom_site_pbe_cm5_charge
 _atom_site_pbe_ddec_charge
 _atom_site_pbe_ddec_spin_density
 _atom_site_pbe_ddec_sum_bond_order
 _atom_site_pbe_magmom
Cd  Cd0  1  0.25000335  0.78247593  0.21752209  1  0  1.176622  0  1.692071  0  0  0.997613  0  2.142242  0  0  1.048404  0  2.089152  0  0  0.787113  0.960846  0  2.178327  0
Cd  Cd1  1  0.75000078  0.21752157  0.78247810  1  0  1.176661  0  1.692054  0  0  0.997653  0  2.142213  0  0  1.048444  0  2.089122  0  0  0.787119  0.960885  0  2.178297  0
H  H2  1  0.39197231  0.00745518  0.19600890  1  0  0.416437  0  0.897578  0  0  0.383638  0  0.964652  0  0  0.39441  0  0.949137  0  0  0.283818  0.376064  0  0.975491  0
H  H3  1  0.89197358  0.19600498  0.00745861  1  0  0.416393  0  0.897651  0  0  0.383621  0  0.964683  0  0  0.394389  0  0.949175  0  0  0.283817  0.376048  0  0.975522  0
H  H4  1  0.60803381  0.99254026  0.80399235  1  0  0.416347  0  0.897716  0  0  0.383602  0  0.964714  0  0  0.394375  0  0.949197  0  0  0.283796  0.376028  0  0.975553  0
H  H5  1  0.10803318  0.80398839  0.99254095  1  0  0.416373  0  0.897679  0  0  0.383558  0  0.964762  0  0  0.394332  0  0.949246  0  0  0.283779  0.375988  0  0.975594  0
H  H6  1  0.20023344  0.06460668  0.12977248  1  0  0.42455  0  0.881489  0  0  0.391727  0  0.948494  0  0  0.402551  0  0.932848  0  0  0.286038  0.384069  0  0.959554  0
H  H7  1  0.70023346  0.12977010  0.06461004  1  0  0.424678  0  0.881298  0  0  0.391759  0  0.948428  0  0  0.402587  0  0.932777  0  0  0.286096  0.384105  0  0.959481  0
H  H8  1  0.79977152  0.93538774  0.87022814  1  0  0.424663  0  0.881314  0  0  0.391755  0  0.948444  0  0  0.402583  0  0.932792  0  0  0.286115  0.384098  0  0.959503  0
H  H9  1  0.29977277  0.87022531  0.93538824  1  0  0.424579  0  0.881447  0  0  0.391756  0  0.948451  0  0  0.402582  0  0.932803  0  0  0.286089  0.384098  0  0.95951  0
H  H10  1  0.18715947  0.92867171  0.48601274  1  0  0.078739  0  0.934104  0  0  0.089503  0  0.994539  0  0  0.091654  0  0.992726  0  0  0.11812  0.088362  0  0.995125  0
H  H11  1  0.68716351  0.48600865  0.92867544  1  0  0.078701  0  0.934125  0  0  0.089498  0  0.994534  0  0  0.091649  0  0.992719  0  0  0.118097  0.088357  0  0.995119  0
H  H12  1  0.81284150  0.07133195  0.51398680  1  0  0.078689  0  0.934169  0  0  0.08946  0  0.994603  0  0  0.091611  0  0.992789  0  0  0.118095  0.088318  0  0.99519  0
H  H13  1  0.31283401  0.51399709  0.07132326  1  0  0.07869  0  0.934192  0  0  0.089474  0  0.994615  0  0  0.091626  0  0.992798  0  0  0.118075  0.088332  0  0.995201  0
H  H14  1  0.18057010  0.86892668  0.73685797  1  0  0.117051  0  0.951162  0  0  0.127923  0  1.00689  0  0  0.130643  0  1.006375  0  0  0.112852  0.125821  0  1.007658  0
H  H15  1  0.68057340  0.73685330  0.86893558  1  0  0.117112  0  0.951308  0  0  0.127951  0  1.007045  0  0  0.130671  0  1.006532  0  0  0.112922  0.125849  0  1.007811  0
H  H16  1  0.81942204  0.13107711  0.26314287  1  0  0.116987  0  0.951191  0  0  0.127783  0  1.007006  0  0  0.130501  0  1.006491  0  0  0.112801  0.12568  0  1.007773  0
H  H17  1  0.31942002  0.26315148  0.13106292  1  0  0.117151  0  0.951264  0  0  0.127974  0  1.007018  0  0  0.130692  0  1.006506  0  0  0.11294  0.125871  0  1.007786  0
H  H18  1  0.21015572  0.62085016  0.83782700  1  0  0.09716  0  0.9388  0  0  0.110451  0  0.994169  0  0  0.112932  0  0.992366  0  0  0.110224  0.109049  0  0.994698  0
H  H19  1  0.71014520  0.83782688  0.62086020  1  0  0.097157  0  0.938761  0  0  0.110454  0  0.994121  0  0  0.112935  0  0.992327  0  0  0.110235  0.109052  0  0.994651  0
H  H20  1  0.78984684  0.37915248  0.16217644  1  0  0.097173  0  0.938768  0  0  0.110462  0  0.994135  0  0  0.112944  0  0.992326  0  0  0.110225  0.109057  0  0.994673  0
H  H21  1  0.28985869  0.16217772  0.37913283  1  0  0.097118  0  0.938924  0  0  0.110453  0  0.99423  0  0  0.112926  0  0.992444  0  0  0.110249  0.109052  0  0.994758  0
H  H22  1  0.25247527  0.44513229  0.68550348  1  0  0.12472  0  0.968593  0  0  0.132724  0  1.030991  0  0  0.136281  0  1.028999  0  0  0.108423  0.129948  0  1.032824  0
H  H23  1  0.75246840  0.68550567  0.44513835  1  0  0.124715  0  0.968667  0  0  0.132766  0  1.030996  0  0  0.13633  0  1.029009  0  0  0.108429  0.129989  0  1.032833  0
H  H24  1  0.74752646  0.55486831  0.31449847  1  0  0.12478  0  0.968714  0  0  0.132796  0  1.03108  0  0  0.136355  0  1.029082  0  0  0.108452  0.130019  0  1.032918  0
H  H25  1  0.24753788  0.31448973  0.55485894  1  0  0.124708  0  0.968776  0  0  0.132763  0  1.03109  0  0  0.136326  0  1.029103  0  0  0.108436  0.129986  0  1.032925  0
C  C26  1  0.19993411  0.82280701  0.53492044  1  0  0.132247  0  3.7208  0  0  0.103353  0  3.970605  0  0  0.10917  0  3.990283  0  0  0.052999  0.099292  0  3.956823  0
C  C27  1  0.69993383  0.53492383  0.82281275  1  0  0.132322  0  3.720929  0  0  0.103403  0  3.970731  0  0  0.10922  0  3.990413  0  0  0.053045  0.099342  0  3.956948  0
C  C28  1  0.80006365  0.17719261  0.46507834  1  0  0.132401  0  3.720712  0  0  0.103508  0  3.970492  0  0  0.109326  0  3.99017  0  0  0.053075  0.099448  0  3.95671  0
C  C29  1  0.30005728  0.46508404  0.17718554  1  0  0.132317  0  3.720813  0  0  0.103406  0  3.970619  0  0  0.109221  0  3.990304  0  0  0.053035  0.099346  0  3.956836  0
C  C30  1  0.19483443  0.78883631  0.67458299  1  0  -0.098094  0  3.70228  0  0  -0.111736  0  3.953125  0  0  -0.117928  0  3.975291  0  0  -0.075994  -0.107555  0  3.938642  0
C  C31  1  0.69483312  0.67458535  0.78884383  1  0  -0.098114  0  3.70247  0  0  -0.111719  0  3.953332  0  0  -0.117905  0  3.975478  0  0  -0.076022  -0.107539  0  3.93885  0
C  C32  1  0.80515084  0.21117163  0.32541517  1  0  -0.098077  0  3.702458  0  0  -0.111655  0  3.953309  0  0  -0.117843  0  3.975466  0  0  -0.075978  -0.107473  0  3.938824  0
C  C33  1  0.30515469  0.32541849  0.21115567  1  0  -0.098222  0  3.702295  0  0  -0.111824  0  3.953198  0  0  -0.118015  0  3.975364  0  0  -0.076088  -0.107642  0  3.938716  0
C  C34  1  0.21204161  0.65117929  0.72901459  1  0  0.006903  0  3.704217  0  0  -0.012696  0  3.956277  0  0  -0.009943  0  3.975938  0  0  -0.061966  -0.014712  0  3.942883  0
C  C35  1  0.71203169  0.72901768  0.65118929  1  0  0.006836  0  3.704337  0  0  -0.012781  0  3.95641  0  0  -0.010033  0  3.976074  0  0  -0.062022  -0.014796  0  3.943019  0
C  C36  1  0.78795324  0.34882547  0.27098468  1  0  0.006914  0  3.704495  0  0  -0.012681  0  3.956526  0  0  -0.009927  0  3.976185  0  0  -0.061981  -0.014698  0  3.943131  0
C  C37  1  0.28796073  0.27098509  0.34881169  1  0  0.006863  0  3.704547  0  0  -0.012787  0  3.956642  0  0  -0.010037  0  3.976298  0  0  -0.062049  -0.014801  0  3.943248  0
C  C38  1  0.23441057  0.55294141  0.64330918  1  0  -0.13513  0  3.66606  0  0  -0.155726  0  3.917732  0  0  -0.162178  0  3.938716  0  0  -0.077192  -0.151509  0  3.903995  0
C  C39  1  0.73440398  0.64331561  0.55294971  1  0  -0.135088  0  3.666224  0  0  -0.155712  0  3.917891  0  0  -0.162174  0  3.938885  0  0  -0.077209  -0.151495  0  3.904153  0
C  C40  1  0.76558624  0.44706227  0.35668507  1  0  -0.135255  0  3.666249  0  0  -0.15586  0  3.91791  0  0  -0.162311  0  3.938891  0  0  -0.077231  -0.151644  0  3.904174  0
C  C41  1  0.26559871  0.35668190  0.44704970  1  0  -0.135032  0  3.666304  0  0  -0.155653  0  3.91792  0  0  -0.162112  0  3.938909  0  0  -0.077177  -0.151436  0  3.904181  0
C  C42  1  0.23811899  0.59503208  0.50343668  1  0  0.173032  0  3.758305  0  0  0.167604  0  4.004183  0  0  0.173939  0  4.025502  0  0  0.119336  0.163335  0  3.989292  0
C  C43  1  0.73810928  0.50344186  0.59503557  1  0  0.172964  0  3.758068  0  0  0.167536  0  4.004003  0  0  0.173865  0  4.025323  0  0  0.119399  0.163269  0  3.989109  0
C  C44  1  0.76187928  0.40497061  0.49656443  1  0  0.173037  0  3.758092  0  0  0.167623  0  4.004007  0  0  0.173957  0  4.025324  0  0  0.119307  0.163353  0  3.989114  0
C  C45  1  0.26188517  0.49656395  0.40496653  1  0  0.172842  0  3.758203  0  0  0.167465  0  4.004059  0  0  0.173793  0  4.025387  0  0  0.11933  0.163197  0  3.989166  0
S  S46  1  0.75000382  0.84638818  0.15360935  1  0  1.585829  0  5.83128  0  0  1.459504  0  6.373852  0  0  1.515212  0  6.337535  0  0  0.563601  1.420848  0  6.398357  0
S  S47  1  0.25000261  0.15360623  0.84639105  1  0  1.585962  0  5.831218  0  0  1.459674  0  6.373781  0  0  1.515371  0  6.337455  0  0  0.563658  1.421022  0  6.39828  0
N  N48  1  0.22070125  0.72877263  0.45228849  1  0  -0.367421  0  3.268092  0  0  -0.295345  0  3.52797  0  0  -0.314906  0  3.547537  0  0  -0.329024  -0.28151  0  3.513845  0
N  N49  1  0.72069777  0.45228875  0.72878099  1  0  -0.36739  0  3.268013  0  0  -0.295318  0  3.527909  0  0  -0.314877  0  3.547476  0  0  -0.329032  -0.281482  0  3.513782  0
N  N50  1  0.77929431  0.27122909  0.54771419  1  0  -0.367522  0  3.26803  0  0  -0.295461  0  3.527943  0  0  -0.315021  0  3.547508  0  0  -0.32905  -0.281624  0  3.513816  0
N  N51  1  0.27930042  0.54771395  0.27122210  1  0  -0.367289  0  3.268014  0  0  -0.295217  0  3.527868  0  0  -0.314777  0  3.547441  0  0  -0.328966  -0.28138  0  3.513738  0
O  O52  1  0.89115107  0.81012190  0.24852557  1  0  -0.749124  0  1.96164  0  0  -0.690585  0  2.233743  0  0  -0.713193  0  2.213023  0  0  -0.373452  -0.674791  0  2.248282  0
O  O53  1  0.39114946  0.24852225  0.81012718  1  0  -0.749172  0  1.961649  0  0  -0.690628  0  2.233738  0  0  -0.713243  0  2.213022  0  0  -0.373497  -0.674839  0  2.248282  0
O  O54  1  0.10885565  0.18987148  0.75147498  1  0  -0.749108  0  1.961603  0  0  -0.690578  0  2.233692  0  0  -0.713198  0  2.21298  0  0  -0.373457  -0.674792  0  2.248235  0
O  O55  1  0.60885379  0.75147321  0.18987252  1  0  -0.74909  0  1.961624  0  0  -0.690565  0  2.233734  0  0  -0.713176  0  2.213015  0  0  -0.373447  -0.674775  0  2.248276  0
O  O56  1  0.63399794  0.99108680  0.16346564  1  0  -0.756158  0  1.985605  0  0  -0.686495  0  2.220172  0  0  -0.70876  0  2.201125  0  0  -0.358764  -0.670986  0  2.233307  0
O  O57  1  0.13399661  0.16346137  0.99108913  1  0  -0.756115  0  1.985572  0  0  -0.686541  0  2.220157  0  0  -0.708773  0  2.201098  0  0  -0.358751  -0.671029  0  2.233289  0
O  O58  1  0.36600670  0.00890866  0.83653583  1  0  -0.756117  0  1.985611  0  0  -0.686524  0  2.22018  0  0  -0.708778  0  2.201129  0  0  -0.358752  -0.671013  0  2.233311  0
O  O59  1  0.86600958  0.83653405  0.00891014  1  0  -0.756123  0  1.985662  0  0  -0.686446  0  2.220223  0  0  -0.708716  0  2.201181  0  0  -0.358762  -0.670937  0  2.233354  0
O  O60  1  0.24437776  0.00908453  0.21321654  1  0  -0.846163  0  1.869452  0  0  -0.782908  0  2.073066  0  0  -0.806488  0  2.040836  0  0  -0.590792  -0.765734  0  2.094576  0
O  O61  1  0.74437895  0.21321390  0.00908746  1  0  -0.846264  0  1.869368  0  0  -0.782937  0  2.073097  0  0  -0.806516  0  2.040864  0  0  -0.59085  -0.765762  0  2.094597  0
O  O62  1  0.75562521  0.99091196  0.78678302  1  0  -0.846207  0  1.869461  0  0  -0.782929  0  2.073111  0  0  -0.80651  0  2.040874  0  0  -0.590841  -0.765753  0  2.094617  0
O  O63  1  0.25562482  0.78677952  0.99091352  1  0  -0.846143  0  1.869499  0  0  -0.782887  0  2.073194  0  0  -0.806469  0  2.040962  0  0  -0.590791  -0.765716  0  2.094702  0
