# generated using pymatgen
data_Mo2H7C9N7O6
_symmetry_space_group_name_H-M   'P 1'
_cell_length_a   7.34059074
_cell_length_b   7.25737118
_cell_length_c   13.29703198
_cell_angle_alpha   87.94813761
_cell_angle_beta   80.44789151
_cell_angle_gamma   86.83550675
_symmetry_Int_Tables_number   1
_chemical_formula_structural   Mo2H7C9N7O6
_chemical_formula_sum   'Mo4 H14 C18 N14 O12'
_cell_volume   697.23581043
_cell_formula_units_Z   2
loop_
 _symmetry_equiv_pos_site_id
 _symmetry_equiv_pos_as_xyz
  1  'x, y, z'
loop_
 _atom_site_type_symbol
 _atom_site_label
 _atom_site_symmetry_multiplicity
 _atom_site_fract_x
 _atom_site_fract_y
 _atom_site_fract_z
 _atom_site_occupancy
 _atom_site_hle17_bader_spin_density
 _atom_site_hle17_ddec_charge
 _atom_site_hle17_ddec_spin_density
 _atom_site_hle17_ddec_sum_bond_order
 _atom_site_hle17_magmom
 _atom_site_hse06_10hf_bader_spin_density
 _atom_site_hse06_10hf_ddec_charge
 _atom_site_hse06_10hf_ddec_spin_density
 _atom_site_hse06_10hf_ddec_sum_bond_order
 _atom_site_hse06_10hf_magmom
 _atom_site_hse06_bader_spin_density
 _atom_site_hse06_ddec_charge
 _atom_site_hse06_ddec_spin_density
 _atom_site_hse06_ddec_sum_bond_order
 _atom_site_hse06_magmom
 _atom_site_pbe_bader_spin_density
 _atom_site_pbe_cm5_charge
 _atom_site_pbe_ddec_charge
 _atom_site_pbe_ddec_spin_density
 _atom_site_pbe_ddec_sum_bond_order
 _atom_site_pbe_magmom
Mo  Mo0  1  0.79518846  0.88341900  0.54002124  1  0  2.182948  0  4.06295  0  0  2.170146  0  4.613638  0  0  2.268057  0  4.581694  0  0  1.551419  2.095773  0  4.645045  0
Mo  Mo1  1  0.20481524  0.11657473  0.45997985  1  0  2.182932  0  4.062983  0  0  2.170124  0  4.613671  0  0  2.268035  0  4.58174  0  0  1.551407  2.09575  0  4.645051  0
Mo  Mo2  1  0.18654423  0.61822042  0.43061139  1  0  2.169127  0  4.057192  0  0  2.155991  0  4.614663  0  0  2.25403  0  4.581309  0  0  1.535592  2.082621  0  4.645409  0
Mo  Mo3  1  0.81344220  0.38178560  0.56939782  1  0  2.169259  0  4.057524  0  0  2.156085  0  4.615018  0  0  2.254113  0  4.581667  0  0  1.535818  2.08272  0  4.645806  0
H  H4  1  0.62169646  0.88654130  0.32390559  1  0  0.317146  0  0.90054  0  0  0.294796  0  0.964846  0  0  0.3041  0  0.956475  0  0  0.334286  0.288097  0  0.97109  0
H  H5  1  0.37829711  0.11346211  0.67609626  1  0  0.317177  0  0.900476  0  0  0.294793  0  0.964806  0  0  0.304095  0  0.956438  0  0  0.334301  0.288096  0  0.97105  0
H  H6  1  0.94056514  0.90839417  0.80365394  1  0  0.121938  0  0.906052  0  0  0.131538  0  0.966784  0  0  0.134388  0  0.962697  0  0  0.157215  0.129474  0  0.969705  0
H  H7  1  0.05942987  0.09160786  0.19634780  1  0  0.121984  0  0.906171  0  0  0.131616  0  0.966861  0  0  0.134465  0  0.962773  0  0  0.157232  0.129553  0  0.969783  0
H  H8  1  0.38204879  0.54378218  0.67155609  1  0  0.128491  0  0.945568  0  0  0.136516  0  1.006004  0  0  0.140059  0  1.001767  0  0  0.149443  0.133816  0  1.009271  0
H  H9  1  0.61794612  0.45622266  0.32844337  1  0  0.128531  0  0.94548  0  0  0.136532  0  1.005964  0  0  0.140096  0  1.001698  0  0  0.14944  0.133831  0  1.009228  0
H  H10  1  0.01347277  0.76488035  0.96948723  1  0  0.107432  0  0.980029  0  0  0.108088  0  1.057337  0  0  0.112114  0  1.054555  0  0  0.102517  0.1052  0  1.05936  0
H  H11  1  0.98652267  0.23511345  0.03051232  1  0  0.107491  0  0.980012  0  0  0.108091  0  1.057361  0  0  0.112114  0  1.054581  0  0  0.102524  0.105207  0  1.059383  0
H  H12  1  0.17330351  0.78927560  0.11640496  1  0  0.109817  0  0.945642  0  0  0.117672  0  1.010297  0  0  0.121127  0  1.007397  0  0  0.107944  0.115177  0  1.012475  0
H  H13  1  0.82669317  0.21072094  0.88359520  1  0  0.109863  0  0.945597  0  0  0.117722  0  1.010257  0  0  0.121177  0  1.007357  0  0  0.107957  0.115226  0  1.012431  0
H  H14  1  0.70005965  0.69474862  0.92310249  1  0  0.097739  0  0.948758  0  0  0.108314  0  1.010078  0  0  0.111129  0  1.008487  0  0  0.106756  0.106269  0  1.011273  0
H  H15  1  0.29993808  0.30525483  0.07689749  1  0  0.097731  0  0.948777  0  0  0.108314  0  1.010094  0  0  0.111129  0  1.008498  0  0  0.106743  0.106268  0  1.011288  0
H  H16  1  0.54382789  0.67527800  0.77400333  1  0  0.120293  0  0.969796  0  0  0.131984  0  1.028776  0  0  0.135165  0  1.02669  0  0  0.109245  0.129655  0  1.030447  0
H  H17  1  0.45616995  0.32472265  0.22599818  1  0  0.120305  0  0.969779  0  0  0.13199  0  1.028774  0  0  0.135169  0  1.026693  0  0  0.109239  0.129661  0  1.030447  0
C  C18  1  0.02927934  0.81884073  0.75083641  1  0  0.209345  0  3.553576  0  0  0.149985  0  3.822941  0  0  0.16664  0  3.829168  0  0  0.181156  0.138993  0  3.818509  0
C  C19  1  0.97071872  0.18115730  0.24915909  1  0  0.209235  0  3.553373  0  0  0.14984  0  3.82274  0  0  0.166496  0  3.828976  0  0  0.181111  0.138846  0  3.818314  0
C  C20  1  0.25855876  0.63486884  0.68307273  1  0  0.2211  0  3.542545  0  0  0.163965  0  3.80588  0  0  0.180704  0  3.811353  0  0  0.180144  0.153001  0  3.802103  0
C  C21  1  0.74144748  0.36512899  0.31692959  1  0  0.221001  0  3.542803  0  0  0.163847  0  3.806177  0  0  0.18057  0  3.811642  0  0  0.180106  0.152886  0  3.802388  0
C  C22  1  0.55054871  0.78131199  0.11156581  1  0  0.239945  0  3.792156  0  0  0.222956  0  4.068355  0  0  0.229643  0  4.086657  0  0  0.217563  0.218436  0  4.056065  0
C  C23  1  0.44944763  0.21869145  0.88843429  1  0  0.239721  0  3.792449  0  0  0.222755  0  4.068608  0  0  0.229449  0  4.086907  0  0  0.217454  0.21823  0  4.05632  0
C  C24  1  0.26939556  0.72382728  0.86112169  1  0  0.177981  0  3.760268  0  0  0.164422  0  4.015826  0  0  0.169288  0  4.039577  0  0  0.091236  0.161234  0  3.999702  0
C  C25  1  0.73060655  0.27617207  0.13887571  1  0  0.178  0  3.760246  0  0  0.164446  0  4.015764  0  0  0.169313  0  4.039512  0  0  0.091258  0.161258  0  3.999643  0
C  C26  1  0.16433997  0.75427134  0.95730088  1  0  -0.136091  0  3.720935  0  0  -0.155434  0  3.976893  0  0  -0.159706  0  3.99773  0  0  -0.08628  -0.152518  0  3.96277  0
C  C27  1  0.83565802  0.24572658  0.04269915  1  0  -0.136108  0  3.721045  0  0  -0.155392  0  3.976988  0  0  -0.159661  0  3.997825  0  0  -0.086283  -0.152477  0  3.962867  0
C  C28  1  0.25472915  0.76881890  0.04087508  1  0  -0.064895  0  3.681482  0  0  -0.085734  0  3.923651  0  0  -0.087224  0  3.944036  0  0  -0.076662  -0.084607  0  3.909778  0
C  C29  1  0.74527298  0.23117900  0.95912534  1  0  -0.06497  0  3.681462  0  0  -0.085838  0  3.923627  0  0  -0.087325  0  3.944005  0  0  -0.076686  -0.084709  0  3.909752  0
C  C30  1  0.44869314  0.75333776  0.02853040  1  0  0.008788  0  3.799268  0  0  0.026114  0  4.02919  0  0  0.024294  0  4.053434  0  0  -0.001085  0.027287  0  4.012888  0
C  C31  1  0.55130480  0.24666156  0.97146887  1  0  0.008814  0  3.79923  0  0  0.026149  0  4.029148  0  0  0.024324  0  4.053396  0  0  -0.001101  0.027325  0  4.012844  0
C  C32  1  0.55012112  0.71298951  0.93221527  1  0  -0.065697  0  3.727371  0  0  -0.088939  0  3.977108  0  0  -0.090634  0  3.998148  0  0  -0.078821  -0.087646  0  3.962832  0
C  C33  1  0.44987808  0.28701258  0.06778310  1  0  -0.065689  0  3.727327  0  0  -0.088953  0  3.97708  0  0  -0.090646  0  3.998122  0  0  -0.078817  -0.087665  0  3.962818  0
C  C34  1  0.46193171  0.69838139  0.84876153  1  0  -0.132877  0  3.722534  0  0  -0.157095  0  3.978793  0  0  -0.160166  0  3.998813  0  0  -0.090156  -0.154994  0  3.965273  0
C  C35  1  0.53806759  0.30161788  0.15123912  1  0  -0.13294  0  3.722371  0  0  -0.157162  0  3.978638  0  0  -0.160233  0  3.998661  0  0  -0.090183  -0.155062  0  3.965122  0
N  N36  1  0.01057241  0.79240872  0.65557964  1  0  -0.273391  0  3.210058  0  0  -0.241042  0  3.501753  0  0  -0.255731  0  3.521286  0  0  -0.244197  -0.230625  0  3.488239  0
N  N37  1  0.98942964  0.20759053  0.34442152  1  0  -0.273434  0  3.209441  0  0  -0.241095  0  3.501158  0  0  -0.255797  0  3.520692  0  0  -0.24419  -0.230675  0  3.487643  0
N  N38  1  0.15514612  0.67768979  0.61323161  1  0  -0.269631  0  3.209811  0  0  -0.236444  0  3.499041  0  0  -0.251251  0  3.518296  0  0  -0.243131  -0.226222  0  3.485686  0
N  N39  1  0.84484740  0.32231653  0.38676419  1  0  -0.269379  0  3.20981  0  0  -0.236162  0  3.499011  0  0  -0.250952  0  3.518266  0  0  -0.243007  -0.225938  0  3.485649  0
N  N40  1  0.18481196  0.72126149  0.77166256  1  0  -0.104172  0  3.511534  0  0  -0.01685  0  3.728526  0  0  -0.032977  0  3.748774  0  0  -0.199606  -0.006309  0  3.714647  0
N  N41  1  0.81518599  0.27873785  0.22833595  1  0  -0.104197  0  3.511559  0  0  -0.016857  0  3.728545  0  0  -0.032986  0  3.748797  0  0  -0.199623  -0.006312  0  3.714664  0
N  N42  1  0.47559109  0.83428229  0.20584309  1  0  -0.231252  0  2.857262  0  0  -0.230988  0  3.131375  0  0  -0.236133  0  3.144911  0  0  -0.195818  -0.227347  0  3.122279  0
N  N43  1  0.52440374  0.16572390  0.79415787  1  0  -0.2311  0  2.857295  0  0  -0.230855  0  3.13139  0  0  -0.235999  0  3.144922  0  0  -0.195756  -0.227216  0  3.122296  0
N  N44  1  0.62424304  0.84657135  0.24919317  1  0  -0.036014  0  3.500613  0  0  0.023502  0  3.751759  0  0  0.01525  0  3.767011  0  0  -0.134943  0.028868  0  3.741806  0
N  N45  1  0.37575191  0.15343207  0.75080781  1  0  -0.036165  0  3.500594  0  0  0.02341  0  3.751749  0  0  0.01516  0  3.767001  0  0  -0.135044  0.028774  0  3.741801  0
N  N46  1  0.78355143  0.80571144  0.18864593  1  0  -0.057466  0  2.892302  0  0  -0.06648  0  3.183485  0  0  -0.062571  0  3.193492  0  0  -0.084781  -0.068779  0  3.176705  0
N  N47  1  0.21644364  0.19428919  0.81135658  1  0  -0.057393  0  2.892295  0  0  -0.066448  0  3.183508  0  0  -0.062537  0  3.193515  0  0  -0.08472  -0.068749  0  3.176728  0
N  N48  1  0.73930397  0.76374285  0.10036841  1  0  -0.281955  0  2.947437  0  0  -0.262061  0  3.240169  0  0  -0.270862  0  3.252943  0  0  -0.197083  -0.256006  0  3.231453  0
N  N49  1  0.26069241  0.23625915  0.89963397  1  0  -0.281892  0  2.947582  0  0  -0.261988  0  3.240278  0  0  -0.270784  0  3.253032  0  0  -0.197039  -0.255934  0  3.231566  0
O  O50  1  0.86936408  0.62740010  0.50735118  1  0  -0.994422  0  1.933941  0  0  -0.987938  0  2.249259  0  0  -1.032744  0  2.244387  0  0  -0.602304  -0.952249  0  2.251023  0
O  O51  1  0.13065050  0.37259779  0.49264741  1  0  -0.994394  0  1.933913  0  0  -0.98793  0  2.249246  0  0  -1.032697  0  2.244298  0  0  -0.602296  -0.952237  0  2.251006  0
O  O52  1  0.10304578  0.87943293  0.44180499  1  0  -0.997469  0  1.916667  0  0  -0.993117  0  2.235506  0  0  -1.03724  0  2.228759  0  0  -0.602865  -0.957567  0  2.238331  0
O  O53  1  0.89696185  0.12056640  0.55819192  1  0  -0.997568  0  1.916607  0  0  -0.993156  0  2.235311  0  0  -1.037419  0  2.228847  0  0  -0.602858  -0.957673  0  2.238282  0
O  O54  1  0.69150285  0.93927660  0.43551761  1  0  -0.655832  0  1.535397  0  0  -0.654487  0  1.797784  0  0  -0.680752  0  1.789497  0  0  -0.500598  -0.635598  0  1.805024  0
O  O55  1  0.30850645  0.06071575  0.56448226  1  0  -0.655889  0  1.535416  0  0  -0.654508  0  1.797786  0  0  -0.680779  0  1.789501  0  0  -0.500603  -0.635617  0  1.805016  0
O  O56  1  0.61791146  0.86199327  0.63891650  1  0  -0.644047  0  1.513661  0  0  -0.649657  0  1.787856  0  0  -0.67636  0  1.780651  0  0  -0.489439  -0.630374  0  1.794126  0
O  O57  1  0.38209305  0.13801292  0.36108286  1  0  -0.644023  0  1.513551  0  0  -0.649612  0  1.787725  0  0  -0.676318  0  1.780515  0  0  -0.489421  -0.63033  0  1.793988  0
O  O58  1  0.15266526  0.57887529  0.30955760  1  0  -0.62241  0  1.410751  0  0  -0.631637  0  1.657804  0  0  -0.656423  0  1.649863  0  0  -0.50192  -0.614189  0  1.664704  0
O  O59  1  0.84733869  0.42111588  0.69043523  1  0  -0.622423  0  1.411266  0  0  -0.63163  0  1.658338  0  0  -0.656402  0  1.650408  0  0  -0.502008  -0.614171  0  1.665234  0
O  O60  1  0.42075933  0.62145751  0.42272834  1  0  -0.644485  0  1.475785  0  0  -0.648121  0  1.740684  0  0  -0.675214  0  1.733023  0  0  -0.494875  -0.628888  0  1.747029  0
O  O61  1  0.57924974  0.37854042  0.57726922  1  0  -0.644461  0  1.476032  0  0  -0.648094  0  1.740939  0  0  -0.675171  0  1.733275  0  0  -0.494908  -0.628846  0  1.747272  0
