# generated using pymatgen
data_ZnH22C21NO6
_symmetry_space_group_name_H-M   'P 1'
_cell_length_a   10.92795261
_cell_length_b   14.69194727
_cell_length_c   16.21918695
_cell_angle_alpha   91.87901301
_cell_angle_beta   91.67145620
_cell_angle_gamma   71.28420290
_symmetry_Int_Tables_number   1
_chemical_formula_structural   ZnH22C21NO6
_chemical_formula_sum   'Zn2 H44 C42 N2 O12'
_cell_volume   2464.53637840
_cell_formula_units_Z   2
loop_
 _symmetry_equiv_pos_site_id
 _symmetry_equiv_pos_as_xyz
  1  'x, y, z'
loop_
 _atom_site_type_symbol
 _atom_site_label
 _atom_site_symmetry_multiplicity
 _atom_site_fract_x
 _atom_site_fract_y
 _atom_site_fract_z
 _atom_site_occupancy
 _atom_site_pbe_bader_charge
 _atom_site_pbe_bader_spin_density
 _atom_site_pbe_cm5_charge
 _atom_site_pbe_ddec_charge
 _atom_site_pbe_ddec_spin_density
 _atom_site_pbe_ddec_sum_bond_order
 _atom_site_pbe_magmom
Zn  Zn0  1  0.53108219  0.39798546  0.50278713  1  1.323142  0  0.680037  0.885923  0  2.436533  0
Zn  Zn1  1  0.47762613  0.59740350  0.50525466  1  1.309204  0  0.68001  0.885554  0  2.435306  0
H  H2  1  0.59131788  0.35308311  0.92041616  1  0.087286  0  0.113558  0.135728  0  0.978112  0
H  H3  1  0.37234365  0.64720025  0.08647986  1  0.085632  0  0.113277  0.134588  0  0.978657  0
H  H4  1  0.50359038  0.08381423  0.37539217  1  0.113613  0  0.117944  0.123167  0  1.016663  0
H  H5  1  0.51379769  0.90915560  0.63411425  1  0.120835  0  0.119222  0.126288  0  1.008213  0
H  H6  1  0.84199357  0.66928762  0.63406126  1  0.03079  0  0.092922  0.054717  0  0.971255  0
H  H7  1  0.97182188  0.60450320  0.70086322  1  0.059563  0  0.097312  0.060943  0  0.992996  0
H  H8  1  0.68273204  0.63908416  0.72680950  1  0.040328  0  0.090347  0.088397  0  0.998008  0
H  H9  1  0.80841084  0.57023533  0.79157290  1  0.008239  0  0.093443  0.08953  0  0.966456  0
H  H10  1  0.87839221  0.71556081  0.82539606  1  0.023359  0  0.086519  0.113353  0  0.999292  0
H  H11  1  0.71409168  0.73852663  0.85078572  1  0.013789  0  0.083489  0.107509  0  1.023012  0
H  H12  1  0.75340862  0.78631058  0.75990956  1  -0.01108  0  0.076873  0.094322  0  1.023284  0
H  H13  1  0.16705305  0.32523040  0.62618728  1  0.025709  0  0.092791  0.053969  0  0.972923  0
H  H14  1  0.05554864  0.39350645  0.70124744  1  0.069732  0  0.096729  0.060326  0  0.994489  0
H  H15  1  0.35157477  0.34219440  0.71062231  1  0.056912  0  0.090211  0.090349  0  0.987195  0
H  H16  1  0.24606401  0.41852190  0.78201675  1  0.049562  0  0.094885  0.093616  0  0.968227  0
H  H17  1  0.16392605  0.28617734  0.82332929  1  0.040673  0  0.08672  0.112778  0  1.000087  0
H  H18  1  0.33515100  0.24740591  0.83314640  1  0.009828  0  0.084491  0.110796  0  1.006732  0
H  H19  1  0.25860207  0.20733810  0.74774905  1  -0.005575  0  0.076912  0.091698  0  1.032284  0
H  H20  1  0.93520478  0.43175876  0.37730006  1  0.034324  0  0.091697  0.125431  0  0.985953  0
H  H21  1  0.07159635  0.38408030  0.44422490  1  0.03479  0  0.089524  0.124031  0  1.020208  0
H  H22  1  0.95098727  0.32547597  0.43070946  1  0.048378  0  0.090474  0.128581  0  0.993343  0
H  H23  1  0.05010666  0.67143086  0.44009960  1  0.04696  0  0.090104  0.128258  0  0.994477  0
H  H24  1  0.06056946  0.56631964  0.38058584  1  0.037494  0  0.090905  0.124488  0  0.987456  0
H  H25  1  0.93110225  0.61220877  0.45054071  1  0.058984  0  0.089284  0.123278  0  1.021615  0
H  H26  1  0.47755301  0.24444992  0.07483462  1  0.026342  0  0.090807  0.048181  0  0.973425  0
H  H27  1  0.45173212  0.33370326  0.15624113  1  0.06414  0  0.097845  0.062416  0  1.008979  0
H  H28  1  0.69473036  0.15797837  0.14119517  1  0.020943  0  0.092324  0.085515  0  0.968676  0
H  H29  1  0.65897957  0.24468185  0.22306346  1  0.033466  0  0.098331  0.098323  0  0.965769  0
H  H30  1  0.46831259  0.19584745  0.26107746  1  0.013146  0  0.087551  0.114787  0  1.000868  0
H  H31  1  0.61164587  0.09421971  0.26042906  1  0.00903  0  0.083732  0.105775  0  1.01544  0
H  H32  1  0.49772519  0.11082730  0.17730099  1  0.009176  0  0.082124  0.101807  0  1.013209  0
H  H33  1  0.51431820  0.66388212  0.85222848  1  0.066062  0  0.098761  0.064712  0  1.023628  0
H  H34  1  0.47713920  0.76183893  0.92605948  1  0.020298  0  0.09069  0.048417  0  0.975861  0
H  H35  1  0.30676877  0.73848208  0.77813997  1  0.066849  0  0.098591  0.09862  0  0.966899  0
H  H36  1  0.26426666  0.83510251  0.85136726  1  0.017956  0  0.09128  0.083482  0  0.968675  0
H  H37  1  0.46188016  0.87955802  0.80903808  1  0.013683  0  0.079903  0.098531  0  1.018441  0
H  H38  1  0.34936291  0.88573443  0.72624099  1  0.026874  0  0.083946  0.108545  0  1.008809  0
H  H39  1  0.49339182  0.78548719  0.73256293  1  0.041674  0  0.086921  0.11671  0  1.017855  0
H  H40  1  0.41560701  0.86493398  0.34445587  1  0.095095  0  0.109085  0.153175  0  0.975385  0
H  H41  1  0.45905823  0.95639724  0.29470134  1  0.065177  0  0.104641  0.146445  0  0.983835  0
H  H42  1  0.57981132  0.85050437  0.32825016  1  0.098846  0  0.112046  0.157046  0  0.961763  0
H  H43  1  0.60832075  0.12487106  0.66424616  1  0.055955  0  0.108783  0.152946  0  0.973132  0
H  H44  1  0.44321801  0.14336200  0.68111113  1  0.068685  0  0.106779  0.152761  0  0.999039  0
H  H45  1  0.56055175  0.03579129  0.71458708  1  0.054054  0  0.10421  0.14607  0  0.981039  0
C  C46  1  0.49567954  0.49101308  0.34171587  1  1.678452  0  0.214079  0.665427  0  4.256292  0
C  C47  1  0.50274529  0.50564593  0.66602155  1  1.676736  0  0.221112  0.666906  0  4.245261  0
C  C48  1  0.50588125  0.04414380  0.43132096  1  -0.001121  0  -0.062684  -0.155857  0  3.904046  0
C  C49  1  0.51218977  0.94867334  0.57815277  1  -0.034418  0  -0.063043  -0.158939  0  3.904068  0
C  C50  1  0.51944052  0.08715363  0.50822037  1  0.091869  0  0.017349  -0.000249  0  4.06321  0
C  C51  1  0.49820832  0.90578974  0.50120349  1  0.081348  0  0.01757  -6e-05  0  4.061743  0
C  C52  1  0.52314339  0.04053885  0.58368352  1  0.014825  0  0.017848  0.158726  0  3.955072  0
C  C53  1  0.49594142  0.95200966  0.42571111  1  0.077156  0  0.017754  0.158146  0  3.952681  0
C  C54  1  0.53102172  0.18064504  0.50869488  1  0.865666  0  0.242979  0.303332  0  3.931099  0
C  C55  1  0.48389381  0.81310875  0.50043046  1  0.890584  0  0.243203  0.303031  0  3.930209  0
C  C56  1  0.25694624  0.53295463  0.50741450  1  1.553022  0  0.217787  0.625328  0  4.143269  0
C  C57  1  0.75195249  0.46250900  0.50706159  1  1.561799  0  0.217541  0.625313  0  4.147215  0
C  C58  1  0.11635413  0.54296431  0.50888894  1  0.105568  0  -0.028673  -0.075706  0  3.917896  0
C  C59  1  0.89271822  0.45233725  0.50706977  1  0.104538  0  -0.028073  -0.074641  0  3.918337  0
C  C60  1  0.07318172  0.50099732  0.56991153  1  0.409608  0  0.065283  0.094852  0  4.10077  0
C  C61  1  0.94258440  0.49303525  0.57003915  1  0.388548  0  0.065256  0.095285  0  4.099438  0
C  C62  1  0.54335578  0.41764462  0.95685444  1  -0.008606  0  -0.089842  -0.221016  0  3.958545  0
C  C63  1  0.41979494  0.58244191  0.05008054  1  0.013348  0  -0.090045  -0.21987  0  3.951848  0
C  C64  1  0.48656950  0.50528665  0.91668081  1  0.092662  0  -0.007638  0.042717  0  4.128535  0
C  C65  1  0.47785523  0.49499014  0.09034796  1  0.160207  0  -0.007838  0.043586  0  4.122007  0
C  C66  1  0.42384488  0.58891572  0.96491135  1  0.491952  0  0.083967  0.201891  0  4.063035  0
C  C67  1  0.53940860  0.41118229  0.04190186  1  0.526754  0  0.083043  0.200168  0  4.064887  0
C  C68  1  0.49058814  0.50722283  0.82987046  1  -0.422129  0  -0.032716  -0.044028  0  4.130639  0
C  C69  1  0.48072258  0.49282042  0.17740798  1  -0.524296  0  -0.035948  -0.042318  0  4.135028  0
C  C70  1  0.48678839  0.49169579  0.25256719  1  0.161613  0  -0.043217  -0.180285  0  3.947043  0
C  C71  1  0.49605002  0.50640895  0.75490520  1  0.147377  0  -0.034058  -0.171721  0  3.938572  0
C  C72  1  0.87258761  0.61127529  0.67934009  1  0.39806  0  -0.069474  0.035793  0  3.894728  0
C  C73  1  0.78037704  0.63242763  0.75089839  1  0.007902  0  -0.169542  -0.135079  0  3.98263  0
C  C74  1  0.78162750  0.72304731  0.79940896  1  -0.029293  0  -0.244117  -0.349954  0  3.999871  0
C  C75  1  0.15104676  0.38250849  0.67440604  1  0.376061  0  -0.07001  0.033704  0  3.897887  0
C  C76  1  0.25756368  0.35606974  0.74003475  1  -0.01777  0  -0.169999  -0.135111  0  3.978548  0
C  C77  1  0.25385395  0.26967772  0.78869110  1  -0.061334  0  -0.243677  -0.350801  0  4.001963  0
C  C78  1  0.96781496  0.39543101  0.43621523  1  -0.034547  0  -0.237798  -0.373104  0  4.005753  0
C  C79  1  0.03394717  0.60129729  0.44161387  1  -0.06558  0  -0.238934  -0.374236  0  4.009633  0
C  C80  1  0.52609536  0.27934862  0.12067965  1  0.402664  0  -0.0674  0.038424  0  3.899051  0
C  C81  1  0.61548589  0.20634361  0.17761962  1  0.020966  0  -0.165636  -0.126806  0  3.977251  0
C  C82  1  0.54405171  0.14859672  0.22154771  1  -0.046836  0  -0.242579  -0.350987  0  3.98965  0
C  C83  1  0.43510457  0.71963251  0.88277456  1  0.396292  0  -0.067521  0.034765  0  3.895126  0
C  C84  1  0.34629762  0.78353669  0.81937311  1  -0.013844  0  -0.165504  -0.124234  0  3.97147  0
C  C85  1  0.41695033  0.83665134  0.76902340  1  -0.088543  0  -0.244661  -0.355594  0  3.983987  0
C  C86  1  0.48623614  0.90384395  0.34394677  1  -0.117568  0  -0.224547  -0.423674  0  3.94434  0
C  C87  1  0.53516821  0.08823518  0.66522798  1  -0.041631  0  -0.225187  -0.423381  0  3.940433  0
N  N88  1  0.46943744  0.73822828  0.50079747  1  -1.165585  0  -0.267819  -0.277652  0  3.094243  0
N  N89  1  0.54199149  0.25660773  0.50782447  1  -1.162058  0  -0.267131  -0.276474  0  3.094044  0
O  O90  1  0.52367599  0.40911702  0.37475319  1  -1.13924  0  -0.318107  -0.548966  0  2.229533  0
O  O91  1  0.48414298  0.58674486  0.63318557  1  -1.139168  0  -0.311475  -0.543973  0  2.237327  0
O  O92  1  0.47486609  0.57256009  0.37804875  1  -1.144746  0  -0.319753  -0.556112  0  2.251071  0
O  O93  1  0.52659767  0.42378508  0.62984934  1  -1.141256  0  -0.312837  -0.551593  0  2.259761  0
O  O94  1  0.33447989  0.44730708  0.50185876  1  -1.174083  0  -0.320921  -0.567018  0  2.337633  0
O  O95  1  0.67415810  0.54819499  0.50573510  1  -1.146569  0  -0.31988  -0.566426  0  2.337304  0
O  O96  1  0.28768454  0.60959924  0.50763133  1  -1.144438  0  -0.321714  -0.546142  0  2.276528  0
O  O97  1  0.72085656  0.38595629  0.50406541  1  -1.155307  0  -0.322212  -0.546767  0  2.278957  0
O  O98  1  0.86987265  0.52253863  0.64001285  1  -1.052236  0  -0.191863  -0.208692  0  2.55165  0
O  O99  1  0.15335459  0.46998396  0.63770899  1  -1.053233  0  -0.190402  -0.205319  0  2.551197  0
O  O100  1  0.60361464  0.32452861  0.07670620  1  -1.078458  0  -0.204276  -0.238537  0  2.518121  0
O  O101  1  0.35975380  0.67565185  0.93026846  1  -1.071599  0  -0.20405  -0.237951  0  2.514228  0
