# generated using pymatgen
data_Zn2Sn2H32C12Se7N6
_symmetry_space_group_name_H-M   'P 1'
_cell_length_a   10.32904675
_cell_length_b   11.04709756
_cell_length_c   13.75124777
_cell_angle_alpha   89.99993358
_cell_angle_beta   110.12962619
_cell_angle_gamma   90.00009101
_symmetry_Int_Tables_number   1
_chemical_formula_structural   Zn2Sn2H32C12Se7N6
_chemical_formula_sum   'Zn4 Sn4 H64 C24 Se14 N12'
_cell_volume   1473.25348716
_cell_formula_units_Z   2
loop_
 _symmetry_equiv_pos_site_id
 _symmetry_equiv_pos_as_xyz
  1  'x, y, z'
loop_
 _atom_site_type_symbol
 _atom_site_label
 _atom_site_symmetry_multiplicity
 _atom_site_fract_x
 _atom_site_fract_y
 _atom_site_fract_z
 _atom_site_occupancy
 _atom_site_hle17_bader_spin_density
 _atom_site_hle17_ddec_charge
 _atom_site_hle17_ddec_spin_density
 _atom_site_hle17_ddec_sum_bond_order
 _atom_site_hle17_magmom
 _atom_site_hse06_10hf_bader_spin_density
 _atom_site_hse06_10hf_ddec_charge
 _atom_site_hse06_10hf_ddec_spin_density
 _atom_site_hse06_10hf_ddec_sum_bond_order
 _atom_site_hse06_10hf_magmom
 _atom_site_hse06_bader_spin_density
 _atom_site_hse06_ddec_charge
 _atom_site_hse06_ddec_spin_density
 _atom_site_hse06_ddec_sum_bond_order
 _atom_site_hse06_magmom
 _atom_site_pbe_bader_spin_density
 _atom_site_pbe_cm5_charge
 _atom_site_pbe_ddec_charge
 _atom_site_pbe_ddec_spin_density
 _atom_site_pbe_ddec_sum_bond_order
 _atom_site_pbe_magmom
Zn  Zn0  1  0.96411430  0.73950378  0.94116241  1  0  0.665673  0  2.286561  0  0  0.523335  0  2.752578  0  0  0.562351  0  2.717303  0  0  0.380125  0.496946  0  2.775859  0
Zn  Zn1  1  0.03588833  0.23951176  0.05883628  1  0  0.66572  0  2.286557  0  0  0.523397  0  2.752567  0  0  0.562403  0  2.717294  0  0  0.380152  0.497004  0  2.775846  0
Zn  Zn2  1  0.07449329  0.53590429  0.45976346  1  0  0.659128  0  2.275862  0  0  0.515796  0  2.74415  0  0  0.55459  0  2.708814  0  0  0.381615  0.489341  0  2.766478  0
Zn  Zn3  1  0.92550594  0.03590294  0.54023673  1  0  0.65912  0  2.275799  0  0  0.515798  0  2.744051  0  0  0.554589  0  2.708719  0  0  0.381612  0.489346  0  2.766375  0
Sn  Sn4  1  0.05422513  0.73382215  0.69432620  1  0  0.843269  0  3.362869  0  0  0.725817  0  3.903026  0  0  0.764046  0  3.899625  0  0  0.218419  0.700333  0  3.904001  0
Sn  Sn5  1  0.94577645  0.23382841  0.30567732  1  0  0.843222  0  3.362998  0  0  0.725816  0  3.903082  0  0  0.764027  0  3.899714  0  0  0.218421  0.700319  0  3.904089  0
Sn  Sn6  1  0.04661950  0.05095309  0.83473207  1  0  0.821198  0  3.405904  0  0  0.702769  0  3.945373  0  0  0.740384  0  3.942618  0  0  0.21236  0.678863  0  3.943884  0
Sn  Sn7  1  0.95338079  0.55095435  0.16526692  1  0  0.821179  0  3.406011  0  0  0.702782  0  3.945425  0  0  0.740398  0  3.942669  0  0  0.212364  0.678873  0  3.943934  0
H  H8  1  0.84902072  0.61456895  0.47079273  1  0  0.269052  0  0.943592  0  0  0.260701  0  1.001131  0  0  0.267042  0  0.997111  0  0  0.260786  0.256269  0  1.003983  0
H  H9  1  0.15097863  0.11457010  0.52920814  1  0  0.269076  0  0.943567  0  0  0.26073  0  1.001099  0  0  0.267071  0  0.997077  0  0  0.260777  0.256296  0  1.003957  0
H  H10  1  0.80852155  0.50226981  0.38534771  1  0  0.272028  0  0.933783  0  0  0.254538  0  1.008066  0  0  0.261731  0  1.002372  0  0  0.268153  0.249652  0  1.012167  0
H  H11  1  0.19147661  0.00227088  0.61465368  1  0  0.272051  0  0.933779  0  0  0.25456  0  1.008051  0  0  0.261751  0  1.002358  0  0  0.268156  0.249673  0  1.012153  0
H  H12  1  0.71370874  0.40442124  0.61573454  1  0  0.055253  0  0.953714  0  0  0.071387  0  1.020848  0  0  0.072111  0  1.020707  0  0  0.090972  0.070873  0  1.021078  0
H  H13  1  0.28628793  0.90441939  0.38426536  1  0  0.055256  0  0.953701  0  0  0.071407  0  1.020833  0  0  0.07213  0  1.020689  0  0  0.090987  0.070891  0  1.02106  0
H  H14  1  0.71285830  0.55735194  0.57716640  1  0  0.056627  0  0.950076  0  0  0.068985  0  1.024309  0  0  0.069749  0  1.023596  0  0  0.092698  0.068021  0  1.025546  0
H  H15  1  0.28713890  0.05735072  0.42283397  1  0  0.05664  0  0.950056  0  0  0.069014  0  1.024288  0  0  0.069762  0  1.023588  0  0  0.092713  0.068044  0  1.025528  0
H  H16  1  0.52525319  0.61707075  0.44873554  1  0  0.06458  0  0.946088  0  0  0.081274  0  1.010643  0  0  0.082053  0  1.010098  0  0  0.102807  0.080608  0  1.010985  0
H  H17  1  0.47474616  0.11707052  0.55126315  1  0  0.064557  0  0.946109  0  0  0.081276  0  1.010642  0  0  0.082053  0  1.010099  0  0  0.102805  0.080607  0  1.010985  0
H  H18  1  0.43187827  0.50942789  0.49494568  1  0  0.049778  0  0.916291  0  0  0.064924  0  0.984748  0  0  0.066123  0  0.983486  0  0  0.086367  0.06372  0  0.985803  0
H  H19  1  0.56812093  0.00942878  0.50505452  1  0  0.049774  0  0.916326  0  0  0.064904  0  0.984807  0  0  0.066102  0  0.983545  0  0  0.086359  0.063701  0  0.985858  0
H  H20  1  0.29437115  0.56398614  0.31551175  1  0  0.067237  0  1.006341  0  0  0.073578  0  1.086806  0  0  0.075456  0  1.086013  0  0  0.086815  0.072032  0  1.087437  0
H  H21  1  0.70562812  0.06398788  0.68448770  1  0  0.067252  0  1.006308  0  0  0.073598  0  1.086764  0  0  0.075471  0  1.085998  0  0  0.086814  0.072054  0  1.087397  0
H  H22  1  0.43611755  0.52907937  0.27246973  1  0  0.076694  0  0.908732  0  0  0.090836  0  0.9716  0  0  0.09273  0  0.96973  0  0  0.106486  0.089139  0  0.973632  0
H  H23  1  0.56388065  0.02907993  0.72752801  1  0  0.076702  0  0.908794  0  0  0.090887  0  0.971616  0  0  0.092788  0  0.969746  0  0  0.106504  0.08919  0  0.973652  0
H  H24  1  0.27100345  0.37426576  0.23516864  1  0  0.254298  0  0.943395  0  0  0.236042  0  1.012803  0  0  0.244856  0  1.006801  0  0  0.260753  0.229815  0  1.01704  0
H  H25  1  0.72899525  0.87426673  0.76483036  1  0  0.254311  0  0.943364  0  0  0.236045  0  1.012803  0  0  0.244862  0  1.006795  0  0  0.260767  0.22982  0  1.017034  0
H  H26  1  0.28021350  0.35912867  0.35923404  1  0  0.248525  0  0.945264  0  0  0.23145  0  1.015021  0  0  0.239607  0  1.01001  0  0  0.258988  0.225884  0  1.018023  0
H  H27  1  0.71978518  0.85912890  0.64076570  1  0  0.248525  0  0.9453  0  0  0.231449  0  1.015054  0  0  0.239604  0  1.010046  0  0  0.258994  0.225886  0  1.018054  0
H  H28  1  0.41455991  0.20049436  0.32784947  1  0  0.080668  0  0.911894  0  0  0.095958  0  0.975526  0  0  0.097253  0  0.974328  0  0  0.110576  0.094854  0  0.976387  0
H  H29  1  0.58543853  0.70049526  0.67215182  1  0  0.080673  0  0.911895  0  0  0.095973  0  0.975543  0  0  0.09727  0  0.974343  0  0  0.110587  0.094871  0  0.976402  0
H  H30  1  0.50888670  0.30524415  0.27873779  1  0  0.085909  0  0.909718  0  0  0.097884  0  0.975902  0  0  0.099782  0  0.974076  0  0  0.107074  0.095717  0  0.978549  0
H  H31  1  0.49111087  0.80524574  0.72126172  1  0  0.08587  0  0.909748  0  0  0.097863  0  0.975946  0  0  0.099763  0  0.974118  0  0  0.107068  0.095695  0  0.978597  0
H  H32  1  0.64631870  0.25575058  0.45900383  1  0  0.07969  0  0.966937  0  0  0.094881  0  1.030814  0  0  0.095846  0  1.031355  0  0  0.095117  0.094332  0  1.030099  0
H  H33  1  0.35368085  0.75575132  0.54099624  1  0  0.079676  0  0.966975  0  0  0.094867  0  1.030839  0  0  0.09583  0  1.031381  0  0  0.095107  0.094316  0  1.030126  0
H  H34  1  0.50590517  0.29339925  0.50176639  1  0  0.034555  0  0.937876  0  0  0.047342  0  1.013145  0  0  0.048488  0  1.012019  0  0  0.084441  0.046743  0  1.013192  0
H  H35  1  0.49409547  0.79339935  0.49823392  1  0  0.034536  0  0.937919  0  0  0.047329  0  1.013159  0  0  0.048475  0  1.012033  0  0  0.084437  0.046733  0  1.013202  0
H  H36  1  0.19165801  0.67345480  0.08016036  1  0  0.27747  0  0.926158  0  0  0.269413  0  0.982807  0  0  0.27574  0  0.978384  0  0  0.269324  0.264919  0  0.986023  0
H  H37  1  0.80834245  0.17345273  0.91984002  1  0  0.277468  0  0.926134  0  0  0.26941  0  0.982783  0  0  0.275739  0  0.978361  0  0  0.269315  0.264916  0  0.98601  0
H  H38  1  0.23032924  0.75681634  0.99464597  1  0  0.279885  0  0.907697  0  0  0.266962  0  0.972969  0  0  0.27367  0  0.967426  0  0  0.282322  0.262976  0  0.975889  0
H  H39  1  0.76967031  0.25681553  0.00535410  1  0  0.279881  0  0.90767  0  0  0.266956  0  0.972945  0  0  0.273665  0  0.967404  0  0  0.28233  0.262971  0  0.975867  0
H  H40  1  0.11386478  0.86759710  0.14138117  1  0  0.070101  0  0.935324  0  0  0.086407  0  1.002064  0  0  0.087054  0  1.001883  0  0  0.089013  0.086288  0  1.001521  0
H  H41  1  0.88613390  0.36759614  0.85861857  1  0  0.070118  0  0.935341  0  0  0.086414  0  1.002084  0  0  0.087061  0  1.001904  0  0  0.089016  0.086297  0  1.001541  0
H  H42  1  0.19362436  0.94104366  0.06377797  1  0  0.057069  0  0.969384  0  0  0.072192  0  1.037338  0  0  0.072444  0  1.038291  0  0  0.087593  0.071629  0  1.037478  0
H  H43  1  0.80637547  0.44104337  0.93622199  1  0  0.057077  0  0.969388  0  0  0.07222  0  1.037311  0  0  0.07247  0  1.038266  0  0  0.087606  0.071661  0  1.037448  0
H  H44  1  0.33808130  0.93558066  0.24904868  1  0  0.045901  0  0.934892  0  0  0.061078  0  1.004969  0  0  0.062263  0  1.003736  0  0  0.089038  0.060127  0  1.005944  0
H  H45  1  0.66192058  0.43558042  0.75095182  1  0  0.045839  0  0.934972  0  0  0.061017  0  1.005059  0  0  0.062198  0  1.00383  0  0  0.089001  0.06007  0  1.006031  0
H  H46  1  0.32718381  0.77511044  0.25065126  1  0  0.057422  0  0.942599  0  0  0.073812  0  1.009316  0  0  0.074139  0  1.009386  0  0  0.095652  0.073182  0  1.009804  0
H  H47  1  0.67281578  0.27511023  0.74934880  1  0  0.05742  0  0.942584  0  0  0.073814  0  1.009303  0  0  0.074139  0  1.009373  0  0  0.095648  0.073186  0  1.009793  0
H  H48  1  0.54956345  0.72602618  0.30286548  1  0  0.068615  0  0.928632  0  0  0.089682  0  0.985333  0  0  0.089473  0  0.986059  0  0  0.105733  0.089426  0  0.985188  0
H  H49  1  0.45043503  0.22602572  0.69713433  1  0  0.068622  0  0.928593  0  0  0.089662  0  0.98531  0  0  0.089454  0  0.986037  0  0  0.105719  0.089404  0  0.985166  0
H  H50  1  0.59530110  0.88124797  0.32699951  1  0  0.050181  0  0.932529  0  0  0.063215  0  1.005956  0  0  0.064587  0  1.004411  0  0  0.082461  0.061625  0  1.00737  0
H  H51  1  0.40469658  0.38124837  0.67299922  1  0  0.050166  0  0.932562  0  0  0.063223  0  1.005939  0  0  0.064594  0  1.004394  0  0  0.08247  0.061632  0  1.007353  0
H  H52  1  0.79230267  0.76646594  0.31118217  1  0  0.083521  0  0.948672  0  0  0.093572  0  1.020219  0  0  0.094997  0  1.019733  0  0  0.097922  0.092037  0  1.021357  0
H  H53  1  0.20769896  0.26646512  0.68881915  1  0  0.083553  0  0.948768  0  0  0.09362  0  1.020295  0  0  0.095035  0  1.019814  0  0  0.097941  0.092091  0  1.021425  0
H  H54  1  0.68716483  0.70656696  0.18823843  1  0  0.07919  0  0.940607  0  0  0.091207  0  1.007543  0  0  0.092926  0  1.006212  0  0  0.099612  0.089863  0  1.008587  0
H  H55  1  0.31283569  0.20656703  0.81176193  1  0  0.079293  0  0.940579  0  0  0.091312  0  1.00752  0  0  0.093027  0  1.00618  0  0  0.099645  0.089973  0  1.008565  0
H  H56  1  0.81530530  0.86570299  0.16109523  1  0  0.289049  0  0.854843  0  0  0.266968  0  0.926692  0  0  0.275133  0  0.919936  0  0  0.300885  0.260693  0  0.931968  0
H  H57  1  0.18469338  0.36570283  0.83890377  1  0  0.289041  0  0.854835  0  0  0.26697  0  0.926664  0  0  0.275136  0  0.919907  0  0  0.300885  0.260695  0  0.931945  0
H  H58  1  0.77026775  0.96176704  0.24195984  1  0  0.262495  0  0.919931  0  0  0.244073  0  0.989274  0  0  0.252561  0  0.98322  0  0  0.269431  0.237642  0  0.994132  0
H  H59  1  0.22973107  0.46176526  0.75803838  1  0  0.262492  0  0.919906  0  0  0.244073  0  0.989241  0  0  0.25256  0  0.983193  0  0  0.269442  0.237644  0  0.994096  0
H  H60  1  0.59822257  0.86086545  0.03779118  1  0  0.086794  0  0.925476  0  0  0.09965  0  0.989969  0  0  0.101558  0  0.988401  0  0  0.103481  0.097751  0  0.992064  0
H  H61  1  0.40177611  0.36086543  0.96220638  1  0  0.086744  0  0.925571  0  0  0.099606  0  0.990047  0  0  0.10151  0  0.988493  0  0  0.103465  0.097709  0  0.992138  0
H  H62  1  0.64525812  0.01566608  0.06887651  1  0  0.086765  0  0.898343  0  0  0.10445  0  0.954515  0  0  0.105476  0  0.953836  0  0  0.114402  0.103172  0  0.955983  0
H  H63  1  0.35474006  0.51566445  0.93112196  1  0  0.086763  0  0.898325  0  0  0.104428  0  0.954526  0  0  0.105456  0  0.953845  0  0  0.114388  0.103149  0  0.955992  0
H  H64  1  0.50585775  0.02694035  0.18271474  1  0  0.048976  0  0.928431  0  0  0.060933  0  0.998306  0  0  0.062171  0  0.997414  0  0  0.085953  0.059544  0  0.999335  0
H  H65  1  0.49414044  0.52693999  0.81728301  1  0  0.048982  0  0.928399  0  0  0.060938  0  0.998287  0  0  0.062176  0  0.997397  0  0  0.085959  0.059551  0  0.999312  0
H  H66  1  0.40208731  0.97346319  0.05869864  1  0  0.079573  0  0.949616  0  0  0.091498  0  1.015529  0  0  0.09241  0  1.01556  0  0  0.097753  0.090412  0  1.015907  0
H  H67  1  0.59791050  0.47346349  0.94129858  1  0  0.079587  0  0.949622  0  0  0.091498  0  1.015557  0  0  0.092412  0  1.015585  0  0  0.097766  0.090413  0  1.015931  0
H  H68  1  0.93959659  0.45923581  0.61030050  1  0  0.055483  0  0.955678  0  0  0.069725  0  1.027183  0  0  0.070362  0  1.027047  0  0  0.084457  0.069804  0  1.0258  0
H  H69  1  0.06040120  0.95923453  0.38970183  1  0  0.055495  0  0.95562  0  0  0.069725  0  1.027146  0  0  0.070362  0  1.027009  0  0  0.084453  0.069804  0  1.025765  0
H  H70  1  0.86547022  0.35151613  0.51217007  1  0  0.062453  0  0.950916  0  0  0.079339  0  1.018383  0  0  0.07957  0  1.0189  0  0  0.088679  0.079028  0  1.017898  0
H  H71  1  0.13452947  0.85151481  0.48783285  1  0  0.062411  0  0.950885  0  0  0.079324  0  1.018355  0  0  0.079555  0  1.01887  0  0  0.088678  0.079013  0  1.017869  0
C  C72  1  0.71798430  0.46337252  0.55202743  1  0  -0.032936  0  3.692044  0  0  -0.087112  0  3.947052  0  0  -0.083993  0  3.958925  0  0  -0.076655  -0.089106  0  3.939246  0
C  C73  1  0.28201349  0.96337239  0.44797344  1  0  -0.032925  0  3.692024  0  0  -0.087148  0  3.947091  0  0  -0.084011  0  3.958958  0  0  -0.076684  -0.089138  0  3.939285  0
C  C74  1  0.48716211  0.52341264  0.43897508  1  0  -0.019286  0  3.706468  0  0  -0.074157  0  3.966447  0  0  -0.071059  0  3.978813  0  0  -0.068775  -0.075791  0  3.957831  0
C  C75  1  0.51283711  0.02341336  0.56102294  1  0  -0.019262  0  3.706475  0  0  -0.074144  0  3.966469  0  0  -0.071044  0  3.978844  0  0  -0.068793  -0.075777  0  3.95785  0
C  C76  1  0.38690534  0.50774337  0.32967189  1  0  -0.004401  0  3.596081  0  0  -0.066797  0  3.85943  0  0  -0.063823  0  3.869807  0  0  -0.073258  -0.068504  0  3.851938  0
C  C77  1  0.61309179  0.00774318  0.67032850  1  0  -0.004428  0  3.596143  0  0  -0.066872  0  3.859551  0  0  -0.063897  0  3.8699  0  0  -0.07324  -0.068579  0  3.852065  0
C  C78  1  0.45747870  0.29236105  0.33587735  1  0  0.021782  0  3.554054  0  0  -0.042417  0  3.821038  0  0  -0.038016  0  3.829818  0  0  -0.05917  -0.04489  0  3.814226  0
C  C79  1  0.54251987  0.79236099  0.66412243  1  0  0.021805  0  3.554049  0  0  -0.04248  0  3.821114  0  0  -0.038081  0  3.8299  0  0  -0.059218  -0.044956  0  3.814311  0
C  C80  1  0.55715932  0.31609398  0.44478841  1  0  -0.027864  0  3.690886  0  0  -0.083254  0  3.950377  0  0  -0.08112  0  3.963467  0  0  -0.072965  -0.084492  0  3.940736  0
C  C81  1  0.44283929  0.81609302  0.55521135  1  0  -0.027851  0  3.690944  0  0  -0.083186  0  3.950373  0  0  -0.081052  0  3.963466  0  0  -0.072916  -0.084423  0  3.940733  0
C  C82  1  0.19830042  0.85918774  0.11028906  1  0  0.054684  0  3.633669  0  0  -0.001852  0  3.890001  0  0  0.001652  0  3.903095  0  0  -0.084879  -0.00414  0  3.880865  0
C  C83  1  0.80169928  0.35918661  0.88971095  1  0  0.054682  0  3.633688  0  0  -0.001845  0  3.889998  0  0  0.001658  0  3.903099  0  0  -0.084877  -0.004139  0  3.880871  0
C  C84  1  0.33253431  0.85272453  0.20182269  1  0  -0.029401  0  3.694763  0  0  -0.084667  0  3.95984  0  0  -0.08164  0  3.972079  0  0  -0.074222  -0.086364  0  3.951298  0
C  C85  1  0.66746642  0.35272424  0.79817759  1  0  -0.029355  0  3.694845  0  0  -0.08463  0  3.95993  0  0  -0.081606  0  3.972177  0  0  -0.074178  -0.086334  0  3.951394  0
C  C86  1  0.57388920  0.80831300  0.26759817  1  0  -0.0224  0  3.69758  0  0  -0.077798  0  3.962559  0  0  -0.074633  0  3.974714  0  0  -0.071268  -0.079627  0  3.954657  0
C  C87  1  0.42611044  0.30831154  0.73240114  1  0  -0.022322  0  3.697405  0  0  -0.077656  0  3.962317  0  0  -0.0745  0  3.974457  0  0  -0.071207  -0.079477  0  3.954415  0
C  C88  1  0.70229661  0.78356091  0.24151975  1  0  0.004912  0  3.559196  0  0  -0.056837  0  3.816482  0  0  -0.053615  0  3.826595  0  0  -0.068916  -0.058948  0  3.810016  0
C  C89  1  0.29770092  0.28355741  0.75847977  1  0  0.004754  0  3.559248  0  0  -0.057073  0  3.816624  0  0  -0.053816  0  3.826681  0  0  -0.068973  -0.059201  0  3.810183  0
C  C90  1  0.61535704  0.93114904  0.09739723  1  0  0.021484  0  3.536475  0  0  -0.043885  0  3.800979  0  0  -0.039925  0  3.81011  0  0  -0.058954  -0.046918  0  3.79568  0
C  C91  1  0.38464277  0.43114908  0.90260274  1  0  0.021578  0  3.536454  0  0  -0.043764  0  3.800937  0  0  -0.039811  0  3.810079  0  0  -0.058919  -0.046798  0  3.795634  0
C  C92  1  0.48910014  0.94899071  0.12845481  1  0  -0.031774  0  3.679909  0  0  -0.078575  0  3.933476  0  0  -0.076483  0  3.946469  0  0  -0.07229  -0.079296  0  3.924142  0
C  C93  1  0.51089969  0.44899189  0.87154442  1  0  -0.031805  0  3.679927  0  0  -0.078618  0  3.933503  0  0  -0.076518  0  3.946482  0  0  -0.07232  -0.079347  0  3.924179  0
C  C94  1  0.85527066  0.44471977  0.53639418  1  0  0.056211  0  3.645629  0  0  -0.002305  0  3.903177  0  0  0.001687  0  3.915513  0  0  -0.087045  -0.004475  0  3.89352  0
C  C95  1  0.14472917  0.94472032  0.46360723  1  0  0.056218  0  3.645449  0  0  -0.00233  0  3.903058  0  0  0.001661  0  3.915386  0  0  -0.087056  -0.004494  0  3.893386  0
Se  Se96  1  0.92598745  0.17822439  0.67627490  1  0  -0.648445  0  1.866989  0  0  -0.566284  0  2.269263  0  0  -0.592693  0  2.254347  0  0  -0.27245  -0.548288  0  2.27768  0
Se  Se97  1  0.07400787  0.67822503  0.32372487  1  0  -0.648436  0  1.867044  0  0  -0.566277  0  2.269324  0  0  -0.592688  0  2.254401  0  0  -0.272436  -0.548277  0  2.277735  0
Se  Se98  1  0.20474248  0.18283299  0.97688912  1  0  -0.664767  0  1.833885  0  0  -0.580418  0  2.211486  0  0  -0.607523  0  2.194134  0  0  -0.28934  -0.560489  0  2.223558  0
Se  Se99  1  0.79525594  0.68283332  0.02311000  1  0  -0.664778  0  1.833911  0  0  -0.580431  0  2.211504  0  0  -0.607541  0  2.194154  0  0  -0.289345  -0.560501  0  2.223574  0
Se  Se100  1  0.21915598  0.60748325  0.63354083  1  0  -0.675255  0  1.847601  0  0  -0.59201  0  2.241281  0  0  -0.618562  0  2.222107  0  0  -0.277489  -0.573116  0  2.253947  0
Se  Se101  1  0.78084542  0.10748284  0.36645767  1  0  -0.675243  0  1.84761  0  0  -0.592013  0  2.241285  0  0  -0.618554  0  2.222108  0  0  -0.277479  -0.573108  0  2.253948  0
Se  Se102  1  0.87989915  0.94960508  0.90924671  1  0  -0.665  0  1.948464  0  0  -0.580791  0  2.336045  0  0  -0.607175  0  2.319827  0  0  -0.269665  -0.561953  0  2.347242  0
Se  Se103  1  0.12010378  0.44961314  0.09075114  1  0  -0.665047  0  1.948578  0  0  -0.580858  0  2.336169  0  0  -0.607238  0  2.319948  0  0  -0.269687  -0.562017  0  2.347364  0
Se  Se104  1  0.22104711  0.89950101  0.80216439  1  0  -0.555266  0  1.75  0  0  -0.473137  0  2.084814  0  0  -0.492851  0  2.074432  0  0  -0.197156  -0.460516  0  2.094058  0
Se  Se105  1  0.77895369  0.39949994  0.19783222  1  0  -0.555226  0  1.749994  0  0  -0.473111  0  2.084792  0  0  -0.492822  0  2.074413  0  0  -0.197153  -0.460489  0  2.094046  0
Se  Se106  1  0.85250324  0.82315039  0.54487638  1  0  -0.679369  0  1.880426  0  0  -0.59738  0  2.277339  0  0  -0.622871  0  2.259605  0  0  -0.267871  -0.579119  0  2.28723  0
Se  Se107  1  0.14749744  0.32315254  0.45512755  1  0  -0.679336  0  1.880457  0  0  -0.597373  0  2.27739  0  0  -0.62286  0  2.259655  0  0  -0.26787  -0.579106  0  2.28729  0
Se  Se108  1  0.96328913  0.59990522  0.80431457  1  0  -0.659633  0  1.871428  0  0  -0.587007  0  2.280129  0  0  -0.613425  0  2.265072  0  0  -0.289727  -0.569196  0  2.289436  0
Se  Se109  1  0.03674112  0.09992387  0.19569795  1  0  -0.659639  0  1.871323  0  0  -0.587026  0  2.280012  0  0  -0.61344  0  2.264959  0  0  -0.28977  -0.569206  0  2.289321  0
N  N110  1  0.87384030  0.52701748  0.45772995  1  0  -0.590644  0  3.21559  0  0  -0.520615  0  3.454118  0  0  -0.541365  0  3.454189  0  0  -0.634366  -0.506728  0  3.453421  0
N  N111  1  0.12615995  0.02701766  0.54227269  1  0  -0.590689  0  3.21538  0  0  -0.520652  0  3.453907  0  0  -0.541397  0  3.453971  0  0  -0.634358  -0.506768  0  3.45322  0
N  N112  1  0.60293174  0.44159303  0.45611808  1  0  -0.230997  0  3.269287  0  0  -0.15191  0  3.528236  0  0  -0.167218  0  3.548851  0  0  -0.350581  -0.142078  0  3.514332  0
N  N113  1  0.39706809  0.94159202  0.54388189  1  0  -0.230955  0  3.269206  0  0  -0.15187  0  3.52818  0  0  -0.167181  0  3.548793  0  0  -0.350573  -0.142035  0  3.514271  0
N  N114  1  0.34060674  0.37928517  0.31247701  1  0  -0.266618  0  3.373945  0  0  -0.195757  0  3.56867  0  0  -0.211246  0  3.579584  0  0  -0.481526  -0.185038  0  3.56082  0
N  N115  1  0.65939300  0.87928706  0.68752299  1  0  -0.266655  0  3.373993  0  0  -0.195772  0  3.568739  0  0  -0.211261  0  3.579657  0  0  -0.481565  -0.185053  0  3.560888  0
N  N116  1  0.16968195  0.75383702  0.03996525  1  0  -0.580645  0  3.183888  0  0  -0.51694  0  3.429444  0  0  -0.536429  0  3.428593  0  0  -0.623603  -0.503371  0  3.429131  0
N  N117  1  0.83031760  0.25383673  0.96003554  1  0  -0.580644  0  3.183857  0  0  -0.516961  0  3.429457  0  0  -0.536433  0  3.428567  0  0  -0.623596  -0.50339  0  3.429148  0
N  N118  1  0.45697574  0.83878705  0.17498028  1  0  -0.234991  0  3.205791  0  0  -0.164808  0  3.473306  0  0  -0.179217  0  3.49196  0  0  -0.353337  -0.155912  0  3.460364  0
N  N119  1  0.54302393  0.33878653  0.82501901  1  0  -0.235036  0  3.205843  0  0  -0.164851  0  3.473344  0  0  -0.179265  0  3.491999  0  0  -0.353376  -0.155952  0  3.460401  0
N  N120  1  0.73643851  0.89027588  0.18787388  1  0  -0.26449  0  3.343965  0  0  -0.194967  0  3.546895  0  0  -0.2092  0  3.556383  0  0  -0.472751  -0.184925  0  3.540846  0
N  N121  1  0.26356021  0.39027588  0.81212439  1  0  -0.264492  0  3.343964  0  0  -0.194959  0  3.546909  0  0  -0.209199  0  3.556389  0  0  -0.472765  -0.184913  0  3.540859  0
