# generated using pymatgen
data_ZnH14C23NO6
_symmetry_space_group_name_H-M   'P 1'
_cell_length_a   11.83511580
_cell_length_b   14.97922683
_cell_length_c   15.67716760
_cell_angle_alpha   80.85416083
_cell_angle_beta   89.97612959
_cell_angle_gamma   75.36147449
_symmetry_Int_Tables_number   1
_chemical_formula_structural   ZnH14C23NO6
_chemical_formula_sum   'Zn2 H28 C46 N2 O12'
_cell_volume   2652.55993027
_cell_formula_units_Z   2
loop_
 _symmetry_equiv_pos_site_id
 _symmetry_equiv_pos_as_xyz
  1  'x, y, z'
loop_
 _atom_site_type_symbol
 _atom_site_label
 _atom_site_symmetry_multiplicity
 _atom_site_fract_x
 _atom_site_fract_y
 _atom_site_fract_z
 _atom_site_occupancy
 _atom_site_pbe_bader_charge
 _atom_site_pbe_bader_spin_density
 _atom_site_pbe_cm5_charge
 _atom_site_pbe_ddec_charge
 _atom_site_pbe_ddec_spin_density
 _atom_site_pbe_ddec_sum_bond_order
 _atom_site_pbe_magmom
Zn  Zn0  1  0.47544350  0.59536754  0.51792914  1  1.299809  0  0.67759  0.84473  0  2.368801  0
Zn  Zn1  1  0.51926048  0.40575715  0.48314901  1  1.29791  0  0.681157  0.848105  0  2.393583  0
H  H2  1  0.26193685  0.71905972  0.94886734  1  0.031889  0  0.098704  0.099152  0  0.99814  0
H  H3  1  0.15924451  0.78464491  0.35082040  1  0.017037  0  0.103462  0.108025  0  0.974954  0
H  H4  1  0.21573456  0.66099817  0.36008892  1  0.07975  0  0.095179  0.103922  0  1.026188  0
H  H5  1  0.10814863  0.72319323  0.27548939  1  0.032804  0  0.091028  0.084028  0  0.995343  0
H  H6  1  0.23819586  0.76317510  0.09632264  1  0.070432  0  0.104601  0.120621  0  0.997033  0
H  H7  1  0.66147130  0.20560612  0.91256497  1  0.042573  0  0.10407  0.119924  0  0.998069  0
H  H8  1  0.35043773  0.60716088  0.85458284  1  0.035055  0  0.099875  0.098821  0  1.016366  0
H  H9  1  0.54267111  0.36003225  0.15310780  1  0.031186  0  0.10004  0.100417  0  1.017901  0
H  H10  1  0.77100038  0.97461447  0.37930781  1  0.061597  0  0.110514  0.113214  0  0.980733  0
H  H11  1  0.33289339  0.99634565  0.69657470  1  0.080932  0  0.112212  0.11559  0  0.977456  0
H  H12  1  0.41495023  0.79082324  0.34835987  1  0.11839  0  0.104022  0.121465  0  1.028619  0
H  H13  1  0.62196222  0.24530382  0.05926005  1  0.021034  0  0.099251  0.100298  0  0.997579  0
H  H14  1  0.46627580  0.89322725  0.35868478  1  0.068526  0  0.092656  0.085759  0  1.021467  0
H  H15  1  0.55562998  0.79919346  0.31168133  1  0.054691  0  0.115356  0.127526  0  0.955011  0
H  H16  1  0.29158302  0.19402782  0.45498955  1  0.043528  0  0.09249  0.084445  0  1.009409  0
H  H17  1  0.30556735  0.31028126  0.41192812  1  0.083672  0  0.105583  0.114813  0  0.984622  0
H  H18  1  0.23155420  0.29179989  0.50971021  1  0.077254  0  0.115257  0.131209  0  0.967573  0
H  H19  1  0.35942687  0.67784905  0.66253758  1  0.125804  0  0.126598  0.105232  0  0.982025  0
H  H20  1  0.70146228  0.30528260  0.37988594  1  0.110075  0  0.128903  0.109752  0  0.968875  0
H  H21  1  0.78006750  0.14061154  0.35092352  1  0.084543  0  0.11413  0.124129  0  0.985455  0
H  H22  1  0.31329460  0.83292922  0.71544801  1  0.094055  0  0.11377  0.124321  0  0.985322  0
H  H23  1  0.67116822  0.85518655  0.44039715  1  0.145661  0  0.116711  0.12388  0  1.009335  0
H  H24  1  0.40461350  0.12374319  0.61516090  1  0.131786  0  0.118141  0.127782  0  1.011358  0
H  H25  1  0.45186134  0.52737746  0.77967262  1  0.107363  0  0.101566  0.102198  0  1.032551  0
H  H26  1  0.50530859  0.46023681  0.22376410  1  0.120773  0  0.102835  0.109083  0  1.033899  0
H  H27  1  0.72086618  0.30630727  0.64279385  1  0.097371  0  0.093836  0.106894  0  1.044454  0
H  H28  1  0.77544280  0.18223497  0.66412922  1  0.021528  0  0.101812  0.107164  0  0.976291  0
H  H29  1  0.82227351  0.25196769  0.73318567  1  0.032622  0  0.091133  0.084696  0  0.993529  0
C  C30  1  0.44782407  0.56264054  0.34018457  1  1.559467  0  0.215506  0.605824  0  4.152401  0
C  C31  1  0.57450727  0.31635182  0.03105776  1  -0.005949  0  -0.096359  -0.141085  0  4.028466  0
C  C32  1  0.70439661  0.15854029  0.39031629  1  -0.059096  0  -0.088818  -0.200105  0  3.995871  0
C  C33  1  0.36608772  0.82169875  0.65930363  1  -0.092984  0  -0.088722  -0.199133  0  3.993276  0
C  C34  1  0.66135564  0.24885048  0.40436928  1  0.472901  0  0.045651  0.105691  0  3.965046  0
C  C35  1  0.38991937  0.73710547  0.63083290  1  0.477756  0  0.045535  0.104809  0  3.96312  0
C  C36  1  0.50921988  0.20982186  0.48453482  1  1.194262  0  0.236649  0.377374  0  3.989781  0
C  C37  1  0.49331922  0.79024981  0.51489457  1  1.136485  0  0.236139  0.37594  0  3.992176  0
C  C38  1  0.55269422  0.11263946  0.48101430  1  -0.015092  0  -0.001468  -0.111876  0  3.913767  0
C  C39  1  0.48333552  0.87768821  0.54361451  1  0.016095  0  -0.002341  -0.114263  0  3.915498  0
C  C40  1  0.65094641  0.08831000  0.42851436  1  0.038411  0  0.00574  0.121043  0  4.038824  0
C  C41  1  0.52933545  0.42937000  0.66228607  1  1.579532  0  0.216471  0.606788  0  4.165771  0
C  C42  1  0.41083683  0.89455746  0.61521800  1  0.016711  0  0.006993  0.121588  0  4.036463  0
C  C43  1  0.50335930  0.03994503  0.52584290  1  -0.032957  0  0.005893  0.056649  0  3.942025  0
C  C44  1  0.53999581  0.94835192  0.50456724  1  0.02278  0  0.002175  0.051735  0  3.94762  0
C  C45  1  0.72108178  0.48726592  0.49760358  1  1.680981  0  0.217615  0.653275  0  4.267311  0
C  C46  1  0.27410656  0.51544814  0.51671095  1  1.707591  0  0.215369  0.646911  0  4.278944  0
C  C47  1  0.63789079  0.92701878  0.45096064  1  -0.028929  0  -0.076967  -0.112641  0  3.986369  0
C  C48  1  0.42655217  0.05519739  0.59561397  1  -0.034578  0  -0.078127  -0.112207  0  3.973799  0
C  C49  1  0.69335397  0.99351939  0.41676303  1  -0.086821  0  -0.084094  -0.129128  0  3.987146  0
C  C50  1  0.38616106  0.98434335  0.64066353  1  -0.046696  0  -0.081646  -0.125638  0  3.978712  0
C  C51  1  0.84327567  0.48607422  0.50588878  1  0.194219  0  -0.019835  -0.14379  0  3.868527  0
C  C52  1  0.34467914  0.63118940  0.06757630  1  0.035529  0  -0.007676  0.101309  0  4.039076  0
C  C53  1  0.15356419  0.51098576  0.52270684  1  0.08984  0  -0.022048  -0.155432  0  3.880576  0
C  C54  1  0.94353428  0.49286711  0.51407117  1  -0.381904  0  -0.030083  0.000676  0  4.278966  0
C  C55  1  0.05379057  0.50165268  0.51997297  1  -0.210761  0  -0.027795  0.006394  0  4.280533  0
C  C56  1  0.40284263  0.58999034  0.24765872  1  -0.019689  0  -0.026923  -0.139426  0  3.941724  0
C  C57  1  0.54590943  0.39392690  0.75750471  1  -0.014092  0  -0.023145  -0.128315  0  3.940303  0
C  C58  1  0.29732963  0.69582388  0.12295859  1  -0.03236  0  -0.105074  -0.260705  0  3.9769  0
C  C59  1  0.61294877  0.27639751  0.88457287  1  -0.002638  0  -0.103709  -0.259313  0  3.980592  0
C  C60  1  0.32372574  0.67678239  0.21114802  1  0.468146  0  0.082957  0.239896  0  4.033607  0
C  C61  1  0.60548270  0.30067776  0.79526362  1  0.518588  0  0.087007  0.245295  0  4.039271  0
C  C62  1  0.44559517  0.52531365  0.19326562  1  -0.051094  0  -0.080302  -0.113499  0  3.956651  0
C  C63  1  0.56187277  0.34057881  0.93925208  1  -0.017945  0  -0.00872  0.099531  0  4.04597  0
C  C64  1  0.49501343  0.45686660  0.81140783  1  -0.032828  0  -0.080932  -0.117023  0  3.959585  0
C  C65  1  0.41855671  0.54199719  0.10391350  1  0.00402  0  -0.009722  0.018635  0  3.966088  0
C  C66  1  0.49873544  0.43324908  0.90207283  1  -0.022605  0  -0.009348  0.020133  0  3.969  0
C  C67  1  0.74836345  0.24531122  0.69404888  1  0.397897  0  -0.144632  -0.169509  0  3.919555  0
C  C68  1  0.18419259  0.72639990  0.31438842  1  0.414033  0  -0.141471  -0.165302  0  3.923614  0
C  C69  1  0.49102499  0.81712129  0.36028126  1  0.328628  0  -0.13336  -0.170117  0  3.842974  0
C  C70  1  0.30287772  0.26036677  0.47081928  1  0.361583  0  -0.129779  -0.163225  0  3.859581  0
C  C71  1  0.46519603  0.47380750  0.04859479  1  -0.021253  0  -0.003785  0.036367  0  3.959503  0
C  C72  1  0.44503907  0.49908990  0.95778526  1  -0.016598  0  -0.005032  0.031854  0  3.964751  0
C  C73  1  0.37046272  0.58891238  0.92398470  1  -0.039083  0  -0.091208  -0.124035  0  4.023779  0
C  C74  1  0.53002408  0.38086740  0.08326642  1  -0.041324  0  -0.093804  -0.130351  0  4.029532  0
C  C75  1  0.32061368  0.65180556  0.97646535  1  -0.005602  0  -0.096489  -0.141966  0  4.02533  0
N  N76  1  0.56376472  0.27366264  0.44991997  1  -1.264701  0  -0.326042  -0.303714  0  3.512537  0
N  N77  1  0.44985553  0.72317627  0.55802208  1  -1.255359  0  -0.323526  -0.294236  0  3.50111  0
O  O78  1  0.42088109  0.62256328  0.39100031  1  -1.142846  0  -0.303611  -0.532608  0  2.376706  0
O  O79  1  0.27452016  0.74606364  0.25854539  1  -1.080082  0  -0.21325  -0.209712  0  2.549243  0
O  O80  1  0.54874067  0.76852893  0.44252265  1  -1.0703  0  -0.183562  -0.192463  0  2.56995  0
O  O81  1  0.40888306  0.24391295  0.52383800  1  -1.072636  0  -0.184834  -0.196619  0  2.5551  0
O  O82  1  0.51763736  0.37205867  0.61310889  1  -1.147861  0  -0.313749  -0.534872  0  2.352205  0
O  O83  1  0.51180927  0.47947395  0.36172648  1  -1.175466  0  -0.325376  -0.561033  0  2.352983  0
O  O84  1  0.52574146  0.51540022  0.63809436  1  -1.170716  0  -0.319713  -0.556411  0  2.335153  0
O  O85  1  0.65076196  0.56774927  0.49138965  1  -1.13727  0  -0.305073  -0.527395  0  2.297311  0
O  O86  1  0.33753633  0.45335782  0.47800771  1  -1.146071  0  -0.303273  -0.541209  0  2.319333  0
O  O87  1  0.69624966  0.40930970  0.49784066  1  -1.148331  0  -0.309505  -0.552024  0  2.274026  0
O  O88  1  0.30470287  0.57955745  0.54765511  1  -1.140273  0  -0.311885  -0.54231  0  2.23672  0
O  O89  1  0.65485928  0.23106926  0.74892243  1  -1.070315  0  -0.215369  -0.202229  0  2.537982  0
