# generated using pymatgen
data_ZnH4C5N6O
_symmetry_space_group_name_H-M   'P 1'
_cell_length_a   8.69274334
_cell_length_b   8.69273501
_cell_length_c   10.40497995
_cell_angle_alpha   107.86546589
_cell_angle_beta   107.86556097
_cell_angle_gamma   91.86231189
_symmetry_Int_Tables_number   1
_chemical_formula_structural   ZnH4C5N6O
_chemical_formula_sum   'Zn4 H16 C20 N24 O4'
_cell_volume   705.24982256
_cell_formula_units_Z   4
loop_
 _symmetry_equiv_pos_site_id
 _symmetry_equiv_pos_as_xyz
  1  'x, y, z'
loop_
 _atom_site_type_symbol
 _atom_site_label
 _atom_site_symmetry_multiplicity
 _atom_site_fract_x
 _atom_site_fract_y
 _atom_site_fract_z
 _atom_site_occupancy
 _atom_site_hle17_bader_spin_density
 _atom_site_hle17_ddec_charge
 _atom_site_hle17_ddec_spin_density
 _atom_site_hle17_ddec_sum_bond_order
 _atom_site_hle17_magmom
 _atom_site_hse06_10hf_bader_spin_density
 _atom_site_hse06_10hf_ddec_charge
 _atom_site_hse06_10hf_ddec_spin_density
 _atom_site_hse06_10hf_ddec_sum_bond_order
 _atom_site_hse06_10hf_magmom
 _atom_site_hse06_bader_spin_density
 _atom_site_hse06_ddec_charge
 _atom_site_hse06_ddec_spin_density
 _atom_site_hse06_ddec_sum_bond_order
 _atom_site_hse06_magmom
 _atom_site_pbe_bader_spin_density
 _atom_site_pbe_cm5_charge
 _atom_site_pbe_ddec_charge
 _atom_site_pbe_ddec_spin_density
 _atom_site_pbe_ddec_sum_bond_order
 _atom_site_pbe_magmom
Zn  Zn0  1  0.71485182  0.96296349  0.62083354  1  0  0.956109  0  1.976036  0  0  0.759655  0  2.468129  0  0  0.800203  0  2.418267  0  0  0.744195  0.730809  0  2.503095  0
Zn  Zn1  1  0.03703515  0.28514681  0.87916759  1  0  0.956076  0  1.976082  0  0  0.759633  0  2.468148  0  0  0.80018  0  2.418286  0  0  0.744185  0.730783  0  2.503111  0
Zn  Zn2  1  0.28514897  0.03703542  0.37916697  1  0  0.956035  0  1.976053  0  0  0.75963  0  2.468131  0  0  0.800179  0  2.418269  0  0  0.744181  0.730781  0  2.503096  0
Zn  Zn3  1  0.96296305  0.71485083  0.12083383  1  0  0.956098  0  1.976042  0  0  0.759641  0  2.468136  0  0  0.80019  0  2.418274  0  0  0.744211  0.730803  0  2.503106  0
H  H4  1  0.64347537  0.03498601  0.33992094  1  0  0.34465  0  0.892757  0  0  0.326309  0  0.95735  0  0  0.333932  0  0.950841  0  0  0.303619  0.32117  0  0.96148  0
H  H5  1  0.96501516  0.35652387  0.16007974  1  0  0.344643  0  0.89276  0  0  0.326306  0  0.957363  0  0  0.333928  0  0.950855  0  0  0.303608  0.321167  0  0.961496  0
H  H6  1  0.35652559  0.96501411  0.66007994  1  0  0.344635  0  0.892794  0  0  0.32629  0  0.957393  0  0  0.333913  0  0.950885  0  0  0.303608  0.321151  0  0.961526  0
H  H7  1  0.03498684  0.64347503  0.83992205  1  0  0.344616  0  0.89279  0  0  0.326271  0  0.95739  0  0  0.333893  0  0.950883  0  0  0.303606  0.321134  0  0.961517  0
H  H8  1  0.71401961  0.96986355  0.19319277  1  0  0.322742  0  0.938321  0  0  0.293726  0  1.02651  0  0  0.301597  0  1.019292  0  0  0.296393  0.287906  0  1.032002  0
H  H9  1  0.03013630  0.28597979  0.30680885  1  0  0.322719  0  0.938326  0  0  0.293699  0  1.026526  0  0  0.301572  0  1.019306  0  0  0.296373  0.287881  0  1.032016  0
H  H10  1  0.28597997  0.03013533  0.80680838  1  0  0.322722  0  0.93833  0  0  0.293701  0  1.026532  0  0  0.301573  0  1.019313  0  0  0.296376  0.287881  0  1.032024  0
H  H11  1  0.96986448  0.71401909  0.69319358  1  0  0.322724  0  0.938319  0  0  0.293706  0  1.026513  0  0  0.301577  0  1.019293  0  0  0.296377  0.287885  0  1.032006  0
H  H12  1  0.66641089  0.58977400  0.51442042  1  0  0.096903  0  0.954063  0  0  0.106424  0  1.018991  0  0  0.109565  0  1.017436  0  0  0.104192  0.103964  0  1.020776  0
H  H13  1  0.41022580  0.33358664  0.98557810  1  0  0.096922  0  0.954092  0  0  0.106456  0  1.01899  0  0  0.109595  0  1.017436  0  0  0.104208  0.103994  0  1.020773  0
H  H14  1  0.33358904  0.41022736  0.48557858  1  0  0.096934  0  0.954094  0  0  0.106467  0  1.018994  0  0  0.109608  0  1.017439  0  0  0.104212  0.104007  0  1.020778  0
H  H15  1  0.58977484  0.66641106  0.01442109  1  0  0.096945  0  0.954066  0  0  0.106462  0  1.019  0  0  0.109602  0  1.017445  0  0  0.104212  0.104002  0  1.020784  0
H  H16  1  0.77225329  0.35248746  0.38361319  1  0  0.095959  0  0.954254  0  0  0.104777  0  1.018043  0  0  0.107883  0  1.016074  0  0  0.103794  0.10245  0  1.019581  0
H  H17  1  0.64751016  0.22774873  0.11638714  1  0  0.095905  0  0.954333  0  0  0.104707  0  1.018143  0  0  0.107814  0  1.016172  0  0  0.103758  0.10238  0  1.019681  0
H  H18  1  0.22774993  0.64751146  0.61638796  1  0  0.095931  0  0.954346  0  0  0.104722  0  1.018173  0  0  0.107828  0  1.016203  0  0  0.103765  0.102394  0  1.019712  0
H  H19  1  0.35248991  0.77225383  0.88361414  1  0  0.095948  0  0.954243  0  0  0.104766  0  1.018034  0  0  0.107872  0  1.016067  0  0  0.103796  0.102438  0  1.019572  0
C  C20  1  0.42237523  0.74559634  0.39542346  1  0  0.473995  0  3.876584  0  0  0.430493  0  4.154088  0  0  0.455397  0  4.159631  0  0  0.213859  0.413844  0  4.149759  0
C  C21  1  0.25440260  0.57762439  0.10457601  1  0  0.474174  0  3.876516  0  0  0.430644  0  4.154049  0  0  0.455549  0  4.159591  0  0  0.2139  0.413994  0  4.149725  0
C  C22  1  0.57762573  0.25440378  0.60457742  1  0  0.474187  0  3.876627  0  0  0.430703  0  4.154104  0  0  0.455609  0  4.159644  0  0  0.213923  0.414052  0  4.14978  0
C  C23  1  0.74559577  0.42237450  0.89542386  1  0  0.474012  0  3.876671  0  0  0.430546  0  4.154117  0  0  0.455452  0  4.159659  0  0  0.213873  0.413896  0  4.149791  0
C  C24  1  0.47877546  0.59730444  0.32510002  1  0  -0.054223  0  3.748247  0  0  -0.037136  0  3.975262  0  0  -0.041383  0  3.997548  0  0  -0.007575  -0.034703  0  3.960813  0
C  C25  1  0.40269325  0.52122516  0.17489762  1  0  -0.054404  0  3.748435  0  0  -0.037317  0  3.975477  0  0  -0.041566  0  3.997764  0  0  -0.007655  -0.034884  0  3.96103  0
C  C26  1  0.52122519  0.40269326  0.67489822  1  0  -0.054377  0  3.748448  0  0  -0.037308  0  3.975485  0  0  -0.041557  0  3.99777  0  0  -0.007655  -0.034875  0  3.961036  0
C  C27  1  0.59730546  0.47877618  0.82510107  1  0  -0.054322  0  3.748399  0  0  -0.037237  0  3.9754  0  0  -0.041486  0  3.997687  0  0  -0.007617  -0.034804  0  3.960952  0
C  C28  1  0.61087779  0.53370868  0.39886411  1  0  -0.064934  0  3.713283  0  0  -0.09061  0  3.966059  0  0  -0.091837  0  3.986124  0  0  -0.082645  -0.08982  0  3.953181  0
C  C29  1  0.46628757  0.38912137  0.10113293  1  0  -0.06505  0  3.713284  0  0  -0.090735  0  3.966071  0  0  -0.091963  0  3.986138  0  0  -0.082676  -0.089944  0  3.953194  0
C  C30  1  0.38912409  0.46628904  0.60113350  1  0  -0.06502  0  3.713274  0  0  -0.090696  0  3.966056  0  0  -0.091924  0  3.98612  0  0  -0.082666  -0.089906  0  3.953179  0
C  C31  1  0.53370977  0.61087874  0.89886508  1  0  -0.06499  0  3.713331  0  0  -0.090672  0  3.966108  0  0  -0.0919  0  3.986174  0  0  -0.082664  -0.089883  0  3.953232  0
C  C32  1  0.67003817  0.40086754  0.32469441  1  0  -0.037005  0  3.693601  0  0  -0.051142  0  3.942814  0  0  -0.051575  0  3.961679  0  0  -0.079114  -0.05042  0  3.929302  0
C  C33  1  0.59913244  0.32996127  0.17530382  1  0  -0.036712  0  3.693499  0  0  -0.050829  0  3.942685  0  0  -0.051259  0  3.961549  0  0  -0.078989  -0.050107  0  3.929173  0
C  C34  1  0.32996297  0.59913383  0.67530396  1  0  -0.036859  0  3.693513  0  0  -0.050976  0  3.942714  0  0  -0.051406  0  3.961576  0  0  -0.079042  -0.050252  0  3.929202  0
C  C35  1  0.40086855  0.67003888  0.82469418  1  0  -0.036886  0  3.693507  0  0  -0.051017  0  3.942709  0  0  -0.051449  0  3.961575  0  0  -0.07908  -0.050295  0  3.929197  0
C  C36  1  0.81207916  0.87795132  0.35468979  1  0  0.585282  0  3.855043  0  0  0.530726  0  4.135659  0  0  0.553697  0  4.147184  0  0  0.333447  0.515123  0  4.127067  0
C  C37  1  0.12204791  0.18792006  0.14531081  1  0  0.585257  0  3.855168  0  0  0.530725  0  4.13579  0  0  0.553692  0  4.147322  0  0  0.333452  0.515125  0  4.127192  0
C  C38  1  0.18792058  0.12204878  0.64531172  1  0  0.585332  0  3.85498  0  0  0.530752  0  4.135637  0  0  0.553725  0  4.147156  0  0  0.333418  0.515146  0  4.127046  0
C  C39  1  0.87795048  0.81207883  0.85468811  1  0  0.585323  0  3.855043  0  0  0.530737  0  4.135704  0  0  0.55371  0  4.147224  0  0  0.333436  0.515135  0  4.127115  0
N  N40  1  0.29501398  0.79735448  0.31869803  1  0  -0.360383  0  3.31246  0  0  -0.293901  0  3.617167  0  0  -0.314253  0  3.630183  0  0  -0.276765  -0.280316  0  3.608188  0
N  N41  1  0.20264491  0.70498535  0.18130230  1  0  -0.360482  0  3.312463  0  0  -0.29399  0  3.617191  0  0  -0.314343  0  3.630207  0  0  -0.276792  -0.280407  0  3.608219  0
N  N42  1  0.70498441  0.20264441  0.68130088  1  0  -0.360525  0  3.312352  0  0  -0.294065  0  3.617107  0  0  -0.314418  0  3.630125  0  0  -0.276814  -0.280482  0  3.608134  0
N  N43  1  0.79735604  0.29501477  0.81869858  1  0  -0.36035  0  3.312231  0  0  -0.293888  0  3.616964  0  0  -0.314241  0  3.629979  0  0  -0.276756  -0.280301  0  3.607985  0
N  N44  1  0.91593876  0.78482594  0.30357914  1  0  -0.433389  0  3.163925  0  0  -0.354309  0  3.478321  0  0  -0.375473  0  3.484355  0  0  -0.271686  -0.339648  0  3.474121  0
N  N45  1  0.21517196  0.08405914  0.19642092  1  0  -0.433206  0  3.163867  0  0  -0.354255  0  3.478401  0  0  -0.375418  0  3.484437  0  0  -0.271632  -0.339593  0  3.474196  0
N  N46  1  0.08406082  0.21517294  0.69642201  1  0  -0.433409  0  3.164052  0  0  -0.354328  0  3.478464  0  0  -0.375492  0  3.484496  0  0  -0.271648  -0.339664  0  3.47426  0
N  N47  1  0.78482746  0.91593853  0.80357891  1  0  -0.433375  0  3.164056  0  0  -0.354275  0  3.478449  0  0  -0.375441  0  3.484484  0  0  -0.271632  -0.339612  0  3.474246  0
N  N48  1  0.99771496  0.72207345  0.40650684  1  0  -0.045754  0  2.965645  0  0  -0.051583  0  3.264976  0  0  -0.046903  0  3.274591  0  0  -0.093477  -0.054374  0  3.258145  0
N  N49  1  0.27792441  0.00228400  0.09349360  1  0  -0.045815  0  2.965727  0  0  -0.051613  0  3.265095  0  0  -0.046932  0  3.27471  0  0  -0.093503  -0.054405  0  3.258265  0
N  N50  1  0.00228462  0.27792544  0.59349335  1  0  -0.045763  0  2.965755  0  0  -0.051588  0  3.265078  0  0  -0.046909  0  3.274695  0  0  -0.093484  -0.054381  0  3.258248  0
N  N51  1  0.72207517  0.99771488  0.90650755  1  0  -0.045753  0  2.965662  0  0  -0.051584  0  3.264987  0  0  -0.046902  0  3.274602  0  0  -0.093477  -0.054374  0  3.258154  0
N  N52  1  0.94847381  0.77482400  0.51505394  1  0  -0.092937  0  3.058539  0  0  -0.073744  0  3.354097  0  0  -0.073556  0  3.36475  0  0  -0.090277  -0.073793  0  3.347311  0
N  N53  1  0.22517455  0.05152494  0.98494658  1  0  -0.092945  0  3.058603  0  0  -0.073752  0  3.354148  0  0  -0.073565  0  3.364801  0  0  -0.09028  -0.073804  0  3.347362  0
N  N54  1  0.05152714  0.22517611  0.48494789  1  0  -0.092908  0  3.058549  0  0  -0.073715  0  3.354114  0  0  -0.07353  0  3.364769  0  0  -0.090271  -0.073768  0  3.347329  0
N  N55  1  0.77482350  0.94847149  0.01505353  1  0  -0.09294  0  3.058512  0  0  -0.073747  0  3.354075  0  0  -0.07356  0  3.36473  0  0  -0.090288  -0.073796  0  3.347293  0
N  N56  1  0.83264604  0.87391196  0.48757091  1  0  -0.439059  0  3.220291  0  0  -0.363321  0  3.53645  0  0  -0.3849  0  3.543998  0  0  -0.280177  -0.348717  0  3.531232  0
N  N57  1  0.12608755  0.16735367  0.01243087  1  0  -0.439071  0  3.220301  0  0  -0.363317  0  3.536436  0  0  -0.384893  0  3.543983  0  0  -0.280194  -0.348707  0  3.53121  0
N  N58  1  0.16735354  0.12608692  0.51243024  1  0  -0.439078  0  3.220182  0  0  -0.363342  0  3.536354  0  0  -0.384919  0  3.543898  0  0  -0.280176  -0.348731  0  3.531128  0
N  N59  1  0.87391203  0.83264523  0.98756932  1  0  -0.439079  0  3.220253  0  0  -0.363347  0  3.53643  0  0  -0.384925  0  3.543977  0  0  -0.28019  -0.348748  0  3.531223  0
N  N60  1  0.70274034  0.95519356  0.28421201  1  0  -0.696206  0  3.086308  0  0  -0.661018  0  3.332735  0  0  -0.68142  0  3.327359  0  0  -0.5779  -0.646351  0  3.335686  0
N  N61  1  0.04480795  0.29725996  0.21578932  1  0  -0.696206  0  3.08637  0  0  -0.661024  0  3.332769  0  0  -0.681425  0  3.327395  0  0  -0.577888  -0.646358  0  3.335718  0
N  N62  1  0.29726062  0.04480657  0.71578886  1  0  -0.696222  0  3.086295  0  0  -0.661029  0  3.332743  0  0  -0.681431  0  3.327365  0  0  -0.577895  -0.646361  0  3.335695  0
N  N63  1  0.95519525  0.70273895  0.78421279  1  0  -0.696199  0  3.086259  0  0  -0.661007  0  3.332718  0  0  -0.681411  0  3.327342  0  0  -0.577896  -0.646339  0  3.335669  0
O  O64  1  0.49169076  0.83491963  0.52900143  1  0  -0.651734  0  2.10548  0  0  -0.57531  0  2.385847  0  0  -0.60094  0  2.372517  0  0  -0.339873  -0.557089  0  2.393987  0
O  O65  1  0.16508071  0.50830973  0.97099865  1  0  -0.651743  0  2.105375  0  0  -0.575309  0  2.385747  0  0  -0.600939  0  2.372416  0  0  -0.339873  -0.557089  0  2.393888  0
O  O66  1  0.50830916  0.16508171  0.47099853  1  0  -0.651746  0  2.105396  0  0  -0.57534  0  2.38578  0  0  -0.60097  0  2.372448  0  0  -0.339882  -0.557119  0  2.393921  0
O  O67  1  0.83492009  0.49168918  0.02900091  1  0  -0.651718  0  2.105506  0  0  -0.575293  0  2.385838  0  0  -0.600923  0  2.372508  0  0  -0.33987  -0.557074  0  2.393981  0
