# generated using pymatgen
data_CdH6C5N2(ClO)2
_symmetry_space_group_name_H-M   'P 1'
_cell_length_a   7.32926172
_cell_length_b   9.56558331
_cell_length_c   12.57501486
_cell_angle_alpha   90.00002790
_cell_angle_beta   90.00013391
_cell_angle_gamma   98.31145552
_symmetry_Int_Tables_number   1
_chemical_formula_structural   CdH6C5N2(ClO)2
_chemical_formula_sum   'Cd4 H24 C20 N8 Cl8 O8'
_cell_volume   872.35777584
_cell_formula_units_Z   4
loop_
 _symmetry_equiv_pos_site_id
 _symmetry_equiv_pos_as_xyz
  1  'x, y, z'
loop_
 _atom_site_type_symbol
 _atom_site_label
 _atom_site_symmetry_multiplicity
 _atom_site_fract_x
 _atom_site_fract_y
 _atom_site_fract_z
 _atom_site_occupancy
 _atom_site_hle17_bader_spin_density
 _atom_site_hle17_ddec_charge
 _atom_site_hle17_ddec_spin_density
 _atom_site_hle17_ddec_sum_bond_order
 _atom_site_hle17_magmom
 _atom_site_hse06_10hf_bader_spin_density
 _atom_site_hse06_10hf_ddec_charge
 _atom_site_hse06_10hf_ddec_spin_density
 _atom_site_hse06_10hf_ddec_sum_bond_order
 _atom_site_hse06_10hf_magmom
 _atom_site_hse06_bader_spin_density
 _atom_site_hse06_ddec_charge
 _atom_site_hse06_ddec_spin_density
 _atom_site_hse06_ddec_sum_bond_order
 _atom_site_hse06_magmom
 _atom_site_pbe_bader_spin_density
 _atom_site_pbe_cm5_charge
 _atom_site_pbe_ddec_charge
 _atom_site_pbe_ddec_spin_density
 _atom_site_pbe_ddec_sum_bond_order
 _atom_site_pbe_magmom
Cd  Cd0  1  0.10593337  0.32621641  0.23224638  1  0  1.069309  0  1.854156  0  0  0.92092  0  2.3121  0  0  0.971774  0  2.26278  0  0  0.591198  0.88477  0  2.346059  0
Cd  Cd1  1  0.39406755  0.67378434  0.73224605  1  0  1.069313  0  1.854149  0  0  0.920919  0  2.312102  0  0  0.971771  0  2.262782  0  0  0.591209  0.884767  0  2.346065  0
Cd  Cd2  1  0.89406702  0.67378376  0.76775330  1  0  1.069314  0  1.854175  0  0  0.920908  0  2.312149  0  0  0.971762  0  2.262828  0  0  0.591197  0.884758  0  2.346108  0
Cd  Cd3  1  0.60593168  0.32621688  0.26775364  1  0  1.069304  0  1.854133  0  0  0.92089  0  2.312114  0  0  0.971746  0  2.262792  0  0  0.591208  0.88474  0  2.346075  0
H  H4  1  0.51530682  0.25534099  0.53539698  1  0  0.31958  0  0.920683  0  0  0.296988  0  0.983532  0  0  0.306657  0  0.975956  0  0  0.30719  0.290214  0  0.988777  0
H  H5  1  0.98469518  0.74466046  0.03539639  1  0  0.319575  0  0.920739  0  0  0.296984  0  0.983585  0  0  0.306655  0  0.976005  0  0  0.307166  0.29021  0  0.988831  0
H  H6  1  0.48469649  0.74466024  0.46460350  1  0  0.319337  0  0.921109  0  0  0.296792  0  0.983884  0  0  0.306442  0  0.976318  0  0  0.307116  0.29002  0  0.989131  0
H  H7  1  0.01530365  0.25533865  0.96460409  1  0  0.319576  0  0.920756  0  0  0.29699  0  0.983594  0  0  0.306658  0  0.976016  0  0  0.307177  0.290215  0  0.98884  0
H  H8  1  0.90263979  0.35895572  0.63665599  1  0  0.128491  0  0.946073  0  0  0.135728  0  1.015754  0  0  0.138442  0  1.013991  0  0  0.105829  0.133755  0  1.016985  0
H  H9  1  0.59735855  0.64104584  0.13665563  1  0  0.128473  0  0.946166  0  0  0.135714  0  1.01584  0  0  0.138432  0  1.014074  0  0  0.105813  0.133743  0  1.017072  0
H  H10  1  0.09735943  0.64104550  0.36334289  1  0  0.128437  0  0.946167  0  0  0.135681  0  1.015846  0  0  0.138396  0  1.014081  0  0  0.105798  0.133709  0  1.017075  0
H  H11  1  0.40264047  0.35895433  0.86334405  1  0  0.128453  0  0.946185  0  0  0.13569  0  1.015865  0  0  0.138407  0  1.0141  0  0  0.105801  0.133718  0  1.017097  0
H  H12  1  0.80952049  0.17846701  0.61691198  1  0  0.120884  0  0.909522  0  0  0.133766  0  0.968267  0  0  0.13625  0  0.966852  0  0  0.119775  0.131744  0  0.969814  0
H  H13  1  0.69047854  0.82153135  0.11691340  1  0  0.120878  0  0.909531  0  0  0.133759  0  0.968283  0  0  0.136244  0  0.966866  0  0  0.119771  0.131738  0  0.969829  0
H  H14  1  0.19047814  0.82153104  0.38308611  1  0  0.120859  0  0.909542  0  0  0.13375  0  0.968289  0  0  0.136235  0  0.966874  0  0  0.119777  0.131728  0  0.969835  0
H  H15  1  0.30952146  0.17846670  0.88308628  1  0  0.120886  0  0.909492  0  0  0.133769  0  0.968242  0  0  0.136255  0  0.966829  0  0  0.119783  0.131747  0  0.969789  0
H  H16  1  0.26351115  0.41112305  0.53247040  1  0  0.12205  0  0.923923  0  0  0.12752  0  0.990776  0  0  0.130672  0  0.986568  0  0  0.143716  0.125088  0  0.993969  0
H  H17  1  0.23649010  0.58887642  0.03247101  1  0  0.122094  0  0.923937  0  0  0.127531  0  0.990813  0  0  0.130682  0  0.986603  0  0  0.143726  0.125101  0  0.994003  0
H  H18  1  0.73649022  0.58887500  0.46752849  1  0  0.122053  0  0.923985  0  0  0.127515  0  0.990838  0  0  0.130666  0  0.986631  0  0  0.143727  0.125084  0  0.994029  0
H  H19  1  0.76351010  0.41112269  0.96753027  1  0  0.122029  0  0.923952  0  0  0.127476  0  0.990838  0  0  0.130624  0  0.986627  0  0  0.143705  0.125045  0  0.994028  0
H  H20  1  0.39864613  0.00885491  0.61569736  1  0  0.118767  0  0.959457  0  0  0.124326  0  1.026094  0  0  0.127357  0  1.024447  0  0  0.114684  0.121933  0  1.027871  0
H  H21  1  0.10135312  0.99114676  0.11569554  1  0  0.1188  0  0.959363  0  0  0.124312  0  1.026061  0  0  0.127344  0  1.024413  0  0  0.114679  0.121921  0  1.027835  0
H  H22  1  0.60135562  0.99114526  0.38430471  1  0  0.118783  0  0.959443  0  0  0.124303  0  1.02613  0  0  0.127334  0  1.024483  0  0  0.114679  0.121914  0  1.027901  0
H  H23  1  0.89864610  0.00885446  0.88430335  1  0  0.11879  0  0.959403  0  0  0.124318  0  1.026075  0  0  0.12735  0  1.024427  0  0  0.114686  0.121926  0  1.027849  0
H  H24  1  0.02105738  0.00940351  0.64766048  1  0  0.127645  0  0.981589  0  0  0.13006  0  1.053721  0  0  0.13336  0  1.051818  0  0  0.11101  0.127779  0  1.054873  0
H  H25  1  0.47894338  0.99059820  0.14766077  1  0  0.127607  0  0.981598  0  0  0.130038  0  1.053721  0  0  0.133328  0  1.051848  0  0  0.111002  0.127758  0  1.054871  0
H  H26  1  0.97894457  0.99059772  0.35233920  1  0  0.127638  0  0.981571  0  0  0.130065  0  1.053688  0  0  0.133361  0  1.0518  0  0  0.111018  0.127785  0  1.054839  0
H  H27  1  0.52105584  0.00940302  0.85233732  1  0  0.127611  0  0.981576  0  0  0.130044  0  1.053693  0  0  0.133339  0  1.051807  0  0  0.111015  0.127763  0  1.054845  0
C  C28  1  0.86216652  0.30356489  0.47119054  1  0  0.701331  0  3.843246  0  0  0.651352  0  4.146013  0  0  0.685468  0  4.138909  0  0  0.215987  0.628179  0  4.149933  0
C  C29  1  0.63782445  0.69643385  0.97118908  1  0  0.701128  0  3.843405  0  0  0.65124  0  4.146036  0  0  0.685352  0  4.138935  0  0  0.215966  0.628068  0  4.149957  0
C  C30  1  0.13782821  0.69643421  0.52880914  1  0  0.701028  0  3.843356  0  0  0.651124  0  4.146036  0  0  0.685229  0  4.138942  0  0  0.215922  0.627953  0  4.149953  0
C  C31  1  0.36217594  0.30356632  0.02881140  1  0  0.701056  0  3.843451  0  0  0.651171  0  4.146074  0  0  0.68528  0  4.138977  0  0  0.215957  0.627999  0  4.149994  0
C  C32  1  0.90879911  0.26583425  0.58604530  1  0  -0.163478  0  3.5835  0  0  -0.221944  0  3.827145  0  0  -0.2228  0  3.832118  0  0  -0.054606  -0.221152  0  3.823392  0
C  C33  1  0.59120291  0.73416619  0.08604656  1  0  -0.163391  0  3.583563  0  0  -0.221887  0  3.827182  0  0  -0.222744  0  3.832151  0  0  -0.054567  -0.221097  0  3.82343  0
C  C34  1  0.09120517  0.73416487  0.41395199  1  0  -0.163289  0  3.583451  0  0  -0.221805  0  3.827095  0  0  -0.222661  0  3.832068  0  0  -0.054569  -0.221015  0  3.82334  0
C  C35  1  0.40879611  0.26583397  0.91395312  1  0  -0.163354  0  3.58348  0  0  -0.221853  0  3.827105  0  0  -0.222712  0  3.83208  0  0  -0.054573  -0.221063  0  3.823355  0
C  C36  1  0.24863462  0.30324355  0.56039559  1  0  0.227311  0  3.536402  0  0  0.150138  0  3.81277  0  0  0.167929  0  3.819022  0  0  0.173315  0.138573  0  3.808746  0
C  C37  1  0.25136557  0.69675700  0.06039625  1  0  0.227196  0  3.536479  0  0  0.150065  0  3.812828  0  0  0.167857  0  3.819079  0  0  0.173292  0.138498  0  3.808808  0
C  C38  1  0.75136577  0.69675661  0.43960330  1  0  0.227278  0  3.536448  0  0  0.150089  0  3.81284  0  0  0.167882  0  3.819088  0  0  0.173287  0.138523  0  3.808815  0
C  C39  1  0.74863345  0.30324316  0.93960502  1  0  0.227331  0  3.536381  0  0  0.150157  0  3.81279  0  0  0.167955  0  3.819034  0  0  0.173306  0.138592  0  3.808769  0
C  C40  1  0.31309183  0.09060841  0.60265638  1  0  0.018919  0  3.662636  0  0  -0.022938  0  3.930039  0  0  -0.020582  0  3.94717  0  0  0.009048  -0.024818  0  3.919441  0
C  C41  1  0.18690893  0.90939430  0.10265464  1  0  0.018995  0  3.662498  0  0  -0.022821  0  3.92992  0  0  -0.020462  0  3.947046  0  0  0.009092  -0.024702  0  3.91932  0
C  C42  1  0.68690856  0.90939176  0.39734649  1  0  0.018933  0  3.662676  0  0  -0.022918  0  3.93012  0  0  -0.020558  0  3.947246  0  0  0.009036  -0.0248  0  3.919521  0
C  C43  1  0.81309165  0.09060692  0.89734504  1  0  0.019011  0  3.662522  0  0  -0.022812  0  3.929925  0  0  -0.020454  0  3.947053  0  0  0.009093  -0.024692  0  3.919326  0
C  C44  1  0.12824489  0.09030842  0.61865146  1  0  -0.048934  0  3.638995  0  0  -0.091483  0  3.902716  0  0  -0.090046  0  3.920986  0  0  0.004329  -0.092696  0  3.891075  0
C  C45  1  0.37175574  0.90969326  0.11865078  1  0  -0.048947  0  3.638925  0  0  -0.091511  0  3.902659  0  0  -0.09008  0  3.920924  0  0  0.0043  -0.092726  0  3.891016  0
C  C46  1  0.87175823  0.90969175  0.38134981  1  0  -0.048944  0  3.63898  0  0  -0.091491  0  3.902698  0  0  -0.090057  0  3.920969  0  0  0.004319  -0.092705  0  3.891055  0
C  C47  1  0.62824348  0.09030796  0.88134811  1  0  -0.048976  0  3.638941  0  0  -0.091537  0  3.902681  0  0  -0.090104  0  3.92095  0  0  0.004292  -0.092751  0  3.891039  0
N  N48  1  0.09132481  0.22386463  0.59189761  1  0  -0.023513  0  3.575564  0  0  0.069027  0  3.792438  0  0  0.055004  0  3.817498  0  0  -0.228397  0.078027  0  3.775596  0
N  N49  1  0.40867532  0.77613490  0.09189773  1  0  -0.023492  0  3.575537  0  0  0.069046  0  3.792423  0  0  0.055025  0  3.81748  0  0  -0.228405  0.078048  0  3.775581  0
N  N50  1  0.90867675  0.77613448  0.40810207  1  0  -0.023519  0  3.57552  0  0  0.069029  0  3.792409  0  0  0.055005  0  3.81747  0  0  -0.228411  0.078031  0  3.775565  0
N  N51  1  0.59132371  0.22386526  0.90810196  1  0  -0.023522  0  3.575519  0  0  0.069022  0  3.792412  0  0  0.055  0  3.817471  0  0  -0.228393  0.078025  0  3.775571  0
N  N52  1  0.38336688  0.22368784  0.56686723  1  0  -0.26286  0  3.468901  0  0  -0.195641  0  3.709439  0  0  -0.21149  0  3.722332  0  0  -0.368491  -0.185366  0  3.701014  0
N  N53  1  0.11663237  0.77631483  0.06686694  1  0  -0.262894  0  3.468973  0  0  -0.195679  0  3.709493  0  0  -0.211529  0  3.722384  0  0  -0.368479  -0.185402  0  3.70107  0
N  N54  1  0.61663507  0.77631338  0.43313405  1  0  -0.262707  0  3.469179  0  0  -0.195481  0  3.709701  0  0  -0.211317  0  3.72259  0  0  -0.368386  -0.185208  0  3.701275  0
N  N55  1  0.88336822  0.22368639  0.93313433  1  0  -0.26292  0  3.468981  0  0  -0.195702  0  3.709515  0  0  -0.211549  0  3.722405  0  0  -0.368493  -0.185424  0  3.701091  0
Cl  Cl56  1  0.38037438  0.51209484  0.30006918  1  0  -0.575649  0  0.997478  0  0  -0.515993  0  1.28161  0  0  -0.536705  0  1.260667  0  0  -0.299214  -0.500725  0  1.29638  0
Cl  Cl57  1  0.11962429  0.48790703  0.80006920  1  0  -0.575684  0  0.997542  0  0  -0.516012  0  1.281641  0  0  -0.536725  0  1.260698  0  0  -0.29922  -0.500744  0  1.296411  0
Cl  Cl58  1  0.61962777  0.48790744  0.69993129  1  0  -0.575667  0  0.997558  0  0  -0.515993  0  1.281656  0  0  -0.536705  0  1.260713  0  0  -0.29921  -0.500725  0  1.296425  0
Cl  Cl59  1  0.88037337  0.51209313  0.19992968  1  0  -0.575679  0  0.997535  0  0  -0.516006  0  1.281633  0  0  -0.536717  0  1.260689  0  0  -0.299228  -0.500739  0  1.296403  0
Cl  Cl60  1  0.30809920  0.13941942  0.30611359  1  0  -0.590324  0  0.974882  0  0  -0.527821  0  1.255514  0  0  -0.548583  0  1.235659  0  0  -0.301855  -0.512527  0  1.269525  0
Cl  Cl61  1  0.19189813  0.86058245  0.80611305  1  0  -0.590343  0  0.974902  0  0  -0.52783  0  1.255512  0  0  -0.548598  0  1.235664  0  0  -0.301857  -0.512536  0  1.269526  0
Cl  Cl62  1  0.69190139  0.86058180  0.69388768  1  0  -0.590336  0  0.974895  0  0  -0.527832  0  1.255531  0  0  -0.548598  0  1.235677  0  0  -0.301855  -0.512536  0  1.269539  0
Cl  Cl63  1  0.80809973  0.13941877  0.19388822  1  0  -0.590331  0  0.974885  0  0  -0.527821  0  1.255503  0  0  -0.548583  0  1.235648  0  0  -0.301858  -0.512536  0  1.269531  0
O  O64  1  0.99387116  0.33981215  0.40939588  1  0  -0.639346  0  2.110348  0  0  -0.580252  0  2.365845  0  0  -0.609343  0  2.358865  0  0  -0.322121  -0.559795  0  2.369638  0
O  O65  1  0.50613320  0.66018654  0.90939581  1  0  -0.639175  0  2.110587  0  0  -0.580112  0  2.366034  0  0  -0.609196  0  2.359059  0  0  -0.322098  -0.559652  0  2.369818  0
O  O66  1  0.00613137  0.66018485  0.59060380  1  0  -0.639159  0  2.110465  0  0  -0.580066  0  2.365896  0  0  -0.609156  0  2.358926  0  0  -0.32207  -0.559607  0  2.369677  0
O  O67  1  0.49386563  0.33981256  0.09060387  1  0  -0.639158  0  2.110621  0  0  -0.580083  0  2.366043  0  0  -0.609171  0  2.359075  0  0  -0.322083  -0.559622  0  2.369823  0
O  O68  1  0.69028010  0.29873474  0.44939164  1  0  -0.650161  0  2.046765  0  0  -0.58374  0  2.295612  0  0  -0.613348  0  2.285174  0  0  -0.321397  -0.562975  0  2.302304  0
O  O69  1  0.80972482  0.70126611  0.94939041  1  0  -0.650156  0  2.046608  0  0  -0.58377  0  2.295414  0  0  -0.613378  0  2.284973  0  0  -0.321392  -0.563003  0  2.302106  0
O  O70  1  0.30972419  0.70126437  0.55060963  1  0  -0.65002  0  2.046706  0  0  -0.58365  0  2.295523  0  0  -0.613241  0  2.285082  0  0  -0.321362  -0.562884  0  2.302214  0
O  O71  1  0.19027401  0.29873300  0.05060927  1  0  -0.650122  0  2.046647  0  0  -0.583733  0  2.29544  0  0  -0.61334  0  2.285002  0  0  -0.321402  -0.562965  0  2.30213  0
