# generated using pymatgen
data_Cd2H32C41(N2O7)2
_symmetry_space_group_name_H-M   'P 1'
_cell_length_a   9.11668066
_cell_length_b   15.33228898
_cell_length_c   17.50593347
_cell_angle_alpha   90.00012026
_cell_angle_beta   89.99992843
_cell_angle_gamma   89.99997672
_symmetry_Int_Tables_number   1
_chemical_formula_structural   Cd2H32C41(N2O7)2
_chemical_formula_sum   'Cd4 H64 C82 N8 O28'
_cell_volume   2446.97207036
_cell_formula_units_Z   2
loop_
 _symmetry_equiv_pos_site_id
 _symmetry_equiv_pos_as_xyz
  1  'x, y, z'
loop_
 _atom_site_type_symbol
 _atom_site_label
 _atom_site_symmetry_multiplicity
 _atom_site_fract_x
 _atom_site_fract_y
 _atom_site_fract_z
 _atom_site_occupancy
 _atom_site_pbe_bader_charge
 _atom_site_pbe_bader_spin_density
 _atom_site_pbe_cm5_charge
 _atom_site_pbe_ddec_charge
 _atom_site_pbe_ddec_spin_density
 _atom_site_pbe_ddec_sum_bond_order
 _atom_site_pbe_magmom
Cd  Cd0  1  0.80794440  0.17330892  0.74747218  1  1.224992  0  0.767093  0.834253  0  2.140996  0
Cd  Cd1  1  0.80794259  0.82669021  0.25252744  1  1.224995  0  0.767084  0.834253  0  2.140967  0
Cd  Cd2  1  0.19205230  0.67331067  0.75252997  1  1.225023  0  0.767068  0.834181  0  2.141105  0
Cd  Cd3  1  0.19205304  0.32669057  0.24746947  1  1.225022  0  0.76709  0.834242  0  2.141019  0
H  H4  1  0.53375332  0.90962696  0.77458203  1  0.104687  0  0.100802  0.114288  0  1.019323  0
H  H5  1  0.53375427  0.09037484  0.22541720  1  0.10473  0  0.100817  0.114318  0  1.019347  0
H  H6  1  0.46625310  0.40962916  0.72541884  1  0.104614  0  0.100826  0.114355  0  1.019289  0
H  H7  1  0.46625469  0.59036875  0.27458386  1  0.104656  0  0.100841  0.114379  0  1.019335  0
H  H8  1  0.51278497  0.74595758  0.97427418  1  0.066575  0  0.102292  0.116522  0  1.030003  0
H  H9  1  0.51278739  0.25404358  0.02572449  1  0.066651  0  0.102282  0.116532  0  1.030011  0
H  H10  1  0.48721388  0.24595799  0.52572753  1  0.066586  0  0.102289  0.116576  0  1.03  0
H  H11  1  0.48721816  0.75404383  0.47427172  1  0.066544  0  0.102277  0.116546  0  1.030014  0
H  H12  1  0.83471678  0.95105541  0.96050579  1  0.088295  0  0.102029  0.11784  0  1.03093  0
H  H13  1  0.83471712  0.04894306  0.03949096  1  0.087735  0  0.102025  0.117855  0  1.030855  0
H  H14  1  0.16528522  0.45105918  0.53949629  1  0.087777  0  0.102035  0.117859  0  1.030883  0
H  H15  1  0.16528419  0.54894467  0.46050602  1  0.088311  0  0.102039  0.117856  0  1.030914  0
H  H16  1  0.13249462  0.09576614  0.76972706  1  0.084643  0  0.119909  0.087542  0  0.983009  0
H  H17  1  0.13249720  0.90423381  0.23027184  1  0.084604  0  0.119942  0.087586  0  0.983058  0
H  H18  1  0.86750543  0.59576506  0.73027266  1  0.084616  0  0.119906  0.087521  0  0.983023  0
H  H19  1  0.86750826  0.40423471  0.26972749  1  0.084619  0  0.119914  0.087514  0  0.983053  0
H  H20  1  0.35581942  0.05776778  0.69583487  1  0.112262  0  0.119765  0.145298  0  0.993558  0
H  H21  1  0.35582180  0.94223211  0.30416332  1  0.112234  0  0.119765  0.145309  0  0.99356  0
H  H22  1  0.64417956  0.55776693  0.80416421  1  0.112257  0  0.119756  0.145275  0  0.993549  0
H  H23  1  0.64418144  0.44223354  0.19583722  1  0.112251  0  0.119788  0.145358  0  0.993522  0
H  H24  1  0.92583948  0.19962963  0.57987299  1  0.116403  0  0.113646  0.0857  0  1.023739  0
H  H25  1  0.92584167  0.80037209  0.42012598  1  0.116139  0  0.113598  0.08562  0  1.023887  0
H  H26  1  0.07415830  0.69962789  0.92012578  1  0.116169  0  0.11362  0.085633  0  1.023867  0
H  H27  1  0.07415727  0.30036685  0.07987317  1  0.116308  0  0.113628  0.085663  0  1.023856  0
H  H28  1  0.14355817  0.16715567  0.49608219  1  0.09547  0  0.113953  0.140495  0  1.001932  0
H  H29  1  0.14356122  0.83284297  0.50391557  1  0.095532  0  0.113975  0.140508  0  1.001926  0
H  H30  1  0.85643758  0.66715795  0.00391615  1  0.095599  0  0.113986  0.140546  0  1.00191  0
H  H31  1  0.85643428  0.33284052  0.99608516  1  0.095618  0  0.113979  0.140511  0  1.001917  0
H  H32  1  0.43150687  0.96846076  0.59334356  1  0.065033  0  0.11227  0.087084  0  0.975197  0
H  H33  1  0.43150633  0.03154042  0.40665401  1  0.06499  0  0.112282  0.087141  0  0.975257  0
H  H34  1  0.56849512  0.46845881  0.90665455  1  0.065097  0  0.112271  0.087097  0  0.975271  0
H  H35  1  0.56849280  0.53154038  0.09334351  1  0.065075  0  0.112275  0.087076  0  0.975274  0
H  H36  1  0.55216621  0.05872185  0.61245908  1  0.128499  0  0.113092  0.100786  0  0.992397  0
H  H37  1  0.55216509  0.94127995  0.38753671  1  0.128516  0  0.113158  0.10095  0  0.992415  0
H  H38  1  0.44783606  0.55871930  0.88753772  1  0.128545  0  0.113144  0.100894  0  0.992431  0
H  H39  1  0.44783266  0.44128057  0.11246155  1  0.128547  0  0.113101  0.100783  0  0.992339  0
H  H40  1  0.60234143  0.13262387  0.45958182  1  0.076429  0  0.112336  0.087045  0  0.978243  0
H  H41  1  0.60234437  0.86737923  0.54041736  1  0.076475  0  0.112357  0.087076  0  0.978244  0
H  H42  1  0.39765543  0.63262113  0.04041760  1  0.076478  0  0.112354  0.087036  0  0.978279  0
H  H43  1  0.39765988  0.36737484  0.95958228  1  0.076401  0  0.112329  0.087037  0  0.978216  0
H  H44  1  0.73807387  0.10048131  0.52758326  1  0.116811  0  0.110059  0.090151  0  1.011828  0
H  H45  1  0.73807696  0.89951719  0.47241412  1  0.116775  0  0.110055  0.090146  0  1.011752  0
H  H46  1  0.26192179  0.60048096  0.97241533  1  0.116819  0  0.110053  0.090155  0  1.011791  0
H  H47  1  0.26192630  0.39951765  0.02758464  1  0.116816  0  0.110037  0.090129  0  1.011806  0
H  H48  1  0.78970236  0.22715571  0.45566089  1  0.106525  0  0.115607  0.137941  0  1.005644  0
H  H49  1  0.78970535  0.77284668  0.54433817  1  0.106564  0  0.115608  0.137937  0  1.005652  0
H  H50  1  0.21029773  0.72715303  0.04433984  1  0.10656  0  0.115606  0.137917  0  1.005675  0
H  H51  1  0.21029458  0.27284298  0.95566301  1  0.106497  0  0.115598  0.137924  0  1.005614  0
H  H52  1  0.96720231  0.32623736  0.39155694  1  0.101944  0  0.119661  0.094629  0  0.993048  0
H  H53  1  0.96720083  0.67376369  0.60844543  1  0.101986  0  0.11965  0.094564  0  0.993037  0
H  H54  1  0.03279990  0.82623684  0.10844454  1  0.101985  0  0.119665  0.094611  0  0.993003  0
H  H55  1  0.03279478  0.17376248  0.89155900  1  0.101856  0  0.119655  0.094638  0  0.99308  0
H  H56  1  0.13059652  0.12798901  0.25562883  1  0.103344  0  0.11786  0.093103  0  0.990649  0
H  H57  1  0.13058909  0.87201224  0.74437579  1  0.103382  0  0.117834  0.093039  0  0.990644  0
H  H58  1  0.86940254  0.62798731  0.24437172  1  0.103323  0  0.117864  0.093112  0  0.99065  0
H  H59  1  0.86939981  0.37200985  0.75563243  1  0.10333  0  0.117834  0.093061  0  0.990581  0
H  H60  1  0.95248444  0.01948463  0.31121419  1  0.098104  0  0.109161  0.12855  0  1.035481  0
H  H61  1  0.95248475  0.98051903  0.68878590  1  0.098037  0  0.109148  0.128524  0  1.035463  0
H  H62  1  0.04751031  0.51948104  0.18878445  1  0.098037  0  0.10914  0.128493  0  1.035477  0
H  H63  1  0.04751285  0.48051436  0.81121680  1  0.098125  0  0.109139  0.128546  0  1.035477  0
H  H64  1  0.78028580  0.86687186  0.07370469  1  0.628331  0  0.29514  0.346655  0  0.994849  0
H  H65  1  0.78028501  0.13312923  0.92629381  1  0.628311  0  0.295154  0.346658  0  0.994826  0
H  H66  1  0.21971638  0.36687331  0.42629744  1  0.628288  0  0.295147  0.346614  0  0.994838  0
H  H67  1  0.21971831  0.63312988  0.57370313  1  0.628356  0  0.295124  0.346642  0  0.994816  0
C  C68  1  0.74673678  0.01950420  0.82637045  1  1.53413  0  0.19765  0.568872  0  4.189629  0
C  C69  1  0.74673834  0.98049495  0.17362921  1  1.534049  0  0.197688  0.568904  0  4.189594  0
C  C70  1  0.25326552  0.51950835  0.67362971  1  1.534449  0  0.197613  0.568711  0  4.189777  0
C  C71  1  0.25326267  0.48049418  0.32637027  1  1.534108  0  0.197612  0.568725  0  4.189701  0
C  C72  1  0.68775552  0.93981955  0.86469145  1  -0.040874  0  -0.025471  -0.018504  0  4.020955  0
C  C73  1  0.68775561  0.06017962  0.13530824  1  -0.040835  0  -0.025542  -0.018621  0  4.020944  0
C  C74  1  0.31224978  0.43982221  0.63531061  1  -0.040532  0  -0.025433  -0.018327  0  4.020853  0
C  C75  1  0.31224678  0.56017834  0.36469161  1  -0.040912  0  -0.025488  -0.018422  0  4.020915  0
C  C76  1  0.57419670  0.89201257  0.83092461  1  -0.058726  0  -0.09273  -0.135351  0  3.949006  0
C  C77  1  0.57419449  0.10798923  0.16907459  1  -0.05871  0  -0.092757  -0.135337  0  3.949038  0
C  C78  1  0.42580863  0.39201464  0.66907679  1  -0.058779  0  -0.092756  -0.135491  0  3.949029  0
C  C79  1  0.42580458  0.60798589  0.33092421  1  -0.05875  0  -0.092747  -0.135526  0  3.949135  0
C  C80  1  0.51250427  0.82153260  0.87038776  1  -0.041753  0  -0.0248  -0.016705  0  4.019194  0
C  C81  1  0.51250649  0.17847051  0.12961262  1  -0.041775  0  -0.024757  -0.016769  0  4.019266  0
C  C82  1  0.48749782  0.32153326  0.62961466  1  -0.0418  0  -0.024829  -0.016651  0  4.019045  0
C  C83  1  0.48750021  0.67846595  0.37038573  1  -0.041743  0  -0.024808  -0.016584  0  4.019013  0
C  C84  1  0.56272312  0.79986469  0.94334984  1  0.040041  0  -0.097163  -0.206259  0  3.92897  0
C  C85  1  0.56272441  0.20013581  0.05664822  1  0.039936  0  -0.097215  -0.206331  0  3.929071  0
C  C86  1  0.43727898  0.29986648  0.55665140  1  0.04011  0  -0.097211  -0.206487  0  3.929054  0
C  C87  1  0.43727789  0.70013600  0.44334846  1  0.040069  0  -0.097172  -0.206405  0  3.929017  0
C  C88  1  0.67868852  0.84609526  0.97658143  1  0.50354  0  0.075862  0.319872  0  4.103642  0
C  C89  1  0.67868663  0.15390325  0.02341655  1  0.50357  0  0.075912  0.319894  0  4.103655  0
C  C90  1  0.32131465  0.34609830  0.52341931  1  0.503594  0  0.075952  0.31999  0  4.103797  0
C  C91  1  0.32131570  0.65390551  0.47658119  1  0.503565  0  0.07589  0.319855  0  4.103717  0
C  C92  1  0.74260106  0.91533600  0.93639739  1  -0.019695  0  -0.102423  -0.232772  0  3.947718  0
C  C93  1  0.74260241  0.08466184  0.06360227  1  -0.019683  0  -0.102351  -0.232663  0  3.947528  0
C  C94  1  0.25740206  0.41533981  0.56360520  1  -0.020083  0  -0.102401  -0.232823  0  3.947715  0
C  C95  1  0.25739997  0.58466402  0.43639648  1  -0.019652  0  -0.102444  -0.232786  0  3.947634  0
C  C96  1  0.39267453  0.76855875  0.83478267  1  1.561754  0  0.186572  0.557716  0  4.2265  0
C  C97  1  0.39267773  0.23144635  0.16521607  1  1.561813  0  0.186623  0.557889  0  4.226396  0
C  C98  1  0.60732211  0.26855881  0.66522079  1  1.562117  0  0.186612  0.557777  0  4.226453  0
C  C99  1  0.60732345  0.73143972  0.33477610  1  1.56216  0  0.18657  0.557697  0  4.226446  0
C  C100  1  0.13831479  0.10991659  0.70869691  1  0.483606  0  0.046237  0.1113  0  3.999964  0
C  C101  1  0.13831723  0.89008335  0.29130142  1  0.483545  0  0.04619  0.111219  0  4.00005  0
C  C102  1  0.86168416  0.60991631  0.79130170  1  0.483539  0  0.046239  0.111312  0  4.000007  0
C  C103  1  0.86168494  0.39008346  0.20869789  1  0.483577  0  0.046235  0.111333  0  4.000004  0
C  C104  1  0.26276146  0.08792242  0.66720806  1  0.003835  0  -0.097062  -0.261612  0  3.946715  0
C  C105  1  0.26276268  0.91207815  0.33278962  1  0.004203  0  -0.097048  -0.261582  0  3.946699  0
C  C106  1  0.73723970  0.58792162  0.83278993  1  0.004149  0  -0.09701  -0.261539  0  3.946706  0
C  C107  1  0.73723728  0.41207753  0.16720973  1  0.004209  0  -0.097053  -0.261648  0  3.946755  0
C  C108  1  0.02371946  0.16783999  0.60237762  1  0.495094  0  0.040542  0.10421  0  3.978707  0
C  C109  1  0.02372058  0.83216129  0.39762136  1  0.495442  0  0.040507  0.104166  0  3.978895  0
C  C110  1  0.97628054  0.66783798  0.89762223  1  0.495331  0  0.04057  0.104307  0  3.978847  0
C  C111  1  0.97627724  0.33215720  0.10237842  1  0.495238  0  0.040518  0.104184  0  3.978845  0
C  C112  1  0.14269485  0.14923213  0.55627377  1  0.034382  0  -0.091588  -0.232591  0  3.938342  0
C  C113  1  0.14269584  0.85076716  0.44372456  1  0.034251  0  -0.091547  -0.232524  0  3.938354  0
C  C114  1  0.85730298  0.64923353  0.94372491  1  0.034267  0  -0.091562  -0.232626  0  3.93838  0
C  C115  1  0.85730087  0.35076559  0.05627582  1  0.034221  0  -0.091533  -0.232505  0  3.938336  0
C  C116  1  0.26372133  0.10632923  0.58864386  1  0.478353  0  0.112599  0.313145  0  4.043566  0
C  C117  1  0.26372127  0.89367134  0.41135497  1  0.478029  0  0.112521  0.313041  0  4.043548  0
C  C118  1  0.73627982  0.60632797  0.91135531  1  0.478049  0  0.112516  0.313049  0  4.043587  0
C  C119  1  0.73627760  0.39367053  0.08864607  1  0.477963  0  0.112518  0.313096  0  4.043581  0
C  C120  1  0.48490605  0.02631112  0.56872304  1  0.368156  0  -0.058343  -0.037734  0  3.818239  0
C  C121  1  0.48490479  0.97368939  0.43127336  1  0.368341  0  -0.058428  -0.038044  0  3.818364  0
C  C122  1  0.51509625  0.52630996  0.93127370  1  0.368225  0  -0.058414  -0.037916  0  3.818266  0
C  C123  1  0.51509403  0.47369055  0.06872439  1  0.368332  0  -0.058394  -0.037733  0  3.818223  0
C  C124  1  0.57931516  0.99999995  0.49999976  1  0.063836  0  -0.017245  0.055636  0  3.826153  0
C  C125  1  0.42068364  0.49999966  0.00000089  1  0.063521  0  -0.017207  0.055617  0  3.826185  0
C  C126  1  0.67333547  0.07856477  0.47828169  1  0.370852  0  -0.060016  -0.038903  0  3.840673  0
C  C127  1  0.67333403  0.92143570  0.52171801  1  0.370854  0  -0.060035  -0.038925  0  3.840591  0
C  C128  1  0.32666582  0.57856331  0.02171877  1  0.370849  0  -0.06001  -0.038868  0  3.840643  0
C  C129  1  0.32666470  0.42143399  0.97828230  1  0.37086  0  -0.060003  -0.038834  0  3.840581  0
C  C130  1  0.85828775  0.11433620  0.38773579  1  0.432451  0  0.108999  0.310112  0  4.045986  0
C  C131  1  0.85829270  0.88566683  0.61226494  1  0.432289  0  0.109056  0.310287  0  4.045977  0
C  C132  1  0.14171132  0.61433305  0.11226473  1  0.432349  0  0.109  0.310107  0  4.046029  0
C  C133  1  0.14170935  0.38566168  0.88773645  1  0.432485  0  0.109008  0.310217  0  4.04589  0
C  C134  1  0.86154875  0.20192067  0.41119249  1  0.059896  0  -0.102209  -0.272591  0  3.965654  0
C  C135  1  0.86155271  0.79808040  0.58880709  1  0.059965  0  -0.102204  -0.272683  0  3.965758  0
C  C136  1  0.13844917  0.70191877  0.08880819  1  0.05992  0  -0.102164  -0.272522  0  3.96574  0
C  C137  1  0.13844830  0.29807792  0.91119528  1  0.059853  0  -0.102213  -0.272596  0  3.965576  0
C  C138  1  0.96081297  0.25753788  0.37562514  1  0.456277  0  0.045903  0.108883  0  3.995496  0
C  C139  1  0.96081140  0.74246382  0.62437552  1  0.456259  0  0.045928  0.109042  0  3.995551  0
C  C140  1  0.03919039  0.75753609  0.12437450  1  0.456248  0  0.045862  0.10886  0  3.995512  0
C  C141  1  0.03918635  0.24246062  0.87562675  1  0.456292  0  0.045896  0.108838  0  3.99556  0
C  C142  1  0.05114320  0.14687993  0.29923295  1  0.510222  0  0.042849  0.10571  0  3.978212  0
C  C143  1  0.05113808  0.85311939  0.70076944  1  0.509946  0  0.042875  0.105764  0  3.97829  0
C  C144  1  0.94885585  0.64688006  0.20076707  1  0.510222  0  0.042845  0.10564  0  3.978227  0
C  C145  1  0.94885302  0.35312034  0.79923703  1  0.510285  0  0.042861  0.105741  0  3.978287  0
C  C146  1  0.95500724  0.08691621  0.33024038  1  0.005826  0  -0.096385  -0.239098  0  3.957194  0
C  C147  1  0.95501093  0.91308746  0.66975801  1  0.006185  0  -0.096425  -0.239176  0  3.957474  0
C  C148  1  0.04499075  0.58691322  0.16976010  1  0.005982  0  -0.096367  -0.239008  0  3.957223  0
C  C149  1  0.04498781  0.41308414  0.83024343  1  0.005801  0  -0.096361  -0.239158  0  3.957328  0
N  N150  1  0.01920348  0.14747522  0.67743215  1  -1.266038  0  -0.348314  -0.280325  0  3.552155  0
N  N151  1  0.01920477  0.85252672  0.32256740  1  -1.266012  0  -0.34827  -0.280253  0  3.552132  0
N  N152  1  0.98079434  0.64747368  0.82256880  1  -1.266018  0  -0.348368  -0.280366  0  3.552259  0
N  N153  1  0.98079633  0.35252411  0.17743299  1  -1.266029  0  -0.348319  -0.280323  0  3.552183  0
N  N154  1  0.05434606  0.23135527  0.32101135  1  -1.239393  0  -0.345409  -0.265599  0  3.542627  0
N  N155  1  0.05434325  0.76864535  0.67899046  1  -1.239418  0  -0.345383  -0.265564  0  3.542673  0
N  N156  1  0.94565512  0.73135470  0.17898882  1  -1.239385  0  -0.345378  -0.265519  0  3.542553  0
N  N157  1  0.94565230  0.26864310  0.82101300  1  -1.239393  0  -0.345395  -0.26554  0  3.542678  0
O  O158  1  0.84730512  0.06453012  0.85946724  1  -1.19797  0  -0.342231  -0.598549  0  2.197058  0
O  O159  1  0.84730241  0.93546900  0.14053236  1  -1.198004  0  -0.34225  -0.598532  0  2.197068  0
O  O160  1  0.15269934  0.56453291  0.64053586  1  -1.1983  0  -0.342226  -0.59847  0  2.197142  0
O  O161  1  0.15269644  0.43547030  0.35946818  1  -1.198059  0  -0.34223  -0.598506  0  2.197066  0
O  O162  1  0.69212487  0.04250722  0.76214141  1  -1.146626  0  -0.329387  -0.534467  0  2.193658  0
O  O163  1  0.69212190  0.95749194  0.23785714  1  -1.146534  0  -0.329422  -0.53453  0  2.193692  0
O  O164  1  0.30787851  0.54250890  0.73786050  1  -1.146637  0  -0.3294  -0.53445  0  2.1936  0
O  O165  1  0.30787474  0.45749166  0.26213944  1  -1.146581  0  -0.32937  -0.534405  0  2.193615  0
O  O166  1  0.36078581  0.78365296  0.76465790  1  -1.158601  0  -0.343872  -0.554562  0  2.180016  0
O  O167  1  0.36078665  0.21634759  0.23533972  1  -1.15854  0  -0.343951  -0.554699  0  2.18002  0
O  O168  1  0.63920863  0.28365644  0.73534502  1  -1.15875  0  -0.343841  -0.55459  0  2.180048  0
O  O169  1  0.63920247  0.71634404  0.26465185  1  -1.158931  0  -0.343827  -0.554561  0  2.180096  0
O  O170  1  0.32758502  0.70994916  0.87396079  1  -1.192173  0  -0.341319  -0.579175  0  2.163345  0
O  O171  1  0.32758937  0.29005661  0.12603971  1  -1.192286  0  -0.341304  -0.579207  0  2.16336  0
O  O172  1  0.67241056  0.20994715  0.62604543  1  -1.192382  0  -0.341366  -0.579198  0  2.163232  0
O  O173  1  0.67241616  0.79004810  0.37395314  1  -1.192264  0  -0.341342  -0.579154  0  2.163186  0
O  O174  1  0.72502670  0.81977515  0.04669553  1  -1.163994  0  -0.372142  -0.481823  0  2.317743  0
O  O175  1  0.72502801  0.18022400  0.95330528  1  -1.164016  0  -0.372164  -0.481816  0  2.317812  0
O  O176  1  0.27497332  0.31977926  0.45330651  1  -1.163872  0  -0.372225  -0.481806  0  2.317883  0
O  O177  1  0.27497637  0.68022522  0.54669402  1  -1.163954  0  -0.372124  -0.481767  0  2.317753  0
O  O178  1  0.37377022  0.08524881  0.54086286  1  -1.07672  0  -0.161111  -0.1795  0  2.57236  0
O  O179  1  0.37376894  0.91475043  0.45913761  1  -1.076561  0  -0.161057  -0.179396  0  2.572253  0
O  O180  1  0.62623094  0.58524965  0.95913741  1  -1.07656  0  -0.161074  -0.179422  0  2.572243  0
O  O181  1  0.62622773  0.41475018  0.04086461  1  -1.076643  0  -0.161077  -0.179522  0  2.572205  0
O  O182  1  0.76872663  0.05286532  0.41686875  1  -1.086015  0  -0.161279  -0.169358  0  2.549637  0
O  O183  1  0.76872941  0.94713578  0.58312975  1  -1.08601  0  -0.161304  -0.169428  0  2.549489  0
O  O184  1  0.23127248  0.55286273  0.08313110  1  -1.086081  0  -0.161308  -0.169403  0  2.549585  0
O  O185  1  0.23127150  0.44713198  0.91686889  1  -1.085921  0  -0.161251  -0.169378  0  2.549588  0
