# generated using pymatgen
data_Cd2H24C32N2O13
_symmetry_space_group_name_H-M   'P 1'
_cell_length_a   13.11895404
_cell_length_b   15.37333620
_cell_length_c   19.17388425
_cell_angle_alpha   101.44891360
_cell_angle_beta   89.99961400
_cell_angle_gamma   89.99968185
_symmetry_Int_Tables_number   1
_chemical_formula_structural   Cd2H24C32N2O13
_chemical_formula_sum   'Cd8 H96 C128 N8 O52'
_cell_volume   3790.08322068
_cell_formula_units_Z   4
loop_
 _symmetry_equiv_pos_site_id
 _symmetry_equiv_pos_as_xyz
  1  'x, y, z'
loop_
 _atom_site_type_symbol
 _atom_site_label
 _atom_site_symmetry_multiplicity
 _atom_site_fract_x
 _atom_site_fract_y
 _atom_site_fract_z
 _atom_site_occupancy
 _atom_site_pbe_bader_charge
 _atom_site_pbe_bader_spin_density
 _atom_site_pbe_cm5_charge
 _atom_site_pbe_ddec_charge
 _atom_site_pbe_ddec_spin_density
 _atom_site_pbe_ddec_sum_bond_order
 _atom_site_pbe_magmom
Cd  Cd0  1  0.66050067  0.77789092  0.60383680  1  1.401383  0  0.807653  1.129319  0  2.042839  0
Cd  Cd1  1  0.16050314  0.22210535  0.89616158  1  1.401437  0  0.807659  1.129408  0  2.042803  0
Cd  Cd2  1  0.33950459  0.22210934  0.39616329  1  1.401513  0  0.807628  1.129305  0  2.042703  0
Cd  Cd3  1  0.83949526  0.77789352  0.10383570  1  1.401472  0  0.80764  1.129328  0  2.04278  0
Cd  Cd4  1  0.79771523  0.74709562  0.75715154  1  1.290554  0  0.758008  0.968729  0  2.161205  0
Cd  Cd5  1  0.29771213  0.25290241  0.74284383  1  1.290745  0  0.757977  0.968712  0  2.161242  0
Cd  Cd6  1  0.20228317  0.25289792  0.24284392  1  1.290531  0  0.758002  0.968734  0  2.161194  0
Cd  Cd7  1  0.70228170  0.74710381  0.25715713  1  1.290455  0  0.758032  0.968784  0  2.161201  0
H  H8  1  0.73096712  0.85905850  0.45332802  1  0.644197  0  0.301164  0.402318  0  0.915477  0
H  H9  1  0.23096970  0.14093184  0.04667385  1  0.644544  0  0.301088  0.402241  0  0.915605  0
H  H10  1  0.26902214  0.14093056  0.54667409  1  0.644461  0  0.301152  0.40236  0  0.915461  0
H  H11  1  0.76903708  0.85906801  0.95333766  1  0.644777  0  0.301142  0.40231  0  0.915523  0
H  H12  1  0.66417868  0.77343953  0.42447961  1  0.675158  0  0.293942  0.406216  0  0.925208  0
H  H13  1  0.16418576  0.22655646  0.07552079  1  0.675169  0  0.29394  0.406271  0  0.925133  0
H  H14  1  0.33580905  0.22655077  0.57551903  1  0.675207  0  0.293883  0.406115  0  0.925393  0
H  H15  1  0.83581798  0.77344461  0.92448620  1  0.675239  0  0.293959  0.406163  0  0.925296  0
H  H16  1  0.54695222  0.49026012  0.74861833  1  0.158842  0  0.112171  0.12245  0  1.003087  0
H  H17  1  0.04696183  0.50974100  0.75138964  1  0.158976  0  0.11222  0.122494  0  1.003073  0
H  H18  1  0.45304084  0.50973213  0.25137904  1  0.158817  0  0.112164  0.122448  0  1.003005  0
H  H19  1  0.95303810  0.49026399  0.24861531  1  0.158935  0  0.112199  0.122496  0  1.003074  0
H  H20  1  0.67646405  0.54954340  0.55753066  1  0.124116  0  0.10697  0.124432  0  1.048524  0
H  H21  1  0.17648057  0.45046297  0.94248006  1  0.124193  0  0.106896  0.124405  0  1.048353  0
H  H22  1  0.32353054  0.45045625  0.44247195  1  0.123977  0  0.106928  0.124442  0  1.048453  0
H  H23  1  0.82353613  0.54954600  0.05752495  1  0.124136  0  0.106957  0.124421  0  1.048551  0
H  H24  1  0.49253023  0.31340202  0.54891570  1  0.17917  0  0.111305  0.132956  0  1.042605  0
H  H25  1  0.99253261  0.68660296  0.95108758  1  0.178888  0  0.111322  0.132932  0  1.042612  0
H  H26  1  0.50746969  0.68659421  0.45108224  1  0.179054  0  0.111329  0.133016  0  1.042533  0
H  H27  1  0.00747341  0.31340195  0.04891371  1  0.179236  0  0.111342  0.132993  0  1.042575  0
H  H28  1  0.75140452  0.45463148  0.45482155  1  0.070747  0  0.122119  0.118053  0  0.939241  0
H  H29  1  0.25140827  0.54538333  0.04518586  1  0.070899  0  0.122139  0.118036  0  0.939361  0
H  H30  1  0.24859845  0.54536807  0.54517635  1  0.070758  0  0.122125  0.118029  0  0.939297  0
H  H31  1  0.74860918  0.45463089  0.95481782  1  0.070985  0  0.122091  0.118036  0  0.939293  0
H  H32  1  0.65078884  0.52785359  0.44350123  1  0.093833  0  0.120478  0.122212  0  0.9713  0
H  H33  1  0.15079297  0.47214981  0.05650135  1  0.093971  0  0.120422  0.122172  0  0.971194  0
H  H34  1  0.34920956  0.47214605  0.55650085  1  0.093813  0  0.120501  0.122271  0  0.971274  0
H  H35  1  0.84921992  0.52785836  0.94349781  1  0.093624  0  0.120464  0.122195  0  0.971468  0
H  H36  1  0.51698343  0.23809421  0.27977282  1  0.105401  0  0.101744  0.101193  0  1.053124  0
H  H37  1  0.01696805  0.76190484  0.22023655  1  0.105625  0  0.101792  0.101193  0  1.053037  0
H  H38  1  0.48302412  0.76190271  0.72022627  1  0.105473  0  0.101757  0.101236  0  1.053112  0
H  H39  1  0.98302502  0.23809552  0.77976825  1  0.105715  0  0.101771  0.101199  0  1.053138  0
H  H40  1  0.59949194  0.27476672  0.17132313  1  0.066408  0  0.095309  0.089198  0  1.02386  0
H  H41  1  0.09948260  0.72523107  0.32868149  1  0.066616  0  0.095337  0.089196  0  1.023886  0
H  H42  1  0.40051103  0.72522884  0.82867419  1  0.066381  0  0.095342  0.089225  0  1.023873  0
H  H43  1  0.90050284  0.27476468  0.67132421  1  0.06655  0  0.095314  0.089206  0  1.0239  0
H  H44  1  0.72245554  0.39992408  0.18321803  1  0.07589  0  0.100719  0.096767  0  1.007442  0
H  H45  1  0.22244791  0.60007637  0.31679004  1  0.076041  0  0.100782  0.096735  0  1.007516  0
H  H46  1  0.27754591  0.60007160  0.81678453  1  0.075806  0  0.100707  0.096698  0  1.007519  0
H  H47  1  0.77754439  0.39992265  0.68321404  1  0.075838  0  0.100701  0.096699  0  1.007499  0
H  H48  1  0.76476216  0.49129124  0.30109222  1  0.1299  0  0.106845  0.128816  0  1.026323  0
H  H49  1  0.26475398  0.50871551  0.19891343  1  0.129741  0  0.106872  0.128835  0  1.026415  0
H  H50  1  0.23523929  0.50870703  0.69890810  1  0.129896  0  0.106874  0.128898  0  1.026422  0
H  H51  1  0.73524594  0.49129210  0.80109033  1  0.129531  0  0.106838  0.128798  0  1.026457  0
H  H52  1  0.00406505  0.99400943  0.74984435  1  0.133337  0  0.108114  0.117527  0  1.007851  0
H  H53  1  0.50406396  0.00598297  0.75014638  1  0.133259  0  0.108125  0.117554  0  1.007742  0
H  H54  1  0.99593563  0.00598882  0.25015493  1  0.133342  0  0.108121  0.117537  0  1.007768  0
H  H55  1  0.49593673  0.99401121  0.24984813  1  0.133286  0  0.108124  0.117564  0  1.007728  0
H  H56  1  0.82163133  0.94092487  0.56061887  1  0.136625  0  0.104722  0.110085  0  1.083575  0
H  H57  1  0.32162988  0.05908020  0.93937219  1  0.136478  0  0.104765  0.110113  0  1.083574  0
H  H58  1  0.17836555  0.05907471  0.43938060  1  0.136663  0  0.104727  0.110072  0  1.083602  0
H  H59  1  0.67836700  0.94092185  0.06061929  1  0.136583  0  0.104739  0.110048  0  1.083632  0
H  H60  1  0.03187182  0.16223082  0.59725464  1  0.103597  0  0.110267  0.11973  0  1.02246  0
H  H61  1  0.53186224  0.83776548  0.90274017  1  0.104275  0  0.110285  0.119807  0  1.022497  0
H  H62  1  0.96812353  0.83776752  0.40274830  1  0.103503  0  0.110305  0.119798  0  1.022355  0
H  H63  1  0.46813388  0.16223262  0.09725230  1  0.103803  0  0.110274  0.119774  0  1.022483  0
H  H64  1  0.01297995  0.14588996  0.47586941  1  0.066639  0  0.115076  0.112062  0  0.989323  0
H  H65  1  0.51297623  0.85410741  0.02412304  1  0.066752  0  0.115061  0.111907  0  0.989228  0
H  H66  1  0.98701769  0.85411106  0.52413548  1  0.066634  0  0.11507  0.112038  0  0.989317  0
H  H67  1  0.48702293  0.14589406  0.97587253  1  0.066753  0  0.115067  0.111999  0  0.989189  0
H  H68  1  0.92093220  0.22090412  0.52247365  1  0.070061  0  0.116965  0.10735  0  0.950406  0
H  H69  1  0.42093630  0.77909379  0.97751955  1  0.069955  0  0.116937  0.107319  0  0.950498  0
H  H70  1  0.07906925  0.77909280  0.47752544  1  0.070015  0  0.116922  0.107277  0  0.950413  0
H  H71  1  0.57905981  0.22091037  0.02247745  1  0.06985  0  0.116938  0.107336  0  0.950425  0
H  H72  1  0.68566120  0.02153963  0.33494065  1  0.122617  0  0.110089  0.120622  0  0.995923  0
H  H73  1  0.18565864  0.97845681  0.16505553  1  0.12264  0  0.110072  0.120596  0  0.996012  0
H  H74  1  0.31434483  0.97846057  0.66505682  1  0.122559  0  0.110146  0.120679  0  0.995797  0
H  H75  1  0.81433594  0.02154794  0.83493843  1  0.122742  0  0.110055  0.12056  0  0.995965  0
H  H76  1  0.71269016  0.11585116  0.24386734  1  0.100636  0  0.09711  0.096147  0  1.022977  0
H  H77  1  0.21269039  0.88415451  0.25613476  1  0.100662  0  0.097152  0.096167  0  1.022944  0
H  H78  1  0.28731434  0.88415711  0.75613600  1  0.100528  0  0.097109  0.096145  0  1.022938  0
H  H79  1  0.78731106  0.11585221  0.74385845  1  0.101014  0  0.097106  0.09614  0  1.022902  0
H  H80  1  0.84356901  0.23485758  0.26283871  1  0.057171  0  0.104953  0.103415  0  0.994182  0
H  H81  1  0.34357174  0.76514790  0.23716013  1  0.057254  0  0.104941  0.103391  0  0.9942  0
H  H82  1  0.15643244  0.76514943  0.73716758  1  0.057197  0  0.104983  0.103422  0  0.994107  0
H  H83  1  0.65642895  0.23485899  0.76284092  1  0.057179  0  0.104918  0.103359  0  0.994191  0
H  H84  1  0.95120731  0.26232970  0.37109931  1  0.098578  0  0.107168  0.117918  0  0.986871  0
H  H85  1  0.45120365  0.73767444  0.12889830  1  0.098738  0  0.107184  0.117961  0  0.986965  0
H  H86  1  0.04879719  0.73768059  0.62890589  1  0.098741  0  0.107236  0.118087  0  0.986881  0
H  H87  1  0.54879094  0.26233105  0.87109942  1  0.098572  0  0.107177  0.117934  0  0.986921  0
H  H88  1  0.82303553  0.68268436  0.55246925  1  0.615233  0  0.313501  0.403886  0  0.883808  0
H  H89  1  0.32303840  0.31730759  0.94752720  1  0.614984  0  0.313552  0.403937  0  0.883702  0
H  H90  1  0.17696287  0.31730196  0.44752881  1  0.615019  0  0.313561  0.403909  0  0.883747  0
H  H91  1  0.67696381  0.68268813  0.05247693  1  0.614996  0  0.313486  0.403875  0  0.88372  0
H  H92  1  0.76685517  0.71677931  0.49018454  1  0.660042  0  0.28881  0.391583  0  0.939913  0
H  H93  1  0.26685490  0.28321604  0.00981476  1  0.65999  0  0.288807  0.391657  0  0.939831  0
H  H94  1  0.23314704  0.28321234  0.50981534  1  0.660015  0  0.288783  0.391583  0  0.939935  0
H  H95  1  0.73314198  0.71678164  0.99018861  1  0.660066  0  0.288847  0.391622  0  0.939847  0
H  H96  1  0.61222323  0.95344535  0.63386590  1  0.655203  0  0.319353  0.410022  0  0.880011  0
H  H97  1  0.11222257  0.04654863  0.86613550  1  0.655174  0  0.319373  0.409991  0  0.880041  0
H  H98  1  0.38777060  0.04655034  0.36613718  1  0.655214  0  0.319399  0.410039  0  0.879979  0
H  H99  1  0.88777202  0.95344389  0.13387338  1  0.654878  0  0.31931  0.409946  0  0.880012  0
H  H100  1  0.64974492  0.94709313  0.55414935  1  0.63942  0  0.3109  0.406158  0  0.903261  0
H  H101  1  0.14974878  0.05290657  0.94585166  1  0.639394  0  0.310897  0.406155  0  0.903275  0
H  H102  1  0.35024814  0.05291448  0.44585442  1  0.639369  0  0.310905  0.406162  0  0.903279  0
H  H103  1  0.85025419  0.94709783  0.05415633  1  0.63953  0  0.310933  0.406191  0  0.903203  0
C  C104  1  0.66898315  0.60616437  0.69936540  1  1.549631  0  0.202628  0.580907  0  4.190871  0
C  C105  1  0.16898771  0.39383799  0.80064165  1  1.549764  0  0.202558  0.580795  0  4.190925  0
C  C106  1  0.33101220  0.39383388  0.30063388  1  1.549729  0  0.202595  0.580907  0  4.19073  0
C  C107  1  0.83101298  0.60616695  0.19936121  1  1.549716  0  0.20254  0.580792  0  4.191175  0
C  C108  1  0.44529247  0.34157902  0.68778573  1  1.535021  0  0.19851  0.572707  0  4.208812  0
C  C109  1  0.94529791  0.65842231  0.81221880  1  1.534761  0  0.198421  0.572652  0  4.209009  0
C  C110  1  0.55470365  0.65841259  0.31221206  1  1.534524  0  0.198472  0.572631  0  4.209108  0
C  C111  1  0.05470354  0.34158337  0.18778729  1  1.534449  0  0.198469  0.572702  0  4.209033  0
C  C112  1  0.55845881  0.47291426  0.69135045  1  -0.026602  0  -0.074232  -0.115844  0  3.946126  0
C  C113  1  0.05846394  0.52708545  0.80865621  1  -0.020114  0  -0.074223  -0.115791  0  3.946072  0
C  C114  1  0.44153578  0.52708071  0.30864992  1  -0.026689  0  -0.074144  -0.115681  0  3.945982  0
C  C115  1  0.94153980  0.47291952  0.19134769  1  -0.026582  0  -0.074194  -0.115831  0  3.945972  0
C  C116  1  0.61717614  0.52680302  0.65642240  1  -0.027829  0  -0.018927  -0.022166  0  4.009824  0
C  C117  1  0.11718356  0.47320161  0.84358366  1  -0.027829  0  -0.018952  -0.022214  0  4.00995  0
C  C118  1  0.38281845  0.47319663  0.34358021  1  -0.027903  0  -0.018982  -0.02231  0  4.010106  0
C  C119  1  0.88282246  0.52680530  0.15641844  1  -0.027713  0  -0.018952  -0.022166  0  4.009887  0
C  C120  1  0.63088422  0.50509506  0.58260532  1  -0.025606  0  -0.089395  -0.197467  0  3.918897  0
C  C121  1  0.13089612  0.49491081  0.91740033  1  -0.025702  0  -0.089375  -0.197431  0  3.918773  0
C  C122  1  0.36911342  0.49490322  0.41739501  1  -0.025631  0  -0.089354  -0.197499  0  3.919052  0
C  C123  1  0.86911296  0.50509543  0.08260115  1  -0.025903  0  -0.089383  -0.197491  0  3.91898  0
C  C124  1  0.58675996  0.42745188  0.54297549  1  0.263793  0  0.093207  0.186987  0  4.02275  0
C  C125  1  0.08677096  0.57255353  0.95702769  1  0.263811  0  0.093324  0.187022  0  4.022634  0
C  C126  1  0.41323692  0.57254308  0.45702435  1  0.263811  0  0.093177  0.186988  0  4.022879  0
C  C127  1  0.91324192  0.42745274  0.04297536  1  0.263965  0  0.09325  0.187093  0  4.022532  0
C  C128  1  0.52750524  0.37348970  0.57820011  1  -0.056751  0  -0.086772  -0.184672  0  3.916951  0
C  C129  1  0.02750632  0.62651343  0.92180354  1  -0.056457  0  -0.086875  -0.184708  0  3.916673  0
C  C130  1  0.47249087  0.62650658  0.42179992  1  -0.0565  0  -0.086852  -0.18479  0  3.916859  0
C  C131  1  0.97249970  0.37348892  0.07820155  1  -0.056817  0  -0.086857  -0.184812  0  3.91681  0
C  C132  1  0.51303948  0.39702816  0.65173499  1  0.027185  0  -0.016744  -0.01626  0  4.011762  0
C  C133  1  0.01303914  0.60297706  0.84826955  1  0.020266  0  -0.016647  -0.016231  0  4.011606  0
C  C134  1  0.48695816  0.60296480  0.34826456  1  0.027282  0  -0.016641  -0.016191  0  4.011692  0
C  C135  1  0.98696612  0.39703193  0.15173650  1  0.027144  0  -0.016643  -0.016132  0  4.011723  0
C  C136  1  0.55536810  0.33985108  0.42027644  1  1.321305  0  0.247094  0.444845  0  4.078509  0
C  C137  1  0.05536542  0.66015422  0.07972687  1  1.321317  0  0.247168  0.444939  0  4.078391  0
C  C138  1  0.44463335  0.66014915  0.57972260  1  1.321855  0  0.247119  0.444844  0  4.078453  0
C  C139  1  0.94463984  0.33985206  0.92027670  1  1.321652  0  0.247063  0.444934  0  4.078259  0
C  C140  1  0.67372464  0.45761111  0.43365799  1  0.296028  0  -0.04331  -0.112559  0  3.91143  0
C  C141  1  0.17373202  0.54239426  0.06634999  1  0.29563  0  -0.043186  -0.112383  0  3.911206  0
C  C142  1  0.32627452  0.54238791  0.56634609  1  0.295998  0  -0.043389  -0.112676  0  3.911551  0
C  C143  1  0.82628544  0.45761933  0.93365465  1  0.29612  0  -0.043273  -0.112448  0  3.911472  0
C  C144  1  0.66508880  0.41452072  0.35670633  1  -0.07261  0  0.00173  0.084623  0  3.976593  0
C  C145  1  0.16508142  0.58547999  0.14329840  1  -0.072504  0  0.001681  0.084416  0  3.976641  0
C  C146  1  0.33491418  0.58547165  0.64329626  1  -0.072412  0  0.001733  0.084594  0  3.976523  0
C  C147  1  0.83491927  0.41452361  0.85670375  1  -0.072409  0  0.001805  0.084576  0  3.976709  0
C  C148  1  0.59518410  0.34458971  0.34972482  1  -0.003478  0  -0.020651  -0.100032  0  4.056088  0
C  C149  1  0.09518001  0.65541467  0.15027712  1  -0.003922  0  -0.02065  -0.099971  0  4.055893  0
C  C150  1  0.40482040  0.65541053  0.65027422  1  -0.003771  0  -0.020577  -0.099975  0  4.055857  0
C  C151  1  0.90481916  0.34459028  0.84972573  1  -0.003954  0  -0.020637  -0.100138  0  4.056173  0
C  C152  1  0.57061479  0.29279662  0.28364453  1  -0.082172  0  -0.080889  -0.076684  0  3.963819  0
C  C153  1  0.07060362  0.70720398  0.21635959  1  -0.082038  0  -0.080919  -0.076639  0  3.963384  0
C  C154  1  0.42939351  0.70720299  0.71635651  1  -0.081844  0  -0.080938  -0.076787  0  3.963725  0
C  C155  1  0.92939402  0.29280030  0.78364317  1  -0.082172  0  -0.080944  -0.076684  0  3.9637  0
C  C156  1  0.61749375  0.31370325  0.22383185  1  -0.025222  0  -0.087327  -0.084191  0  3.994264  0
C  C157  1  0.11748976  0.68629380  0.27617361  1  -0.025744  0  -0.087337  -0.084243  0  3.994239  0
C  C158  1  0.38250541  0.68629369  0.77616775  1  -0.025368  0  -0.087312  -0.084116  0  3.994233  0
C  C159  1  0.88250635  0.31370655  0.72383066  1  -0.025514  0  -0.087317  -0.084217  0  3.994303  0
C  C160  1  0.68704705  0.38421323  0.23067478  1  -0.084169  0  -0.077139  -0.054422  0  3.968889  0
C  C161  1  0.18703673  0.61578544  0.26933320  1  -0.084146  0  -0.07724  -0.054372  0  3.96913  0
C  C162  1  0.31295668  0.61578577  0.76932826  1  -0.083985  0  -0.077159  -0.054395  0  3.969058  0
C  C163  1  0.81295710  0.38421428  0.73067255  1  -0.083991  0  -0.0771  -0.054316  0  3.969013  0
C  C164  1  0.71212935  0.43556921  0.29726376  1  0.056599  0  -0.081492  -0.124233  0  3.928913  0
C  C165  1  0.21211849  0.56443252  0.20273985  1  0.056644  0  -0.081521  -0.124193  0  3.929154  0
C  C166  1  0.28786905  0.56442580  0.70273817  1  0.056402  0  -0.081527  -0.124334  0  3.929204  0
C  C167  1  0.78787458  0.43556983  0.79726524  1  0.056829  0  -0.081572  -0.124232  0  3.929065  0
C  C168  1  0.86798756  0.87832380  0.67727861  1  1.541621  0  0.20471  0.585985  0  4.216715  0
C  C169  1  0.36799064  0.12167172  0.82271188  1  1.541208  0  0.204972  0.586388  0  4.216494  0
C  C170  1  0.13201008  0.12167245  0.32271985  1  1.54153  0  0.204834  0.586277  0  4.216596  0
C  C171  1  0.63201157  0.87832375  0.17728125  1  1.541752  0  0.204811  0.586217  0  4.216765  0
C  C172  1  0.11046219  0.13398420  0.71862588  1  1.559936  0  0.208937  0.592285  0  4.215279  0
C  C173  1  0.61045742  0.86600627  0.78136615  1  1.559574  0  0.208952  0.592115  0  4.214991  0
C  C174  1  0.88953011  0.86601886  0.28138140  1  1.559826  0  0.208913  0.592279  0  4.215565  0
C  C175  1  0.38954327  0.13398517  0.21862431  1  1.559544  0  0.20897  0.592373  0  4.215193  0
C  C176  1  0.02523930  0.08311217  0.67684484  1  0.027681  0  -0.017644  -0.019137  0  3.996295  0
C  C177  1  0.52523607  0.91687869  0.82314192  1  0.026524  0  -0.017607  -0.019054  0  3.996222  0
C  C178  1  0.97475605  0.91688603  0.32315182  1  0.027376  0  -0.017713  -0.01921  0  3.996406  0
C  C179  1  0.47476233  0.08311745  0.17685184  1  0.027423  0  -0.017627  -0.019147  0  3.996397  0
C  C180  1  0.98059608  0.01187906  0.70017723  1  -0.026813  0  -0.079146  -0.116723  0  3.946777  0
C  C181  1  0.48059215  0.98811381  0.79981391  1  -0.026214  0  -0.079092  -0.116663  0  3.946644  0
C  C182  1  0.01940614  0.98811521  0.29982147  1  -0.028348  0  -0.07908  -0.116595  0  3.94652  0
C  C183  1  0.51941159  0.01188433  0.20018066  1  -0.028274  0  -0.079042  -0.116659  0  3.946611  0
C  C184  1  0.90875283  0.96040628  0.65683508  1  -0.02976  0  -0.019271  -0.018203  0  4.011525  0
C  C185  1  0.40874787  0.03959300  0.84315681  1  -0.029381  0  -0.019384  -0.018552  0  4.012063  0
C  C186  1  0.09125014  0.03959796  0.34316559  1  -0.02802  0  -0.019386  -0.018556  0  4.011737  0
C  C187  1  0.59125587  0.96040245  0.15683528  1  -0.028039  0  -0.019317  -0.018373  0  4.011868  0
C  C188  1  0.87644561  0.98304703  0.59347615  1  -0.01719  0  -0.094543  -0.20169  0  3.952049  0
C  C189  1  0.37644095  0.01695308  0.90651497  1  -0.016156  0  -0.094531  -0.201556  0  3.952079  0
C  C190  1  0.12355431  0.01695189  0.40652374  1  -0.017153  0  -0.094447  -0.201446  0  3.951891  0
C  C191  1  0.62355441  0.98304232  0.09347502  1  -0.01713  0  -0.094555  -0.20151  0  3.952135  0
C  C192  1  0.91571027  0.05876348  0.57219526  1  0.316135  0  0.094744  0.192694  0  4.029021  0
C  C193  1  0.41570160  0.94123239  0.92779401  1  0.315045  0  0.094673  0.192779  0  4.028874  0
C  C194  1  0.08429270  0.94123142  0.42780196  1  0.316082  0  0.094662  0.192704  0  4.029112  0
C  C195  1  0.58429680  0.05876633  0.07219646  1  0.31604  0  0.094676  0.192601  0  4.029152  0
C  C196  1  0.99334720  0.10672442  0.61340512  1  -0.061569  0  -0.088601  -0.196475  0  3.931633  0
C  C197  1  0.49334534  0.89327037  0.88658625  1  -0.061656  0  -0.088582  -0.196572  0  3.931567  0
C  C198  1  0.00664739  0.89327380  0.38659259  1  -0.061385  0  -0.088595  -0.196606  0  3.931636  0
C  C199  1  0.50665611  0.10672914  0.11341008  1  -0.061638  0  -0.08859  -0.196535  0  3.93173  0
C  C200  1  0.93068870  0.15810273  0.48370963  1  0.291269  0  -0.046098  -0.108663  0  3.931292  0
C  C201  1  0.43068011  0.84189950  0.01628571  1  0.291396  0  -0.046115  -0.10856  0  3.931349  0
C  C202  1  0.06931275  0.84189754  0.51629150  1  0.291101  0  -0.046054  -0.108522  0  3.931264  0
C  C203  1  0.56931829  0.15810138  0.98371291  1  0.291272  0  -0.046116  -0.108698  0  3.931422  0
C  C204  1  0.87673199  0.15848470  0.41484422  1  -0.052587  0  -0.004036  0.073593  0  3.986369  0
C  C205  1  0.37672731  0.84151650  0.08514967  1  -0.05232  0  -0.00386  0.073818  0  3.986773  0
C  C206  1  0.12327098  0.84151890  0.58515740  1  -0.052272  0  -0.004038  0.073688  0  3.986492  0
C  C207  1  0.62326957  0.15848701  0.91484829  1  -0.05242  0  -0.003916  0.073852  0  3.986663  0
C  C208  1  0.80292669  0.04668550  0.46515161  1  1.315629  0  0.244127  0.441403  0  4.087734  0
C  C209  1  0.30291642  0.95331343  0.03483969  1  1.315255  0  0.243939  0.441242  0  4.088045  0
C  C210  1  0.19707324  0.95330999  0.53484257  1  1.315626  0  0.244048  0.44131  0  4.087832  0
C  C211  1  0.69708045  0.04668933  0.96515398  1  1.315536  0  0.244156  0.44163  0  4.087288  0
C  C212  1  0.80217296  0.09202683  0.40430193  1  -0.026547  0  -0.019237  -0.089133  0  4.025136  0
C  C213  1  0.30216545  0.90797278  0.09568999  1  -0.026549  0  -0.019299  -0.089175  0  4.02522  0
C  C214  1  0.19783077  0.90797341  0.59569763  1  -0.026676  0  -0.019183  -0.089038  0  4.025024  0
C  C215  1  0.69783219  0.09203323  0.90430155  1  -0.026483  0  -0.019226  -0.089185  0  4.025101  0
C  C216  1  0.74201608  0.07478876  0.34301931  1  -0.05215  0  -0.070637  -0.06292  0  3.926321  0
C  C217  1  0.24201244  0.92521128  0.15697557  1  -0.052134  0  -0.070591  -0.062866  0  3.926301  0
C  C218  1  0.25798765  0.92521473  0.65697760  1  -0.052356  0  -0.07068  -0.063019  0  3.926238  0
C  C219  1  0.75798673  0.07479875  0.84301811  1  -0.052096  0  -0.070659  -0.062891  0  3.926366  0
C  C220  1  0.75839475  0.12713065  0.29228618  1  -0.05728  0  -0.091325  -0.093814  0  3.993924  0
C  C221  1  0.25839019  0.87286399  0.20770836  1  -0.057178  0  -0.091243  -0.093714  0  3.993885  0
C  C222  1  0.24161508  0.87287287  0.70771230  1  -0.057141  0  -0.09135  -0.093837  0  3.993819  0
C  C223  1  0.74160745  0.12714273  0.79228485  1  -0.057609  0  -0.091252  -0.093793  0  3.99389  0
C  C224  1  0.83237294  0.19444352  0.30296629  1  0.02837  0  -0.076845  -0.053865  0  3.976127  0
C  C225  1  0.33237350  0.80555661  0.19702713  1  0.027757  0  -0.076953  -0.054013  0  3.976661  0
C  C226  1  0.16763004  0.80555943  0.69703576  1  0.028454  0  -0.076813  -0.053729  0  3.976047  0
C  C227  1  0.66761880  0.19444823  0.80297102  1  0.027639  0  -0.076919  -0.053861  0  3.976545  0
C  C228  1  0.89270133  0.21088428  0.36441420  1  -0.07012  0  -0.087272  -0.13218  0  3.966442  0
C  C229  1  0.39270336  0.78911882  0.13558041  1  -0.069756  0  -0.087291  -0.132185  0  3.967049  0
C  C230  1  0.10730317  0.78912198  0.63558833  1  -0.070118  0  -0.08743  -0.132582  0  3.966871  0
C  C231  1  0.60729123  0.21088472  0.86441859  1  -0.069656  0  -0.087261  -0.132258  0  3.966858  0
N  N232  1  0.60314737  0.40567071  0.46887183  1  -1.183132  0  -0.241663  -0.11937  0  3.612519  0
N  N233  1  0.10315246  0.59433165  0.03113083  1  -1.182666  0  -0.241777  -0.119488  0  3.612401  0
N  N234  1  0.39685027  0.59432557  0.53112820  1  -1.183021  0  -0.241612  -0.11923  0  3.61233  0
N  N235  1  0.89686119  0.40567656  0.96886990  1  -1.183308  0  -0.241644  -0.119406  0  3.612306  0
N  N236  1  0.88183050  0.08477598  0.50983441  1  -1.16608  0  -0.248406  -0.13107  0  3.610891  0
N  N237  1  0.38182063  0.91522545  0.99015792  1  -1.165862  0  -0.248393  -0.131179  0  3.610925  0
N  N238  1  0.11817171  0.91522220  0.49016172  1  -1.16615  0  -0.248384  -0.13114  0  3.611108  0
N  N239  1  0.61817853  0.08477266  0.00983508  1  -1.165998  0  -0.248379  -0.13113  0  3.611182  0
O  O240  1  0.70370235  0.66580012  0.66567218  1  -1.176708  0  -0.353644  -0.631926  0  2.403487  0
O  O241  1  0.20370926  0.33419470  0.83433204  1  -1.176973  0  -0.353622  -0.631879  0  2.403332  0
O  O242  1  0.29629452  0.33419422  0.33432966  1  -1.176873  0  -0.353663  -0.631958  0  2.403155  0
O  O243  1  0.79628991  0.66580561  0.16567014  1  -1.176954  0  -0.353598  -0.631928  0  2.403408  0
O  O244  1  0.76361939  0.67175373  0.52135384  1  -1.237419  0  -0.579188  -0.746765  0  1.995046  0
O  O245  1  0.26361960  0.32823925  0.97864305  1  -1.237129  0  -0.579228  -0.746861  0  1.994961  0
O  O246  1  0.23637901  0.32823725  0.47864543  1  -1.237266  0  -0.579212  -0.746764  0  1.995017  0
O  O247  1  0.73637804  0.67175573  0.02135784  1  -1.237217  0  -0.579197  -0.746761  0  1.994962  0
O  O248  1  0.68242596  0.61173155  0.76473629  1  -1.159654  0  -0.307265  -0.518952  0  2.135949  0
O  O249  1  0.18242661  0.38827338  0.73527054  1  -1.159466  0  -0.307218  -0.518867  0  2.136041  0
O  O250  1  0.31757015  0.38826275  0.23526346  1  -1.159623  0  -0.307242  -0.518937  0  2.136006  0
O  O251  1  0.81757484  0.61173091  0.26473222  1  -1.159537  0  -0.307276  -0.518922  0  2.136148  0
O  O252  1  0.70779467  0.80291362  0.46482958  1  -1.29772  0  -0.584839  -0.788966  0  1.989278  0
O  O253  1  0.20780995  0.19708087  0.03517457  1  -1.29817  0  -0.58476  -0.788956  0  1.989311  0
O  O254  1  0.29218468  0.19707679  0.53517378  1  -1.298155  0  -0.584783  -0.788948  0  1.989142  0
O  O255  1  0.79220217  0.80292091  0.96483461  1  -1.298548  0  -0.584844  -0.788917  0  1.989385  0
O  O256  1  0.43861625  0.35744764  0.75494902  1  -1.147239  0  -0.33318  -0.549079  0  2.110592  0
O  O257  1  0.93862168  0.64254977  0.74505654  1  -1.146662  0  -0.333099  -0.549023  0  2.110721  0
O  O258  1  0.56138367  0.64254925  0.24504849  1  -1.146943  0  -0.333229  -0.5491  0  2.110567  0
O  O259  1  0.06137976  0.35745194  0.25494950  1  -1.146868  0  -0.33325  -0.549175  0  2.110549  0
O  O260  1  0.60883230  0.91790347  0.58569798  1  -1.231328  0  -0.567806  -0.739559  0  2.033845  0
O  O261  1  0.10883704  0.08209580  0.91430264  1  -1.231277  0  -0.567807  -0.739523  0  2.03392  0
O  O262  1  0.39116305  0.08209747  0.41430325  1  -1.231289  0  -0.567837  -0.739559  0  2.03387  0
O  O263  1  0.89116593  0.91790524  0.08570330  1  -1.23112  0  -0.567768  -0.739467  0  2.033865  0
O  O264  1  0.39282450  0.27983780  0.64835647  1  -1.18773  0  -0.332459  -0.573199  0  2.261416  0
O  O265  1  0.89282839  0.72016177  0.85164441  1  -1.187749  0  -0.332506  -0.573225  0  2.261385  0
O  O266  1  0.60716780  0.72015444  0.35164037  1  -1.187349  0  -0.33244  -0.573202  0  2.261671  0
O  O267  1  0.10716772  0.27983993  0.14836111  1  -1.187518  0  -0.332441  -0.573197  0  2.261584  0
O  O268  1  0.49013128  0.28731482  0.43606657  1  -1.168394  0  -0.2974  -0.498556  0  2.323591  0
O  O269  1  0.99012887  0.71269256  0.06393810  1  -1.168528  0  -0.29745  -0.498622  0  2.32361  0
O  O270  1  0.50987245  0.71268075  0.56393075  1  -1.169022  0  -0.297448  -0.498592  0  2.323604  0
O  O271  1  0.00987868  0.28731499  0.93606305  1  -1.168561  0  -0.297448  -0.498647  0  2.32358  0
O  O272  1  0.82893686  0.81857494  0.62836574  1  -1.206595  0  -0.353393  -0.64819  0  2.320465  0
O  O273  1  0.32893831  0.18142867  0.87162143  1  -1.206327  0  -0.353567  -0.648478  0  2.320381  0
O  O274  1  0.17105925  0.18141873  0.37163601  1  -1.206562  0  -0.353418  -0.648263  0  2.320201  0
O  O275  1  0.67106238  0.81856945  0.12837209  1  -1.206644  0  -0.353468  -0.648296  0  2.320447  0
O  O276  1  0.87668384  0.87212846  0.74198228  1  -1.135  0  -0.31603  -0.528378  0  2.237789  0
O  O277  1  0.37668904  0.12786499  0.75800683  1  -1.134927  0  -0.316108  -0.528477  0  2.237589  0
O  O278  1  0.12331532  0.12786642  0.25801390  1  -1.134888  0  -0.316094  -0.528503  0  2.237678  0
O  O279  1  0.62330708  0.87213043  0.24198421  1  -1.135022  0  -0.316056  -0.528471  0  2.237789  0
O  O280  1  0.11762404  0.13088912  0.78455159  1  -1.20122  0  -0.341957  -0.627213  0  2.279807  0
O  O281  1  0.61761988  0.86910787  0.71543823  1  -1.20114  0  -0.342016  -0.627175  0  2.279684  0
O  O282  1  0.88237055  0.86911060  0.21545416  1  -1.201189  0  -0.341979  -0.627306  0  2.279863  0
O  O283  1  0.38239071  0.13089085  0.28455225  1  -1.200935  0  -0.342074  -0.627352  0  2.279654  0
O  O284  1  0.16801711  0.17639632  0.68401576  1  -1.140921  0  -0.321839  -0.53732  0  2.275886  0
O  O285  1  0.66801380  0.82359508  0.81597405  1  -1.140705  0  -0.321826  -0.537201  0  2.275735  0
O  O286  1  0.83197138  0.82360994  0.31598677  1  -1.14088  0  -0.321779  -0.537189  0  2.276041  0
O  O287  1  0.33197926  0.17639374  0.18401760  1  -1.140795  0  -0.321806  -0.537274  0  2.27592  0
O  O288  1  0.74482135  0.98661915  0.47578218  1  -1.167529  0  -0.290539  -0.495305  0  2.20085  0
O  O289  1  0.24480365  0.01337890  0.02421344  1  -1.167724  0  -0.290414  -0.495209  0  2.200924  0
O  O290  1  0.25518086  0.01337781  0.52421847  1  -1.16734  0  -0.290471  -0.495245  0  2.20092  0
O  O291  1  0.75519246  0.98662386  0.97578023  1  -1.167442  0  -0.290563  -0.495459  0  2.20052  0
