# generated using pymatgen
data_ZnH25C30N5O6
_symmetry_space_group_name_H-M   'P 1'
_cell_length_a   9.07410208
_cell_length_b   10.01312510
_cell_length_c   16.28220000
_cell_angle_alpha   103.11452394
_cell_angle_beta   91.98797302
_cell_angle_gamma   101.07627775
_symmetry_Int_Tables_number   1
_chemical_formula_structural   ZnH25C30N5O6
_chemical_formula_sum   'Zn2 H50 C60 N10 O12'
_cell_volume   1409.22796826
_cell_formula_units_Z   2
loop_
 _symmetry_equiv_pos_site_id
 _symmetry_equiv_pos_as_xyz
  1  'x, y, z'
loop_
 _atom_site_type_symbol
 _atom_site_label
 _atom_site_symmetry_multiplicity
 _atom_site_fract_x
 _atom_site_fract_y
 _atom_site_fract_z
 _atom_site_occupancy
 _atom_site_hle17_bader_spin_density
 _atom_site_hle17_ddec_charge
 _atom_site_hle17_ddec_spin_density
 _atom_site_hle17_ddec_sum_bond_order
 _atom_site_hle17_magmom
 _atom_site_hse06_10hf_bader_spin_density
 _atom_site_hse06_10hf_ddec_charge
 _atom_site_hse06_10hf_ddec_spin_density
 _atom_site_hse06_10hf_ddec_sum_bond_order
 _atom_site_hse06_10hf_magmom
 _atom_site_hse06_bader_spin_density
 _atom_site_hse06_ddec_charge
 _atom_site_hse06_ddec_spin_density
 _atom_site_hse06_ddec_sum_bond_order
 _atom_site_hse06_magmom
 _atom_site_pbe_bader_charge
 _atom_site_pbe_bader_spin_density
 _atom_site_pbe_cm5_charge
 _atom_site_pbe_ddec_charge
 _atom_site_pbe_ddec_spin_density
 _atom_site_pbe_ddec_sum_bond_order
 _atom_site_pbe_magmom
Zn  Zn0  1  0.09156464  0.39934504  0.22572985  1  0  0.999199  0  1.876424  0  0  0.811402  0  2.350351  0  0  0.858473  0  2.295173  0  1.250612  0  0.689029  0.775206  0  2.391626  0
Zn  Zn1  1  0.90843477  0.60065369  0.77427353  1  0  0.999108  0  1.876482  0  0  0.811311  0  2.350378  0  0  0.85839  0  2.295199  0  1.250583  0  0.688965  0.775114  0  2.391654  0
H  H2  1  0.65191546  0.97736648  0.39472898  1  0  0.27854  0  0.930813  0  0  0.267375  0  0.990211  0  0  0.273357  0  0.986002  0  0.478881  0  0.29952  0.26295  0  0.993546  0
H  H3  1  0.34808238  0.02263016  0.60527530  1  0  0.278312  0  0.931071  0  0  0.267226  0  0.990347  0  0  0.27321  0  0.986135  0  0.478796  0  0.299405  0.262801  0  0.993683  0
H  H4  1  0.05929815  0.89283607  0.22215079  1  0  0.093891  0  0.984007  0  0  0.100329  0  1.055014  0  0  0.105171  0  1.050465  0  0.086102  0  0.094784  0.096714  0  1.05915  0
H  H5  1  0.94070653  0.10716162  0.77784456  1  0  0.093887  0  0.983968  0  0  0.100288  0  1.055017  0  0  0.105129  0  1.050468  0  0.086054  0  0.094783  0.096677  0  1.059146  0
H  H6  1  0.40742718  0.22342224  0.36423060  1  0  0.103536  0  0.974467  0  0  0.108311  0  1.047051  0  0  0.112891  0  1.043496  0  0.086361  0  0.097423  0.105057  0  1.049364  0
H  H7  1  0.59257443  0.77657649  0.63576790  1  0  0.10354  0  0.974454  0  0  0.108322  0  1.047036  0  0  0.112903  0  1.04348  0  0.086325  0  0.097413  0.105068  0  1.04935  0
H  H8  1  0.46394984  0.79322063  0.31697846  1  0  0.108968  0  0.991891  0  0  0.113209  0  1.066792  0  0  0.118173  0  1.06218  0  0.095773  0  0.097158  0.109813  0  1.069775  0
H  H9  1  0.53604358  0.20677601  0.68302696  1  0  0.109016  0  0.991938  0  0  0.113271  0  1.066818  0  0  0.118249  0  1.062189  0  0.095789  0  0.097156  0.109854  0  1.069823  0
H  H10  1  0.86649863  0.60341671  0.20981337  1  0  0.108797  0  0.954436  0  0  0.119115  0  1.013746  0  0  0.121734  0  1.01092  0  0.184665  0  0.138226  0.117051  0  1.015987  0
H  H11  1  0.13349705  0.39658517  0.79019405  1  0  0.108817  0  0.954431  0  0  0.119117  0  1.013765  0  0  0.121735  0  1.01094  0  0.184627  0  0.138246  0.117053  0  1.016006  0
H  H12  1  0.23977200  0.14697133  0.11833892  1  0  0.095135  0  0.949053  0  0  0.104489  0  1.014169  0  0  0.106391  0  1.012186  0  0.127387  0  0.135899  0.103089  0  1.015632  0
H  H13  1  0.76023674  0.85303474  0.88166443  1  0  0.095138  0  0.949095  0  0  0.104467  0  1.014241  0  0  0.106357  0  1.012299  0  0.127417  0  0.135892  0.103069  0  1.015699  0
H  H14  1  0.04339085  0.11622814  0.60870301  1  0  0.102635  0  0.942327  0  0  0.112302  0  1.002259  0  0  0.115363  0  1.000711  0  0.09309  0  0.106017  0.109455  0  1.004977  0
H  H15  1  0.95661406  0.88377059  0.39129556  1  0  0.102621  0  0.942349  0  0  0.112308  0  1.002258  0  0  0.115366  0  1.000715  0  0.093037  0  0.106014  0.10946  0  1.004977  0
H  H16  1  0.59660157  0.65277074  0.21203990  1  0  0.091814  0  0.908192  0  0  0.109899  0  0.965544  0  0  0.110446  0  0.96508  0  0.097877  0  0.117685  0.109378  0  0.965917  0
H  H17  1  0.40339870  0.34722695  0.78796212  1  0  0.091757  0  0.908203  0  0  0.109873  0  0.965516  0  0  0.110422  0  0.965047  0  0.097855  0  0.117657  0.109348  0  0.965888  0
H  H18  1  0.44270702  0.51563710  0.21171164  1  0  0.105536  0  0.929125  0  0  0.119483  0  0.99184  0  0  0.121026  0  0.990305  0  0.146458  0  0.118109  0.118126  0  0.993203  0
H  H19  1  0.55729325  0.48436058  0.78828730  1  0  0.105521  0  0.929155  0  0  0.119467  0  0.99187  0  0  0.121007  0  0.990339  0  0.146587  0  0.118079  0.118109  0  0.993233  0
H  H20  1  0.15690274  0.41303860  0.45406497  1  0  0.105844  0  0.940417  0  0  0.11691  0  0.997722  0  0  0.120055  0  0.995818  0  0.100643  0  0.10762  0.114409  0  0.999849  0
H  H21  1  0.84309690  0.58696118  0.54593364  1  0  0.105808  0  0.94043  0  0  0.116867  0  0.997742  0  0  0.120013  0  0.995837  0  0.100684  0  0.107608  0.114368  0  0.999868  0
H  H22  1  0.77845873  0.19366816  0.24712926  1  0  0.126107  0  0.961308  0  0  0.134829  0  1.01929  0  0  0.138157  0  1.01712  0  0.148415  0  0.121877  0.132494  0  1.020719  0
H  H23  1  0.22154393  0.80632533  0.75286424  1  0  0.12619  0  0.961216  0  0  0.134823  0  1.019308  0  0  0.138149  0  1.017138  0  0.148346  0  0.121875  0.132487  0  1.020738  0
H  H24  1  0.77516778  0.07191608  0.55506297  1  0  0.095319  0  0.966746  0  0  0.103509  0  1.031682  0  0  0.105018  0  1.033697  0  0.078914  0  0.099295  0.102447  0  1.030466  0
H  H25  1  0.22483621  0.92807846  0.44493684  1  0  0.095352  0  0.966771  0  0  0.103508  0  1.03175  0  0  0.105008  0  1.033792  0  0.07897  0  0.099343  0.102448  0  1.030531  0
H  H26  1  0.03606933  0.21247703  0.89615366  1  0  0.125855  0  0.978565  0  0  0.132895  0  1.044052  0  0  0.136471  0  1.04073  0  0.157087  0  0.121597  0.130158  0  1.04678  0
H  H27  1  0.96393175  0.78753427  0.10385088  1  0  0.125963  0  0.978491  0  0  0.132905  0  1.044086  0  0  0.13648  0  1.040764  0  0.157015  0  0.121591  0.130169  0  1.046813  0
H  H28  1  0.50333230  0.27113857  0.21816302  1  0  0.123154  0  0.953877  0  0  0.132385  0  1.015614  0  0  0.134944  0  1.014731  0  0.126504  0  0.124341  0.129897  0  1.017223  0
H  H29  1  0.49666879  0.72885282  0.78182831  1  0  0.123248  0  0.953894  0  0  0.132489  0  1.015593  0  0  0.135039  0  1.014722  0  0.126525  0  0.124413  0.130003  0  1.017207  0
H  H30  1  0.99010526  0.41274627  0.03550296  1  0  0.110357  0  0.953675  0  0  0.121273  0  1.01226  0  0  0.12374  0  1.011035  0  0.121672  0  0.121653  0.119643  0  1.013065  0
H  H31  1  0.00990018  0.58725980  0.96450155  1  0  0.110276  0  0.953697  0  0  0.12122  0  1.012256  0  0  0.123687  0  1.011032  0  0.121725  0  0.12164  0.11959  0  1.013061  0
H  H32  1  0.88941814  0.36690339  0.39986298  1  0  0.095553  0  0.960988  0  0  0.104006  0  1.026026  0  0  0.106628  0  1.025935  0  0.069318  0  0.101417  0.102128  0  1.026547  0
H  H33  1  0.11057703  0.63309116  0.60013727  1  0  0.095577  0  0.961005  0  0  0.104036  0  1.026022  0  0  0.106657  0  1.025931  0  0.069259  0  0.101405  0.102156  0  1.026545  0
H  H34  1  0.27624946  0.88271652  0.05966232  1  0  0.095043  0  0.953804  0  0  0.104634  0  1.017565  0  0  0.106604  0  1.018027  0  0.087131  0  0.100905  0.102624  0  1.018392  0
H  H35  1  0.72375086  0.11728641  0.94033613  1  0  0.09505  0  0.953867  0  0  0.104616  0  1.017649  0  0  0.106587  0  1.018108  0  0.086869  0  0.100913  0.102607  0  1.018478  0
H  H36  1  0.58126914  0.20608447  0.49664765  1  0  0.051598  0  0.917795  0  0  0.065937  0  0.984267  0  0  0.06649  0  0.983491  0  0.039882  0  0.094641  0.066465  0  0.983093  0
H  H37  1  0.41873398  0.79391112  0.50335597  1  0  0.051549  0  0.917713  0  0  0.065905  0  0.984215  0  0  0.066456  0  0.983429  0  0.039729  0  0.094615  0.066437  0  0.983036  0
H  H38  1  0.63797765  0.27421803  0.40831053  1  0  0.058224  0  0.944865  0  0  0.071626  0  1.013943  0  0  0.071943  0  1.013977  0  0.056012  0  0.101209  0.071471  0  1.013961  0
H  H39  1  0.36202152  0.72577966  0.59169269  1  0  0.058272  0  0.94494  0  0  0.071745  0  1.013954  0  0  0.072057  0  1.013982  0  0.05592  0  0.101253  0.071589  0  1.013973  0
H  H40  1  0.18995676  0.02399543  0.87575824  1  0  0.108699  0  0.909038  0  0  0.125443  0  0.96347  0  0  0.127133  0  0.961374  0  0.103843  0  0.122443  0.123756  0  0.965586  0
H  H41  1  0.81004032  0.97601274  0.12424333  1  0  0.10865  0  0.909096  0  0  0.125468  0  0.963468  0  0  0.127166  0  0.961364  0  0.103753  0  0.122445  0.123781  0  0.965583  0
H  H42  1  0.11608332  0.92623645  0.94781004  1  0  0.082956  0  0.955227  0  0  0.092372  0  1.026248  0  0  0.092319  0  1.027917  0  0.09551  0  0.108181  0.092649  0  1.024649  0
H  H43  1  0.88391376  0.07377171  0.05219153  1  0  0.082918  0  0.955222  0  0  0.092351  0  1.02626  0  0  0.092298  0  1.027931  0  0.095448  0  0.108145  0.092629  0  1.024662  0
H  H44  1  0.72031341  0.42680761  0.05727350  1  0  0.085975  0  0.97298  0  0  0.096549  0  1.036485  0  0  0.098695  0  1.036365  0  0.078711  0  0.098026  0.09462  0  1.03745  0
H  H45  1  0.27969087  0.57319322  0.94272719  1  0  0.085996  0  0.973036  0  0  0.096542  0  1.036574  0  0  0.098693  0  1.036443  0  0.078553  0  0.098007  0.094614  0  1.037539  0
H  H46  1  0.46778426  0.12833640  0.88870935  1  0  0.096476  0  0.945127  0  0  0.108998  0  1.001756  0  0  0.111136  0  1.001967  0  0.075005  0  0.102984  0.10717  0  1.002058  0
H  H47  1  0.53221520  0.87166758  0.11128923  1  0  0.096474  0  0.945019  0  0  0.108926  0  1.001727  0  0  0.111064  0  1.001937  0  0.0754  0  0.10295  0.107099  0  1.002028  0
H  H48  1  0.31992570  0.59844914  0.09530211  1  0  0.097538  0  0.971833  0  0  0.109152  0  1.031646  0  0  0.111211  0  1.031492  0  0.089098  0  0.09993  0.107642  0  1.031834  0
H  H49  1  0.68007794  0.40155378  0.90469763  1  0  0.097535  0  0.971791  0  0  0.109135  0  1.03163  0  0  0.111194  0  1.031476  0  0.089089  0  0.099911  0.107625  0  1.03182  0
H  H50  1  0.46682989  0.41263835  0.57786022  1  0  0.410032  0  0.786118  0  0  0.395513  0  0.837332  0  0  0.405082  0  0.826913  0  0.628008  0  0.346776  0.388733  0  0.844585  0
H  H51  1  0.53316800  0.58736353  0.42213681  1  0  0.410021  0  0.786095  0  0  0.395512  0  0.837297  0  0  0.405079  0  0.826883  0  0.627961  0  0.346773  0.388731  0  0.84455  0
C  C52  1  0.25674636  0.82714595  0.26465408  1  0  -0.044064  0  3.83068  0  0  -0.019425  0  4.064209  0  0  -0.024445  0  4.086558  0  -0.051006  0  -0.025696  -0.015623  0  4.04939  0
C  C53  1  0.74325060  0.17285173  0.73534358  1  0  -0.043905  0  3.830439  0  0  -0.019325  0  4.064015  0  0  -0.02431  0  4.08632  0  -0.051028  0  -0.025663  -0.015544  0  4.049225  0
C  C54  1  0.17087799  0.92538460  0.25534298  1  0  -0.135446  0  3.783817  0  0  -0.172391  0  4.035862  0  0  -0.173897  0  4.055616  0  0.004909  0  -0.107965  -0.172567  0  4.024522  0
C  C55  1  0.82912229  0.07461309  0.74465413  1  0  -0.135422  0  3.783724  0  0  -0.172326  0  4.035799  0  0  -0.173839  0  4.055542  0  0.005031  0  -0.107915  -0.172497  0  4.024466  0
C  C56  1  0.22684340  0.06697680  0.29136197  1  0  -0.049906  0  3.832445  0  0  -0.024546  0  4.064817  0  0  -0.029407  0  4.087282  0  -0.125601  0  -0.029481  -0.021354  0  4.049901  0
C  C57  1  0.77315775  0.93301984  0.70863561  1  0  -0.050007  0  3.832299  0  0  -0.024649  0  4.064704  0  0  -0.029511  0  4.087169  0  -0.125777  0  -0.029576  -0.021458  0  4.049789  0
C  C58  1  0.36854209  0.11190601  0.33659855  1  0  -0.202657  0  3.706623  0  0  -0.232701  0  3.960817  0  0  -0.236097  0  3.978709  0  -0.012282  0  -0.10781  -0.228543  0  3.94753  0
C  C59  1  0.63145621  0.88809272  0.66340050  1  0  -0.202568  0  3.706551  0  0  -0.23263  0  3.96076  0  0  -0.236022  0  3.978656  0  -0.01211  0  -0.107721  -0.228474  0  3.947473  0
C  C60  1  0.52427987  0.51608870  0.08823713  1  0  0.058827  0  3.753908  0  0  0.076607  0  3.998212  0  0  0.075404  0  4.022816  0  -0.110154  0  -0.018687  0.0772  0  3.980934  0
C  C61  1  0.47572156  0.48391423  0.91176257  1  0  0.058912  0  3.754206  0  0  0.076702  0  3.998483  0  0  0.075505  0  4.023079  0  -0.110043  0  -0.018692  0.077311  0  3.981185  0
C  C62  1  0.18720039  0.67586192  0.22957572  1  0  0.632107  0  3.92754  0  0  0.585804  0  4.217247  0  0  0.618889  0  4.20992  0  1.548064  0  0.198211  0.562641  0  4.221847  0
C  C63  1  0.81279350  0.32413681  0.77042447  1  0  0.632048  0  3.927333  0  0  0.585761  0  4.217042  0  0  0.618836  0  4.209712  0  1.54843  0  0.198125  0.562605  0  4.22165  0
C  C64  1  0.13476955  0.16861657  0.27483280  1  0  0.620448  0  3.954293  0  0  0.576475  0  4.241153  0  0  0.608771  0  4.23551  0  1.545188  0  0.190628  0.554434  0  4.243804  0
C  C65  1  0.86523380  0.83138007  0.72516545  1  0  0.620412  0  3.954244  0  0  0.576404  0  4.241155  0  0  0.608701  0  4.235508  0  1.545407  0  0.190574  0.554364  0  4.243804  0
C  C66  1  0.39885498  0.87044690  0.30847805  1  0  -0.19234  0  3.690003  0  0  -0.223239  0  3.942972  0  0  -0.225552  0  3.958728  0  0.020889  0  -0.103354  -0.221246  0  3.93198  0
C  C67  1  0.60113931  0.12954869  0.69152356  1  0  -0.192481  0  3.690018  0  0  -0.223379  0  3.94301  0  0  -0.225711  0  3.958755  0  0.020671  0  -0.10338  -0.221356  0  3.932024  0
C  C68  1  0.11708710  0.26876847  0.53569651  1  0  -0.102461  0  3.806256  0  0  -0.078389  0  4.038944  0  0  -0.090145  0  4.066278  0  -0.020851  0  -0.026058  -0.071524  0  4.020903  0
C  C69  1  0.88291167  0.73123235  0.46430408  1  0  -0.102567  0  3.806335  0  0  -0.078512  0  4.039067  0  0  -0.090271  0  4.066403  0  -0.02082  0  -0.026101  -0.071648  0  4.021026  0
C  C70  1  0.45832111  0.01423841  0.34455163  1  0  0.250005  0  3.85421  0  0  0.246514  0  4.104733  0  0  0.256018  0  4.124442  0  0.355542  0  0.092884  0.23951  0  4.090765  0
C  C71  1  0.54167783  0.98575823  0.65544899  1  0  0.250104  0  3.854338  0  0  0.246553  0  4.104867  0  0  0.256042  0  4.124607  0  0.355685  0  0.092883  0.239556  0  4.090889  0
C  C72  1  0.80591753  0.50343245  0.21791487  1  0  0.159323  0  3.651744  0  0  0.096366  0  3.917186  0  0  0.110128  0  3.929879  0  0.9783  0  0.141979  0.087875  0  3.907933  0
C  C73  1  0.19408234  0.49656838  0.78208819  1  0  0.159381  0  3.651609  0  0  0.096433  0  3.917064  0  0  0.110193  0  3.92976  0  0.978323  0  0.141937  0.087942  0  3.907812  0
C  C74  1  0.35462893  0.00708306  0.97095183  1  0  0.061022  0  3.774936  0  0  0.078338  0  4.01699  0  0  0.077035  0  4.042222  0  -0.00222  0  -0.013817  0.078456  0  4.000192  0
C  C75  1  0.64537210  0.99292301  0.02904585  1  0  0.060915  0  3.774914  0  0  0.078262  0  4.016941  0  0  0.076959  0  4.042172  0  -0.001944  0  -0.013881  0.078382  0  4.000143  0
C  C76  1  0.17871531  0.19369436  0.07787347  1  0  0.161589  0  3.644886  0  0  0.100292  0  3.908117  0  0  0.114281  0  3.9211  0  0.997545  0  0.140888  0.091096  0  3.898394  0
C  C77  1  0.82128792  0.80631171  0.92212793  1  0  0.161669  0  3.644821  0  0  0.100379  0  3.908053  0  0  0.114359  0  3.921018  0  0.997507  0  0.140929  0.091183  0  3.898331  0
C  C78  1  0.00898588  0.17062937  0.56275268  1  0  -0.049197  0  3.726823  0  0  -0.074197  0  3.974079  0  0  -0.07342  0  3.996335  0  -0.035512  0  -0.077282  -0.074587  0  3.960092  0
C  C79  1  0.99101353  0.82936936  0.43724640  1  0  -0.049173  0  3.726829  0  0  -0.074185  0  3.974077  0  0  -0.073406  0  3.996333  0  -0.035041  0  -0.077289  -0.074575  0  3.96009  0
C  C80  1  0.54967642  0.54122831  0.18358976  1  0  -0.04451  0  3.636524  0  0  -0.113234  0  3.891537  0  0  -0.108526  0  3.901423  0  0.2641  0  -0.044067  -0.116004  0  3.884383  0
C  C81  1  0.45032826  0.45876938  0.81641357  1  0  -0.044476  0  3.636594  0  0  -0.113214  0  3.89158  0  0  -0.108504  0  3.901455  0  0.263927  0  -0.044021  -0.115984  0  3.88442  0
C  C82  1  0.27406511  0.29556255  0.57157730  1  0  0.638334  0  3.827206  0  0  0.587572  0  4.134939  0  0  0.620613  0  4.126602  0  1.453336  0  0.230538  0.566199  0  4.138664  0
C  C83  1  0.72593278  0.70443933  0.42842095  1  0  0.638324  0  3.827224  0  0  0.587554  0  4.13497  0  0  0.620594  0  4.126632  0  1.453368  0  0.230517  0.566181  0  4.138694  0
C  C84  1  0.81437213  0.21692804  0.47374668  1  0  0.095448  0  3.711261  0  0  0.115614  0  3.945604  0  0  0.118016  0  3.967802  0  -0.044788  0  0.00454  0.114037  0  3.930384  0
C  C85  1  0.18562791  0.78306859  0.52625518  1  0  0.095402  0  3.711063  0  0  0.115567  0  3.945458  0  0  0.117956  0  3.967648  0  -0.044767  0  0.004487  0.113989  0  3.930237  0
C  C86  1  0.07350324  0.33910029  0.47656948  1  0  -0.039417  0  3.715585  0  0  -0.066271  0  3.964347  0  0  -0.064683  0  3.985702  0  0.031004  0  -0.076144  -0.067348  0  3.950757  0
C  C87  1  0.92649395  0.66089844  0.52343017  1  0  -0.039267  0  3.715519  0  0  -0.066101  0  3.964257  0  0  -0.064511  0  3.98561  0  0.031019  0  -0.076095  -0.067178  0  3.950666  0
C  C88  1  0.75387033  0.28948432  0.23503633  1  0  0.003643  0  3.720828  0  0  -0.030139  0  3.985411  0  0  -0.028172  0  4.00449  0  0.412506  0  -0.000558  -0.031752  0  3.972585  0
C  C89  1  0.24612949  0.71051127  0.76495863  1  0  0.003651  0  3.720914  0  0  -0.030051  0  3.985477  0  0  -0.02808  0  4.004557  0  0.412432  0  -0.000497  -0.031664  0  3.972651  0
C  C90  1  0.85890203  0.14557777  0.53213696  1  0  -0.111712  0  3.713309  0  0  -0.130341  0  3.961002  0  0  -0.135505  0  3.984083  0  0.009273  0  -0.086823  -0.126661  0  3.945768  0
C  C91  1  0.14109912  0.85441887  0.46786432  1  0  -0.111713  0  3.713287  0  0  -0.130317  0  3.96098  0  0  -0.135481  0  3.984058  0  0.008856  0  -0.08685  -0.126637  0  3.945745  0
C  C92  1  0.07131746  0.22813939  0.96243092  1  0  -0.067206  0  3.663288  0  0  -0.108159  0  3.922918  0  0  -0.106864  0  3.940897  0  0.302218  0  0.002511  -0.108385  0  3.910501  0
C  C93  1  0.92868472  0.77187192  0.03757242  1  0  -0.067374  0  3.663255  0  0  -0.108243  0  3.92293  0  0  -0.106946  0  3.940907  0  0.302212  0  0.002477  -0.108469  0  3.910514  0
C  C94  1  0.61897044  0.32654149  0.22057323  1  0  -0.063317  0  3.655135  0  0  -0.102735  0  3.911264  0  0  -0.101706  0  3.93031  0  0.300837  0  0.003073  -0.103364  0  3.899358  0
C  C95  1  0.38102914  0.67345305  0.77942035  1  0  -0.06346  0  3.655373  0  0  -0.10289  0  3.911474  0  0  -0.101852  0  3.930527  0  0.300765  0  0.002978  -0.103526  0  3.899574  0
C  C96  1  0.04742788  0.32651949  0.03181809  1  0  0.007718  0  3.740877  0  0  -0.027589  0  4.010378  0  0  -0.02556  0  4.029868  0  0.394978  0  0.00128  -0.029174  0  3.997004  0
C  C97  1  0.95257802  0.67348868  0.96818611  1  0  0.007938  0  3.740641  0  0  -0.027393  0  4.010117  0  0  -0.025369  0  4.029606  0  0.395149  0  0.001397  -0.028979  0  3.996745  0
C  C98  1  0.92317280  0.31233870  0.44585962  1  0  -0.110425  0  3.722638  0  0  -0.129164  0  3.970582  0  0  -0.134527  0  3.992878  0  -0.072583  0  -0.085244  -0.125151  0  3.955554  0
C  C99  1  0.07682394  0.68765793  0.55414157  1  0  -0.110473  0  3.722456  0  0  -0.129212  0  3.970373  0  0  -0.134573  0  3.992669  0  -0.072683  0  -0.08521  -0.125198  0  3.955345  0
C  C100  1  0.37430611  0.93455590  0.03343264  1  0  -0.116122  0  3.753622  0  0  -0.134166  0  4.000297  0  0  -0.137099  0  4.023203  0  -0.061473  0  -0.090345  -0.132301  0  3.986188  0
C  C101  1  0.62569248  0.06544912  0.96656300  1  0  -0.115977  0  3.753632  0  0  -0.133991  0  4.000294  0  0  -0.136918  0  4.02319  0  -0.061346  0  -0.090275  -0.13213  0  3.986188  0
C  C102  1  0.65135516  0.19305102  0.44191427  1  0  0.017029  0  3.721125  0  0  -0.046308  0  3.984593  0  0  -0.041317  0  3.995177  0  0.317707  0  -0.057062  -0.0501  0  3.97619  0
C  C103  1  0.34864291  0.80694667  0.55808955  1  0  0.017064  0  3.721141  0  0  -0.046447  0  3.984739  0  0  -0.041422  0  3.995281  0  0.317991  0  -0.057097  -0.050233  0  3.976328  0
C  C104  1  0.19898752  0.01860874  0.94218627  1  0  -0.046198  0  3.623439  0  0  -0.111033  0  3.869988  0  0  -0.105906  0  3.879178  0  0.242022  0  -0.046654  -0.114193  0  3.863368  0
C  C105  1  0.80101391  0.98139418  0.05781405  1  0  -0.046154  0  3.623455  0  0  -0.111112  0  3.870086  0  0  -0.10599  0  3.879281  0  0.242674  0  -0.046652  -0.114271  0  3.863465  0
C  C106  1  0.62308712  0.45950702  0.03289517  1  0  -0.12029  0  3.778004  0  0  -0.141983  0  4.029047  0  0  -0.144499  0  4.05186  0  -0.064624  0  -0.098244  -0.140054  0  4.013871  0
C  C107  1  0.37691431  0.54049591  0.96710515  1  0  -0.120326  0  3.7782  0  0  -0.142013  0  4.029248  0  0  -0.144531  0  4.052062  0  -0.063685  0  -0.09824  -0.14009  0  4.014066  0
C  C108  1  0.48151318  0.07204181  0.93760646  1  0  -0.099688  0  3.747588  0  0  -0.119762  0  3.993342  0  0  -0.122456  0  4.016237  0  -0.04859  0  -0.087012  -0.117929  0  3.978486  0
C  C109  1  0.51848407  0.92796216  0.06239024  1  0  -0.099617  0  3.747454  0  0  -0.119603  0  3.993159  0  0  -0.122296  0  4.016056  0  -0.049541  0  -0.086966  -0.117771  0  3.978301  0
C  C110  1  0.40053945  0.55606606  0.05413831  1  0  -0.109339  0  3.750802  0  0  -0.126685  0  3.997374  0  0  -0.129305  0  4.019974  0  0.003371  0  -0.094881  -0.124367  0  3.981716  0
C  C111  1  0.59945757  0.44393687  0.94585884  1  0  -0.10937  0  3.750906  0  0  -0.126725  0  3.997486  0  0  -0.129347  0  4.020086  0  0.004002  0  -0.094882  -0.124413  0  3.981826  0
N  N112  1  0.11467790  0.30382960  0.10331569  1  0  -0.384949  0  3.324273  0  0  -0.306073  0  3.623755  0  0  -0.326302  0  3.637279  0  -1.232813  0  -0.355142  -0.291881  0  3.613952  0
N  N113  1  0.88532579  0.69617856  0.89668662  1  0  -0.385023  0  3.324076  0  0  -0.306139  0  3.623573  0  0  -0.326359  0  3.637089  0  -1.232735  0  -0.355184  -0.291946  0  3.613769  0
N  N114  1  0.86998683  0.40093768  0.23293579  1  0  -0.387737  0  3.304167  0  0  -0.3052  0  3.605725  0  0  -0.325424  0  3.617011  0  -1.246823  0  -0.357491  -0.291021  0  3.597299  0
N  N115  1  0.13001170  0.59906210  0.76706403  1  0  -0.387712  0  3.304153  0  0  -0.305179  0  3.605697  0  0  -0.325407  0  3.616988  0  -1.246775  0  -0.357467  -0.290998  0  3.597268  0
N  N116  1  0.65405718  0.46225013  0.21026131  1  0  -0.05539  0  3.59031  0  0  0.037021  0  3.81168  0  0  0.022585  0  3.837576  0  -1.262423  0  -0.242339  0.046496  0  3.794044  0
N  N117  1  0.34594373  0.53774546  0.78973736  1  0  -0.055541  0  3.590347  0  0  0.036872  0  3.811726  0  0  0.022436  0  3.83762  0  -1.262187  0  -0.242387  0.046347  0  3.794093  0
N  N118  1  0.15491007  0.14502873  0.99265712  1  0  -0.054974  0  3.542013  0  0  0.040432  0  3.758352  0  0  0.025904  0  3.783973  0  -1.22639  0  -0.235218  0.05028  0  3.739923  0
N  N119  1  0.84509252  0.85497943  0.00734395  1  0  -0.054925  0  3.541964  0  0  0.040486  0  3.758322  0  0  0.025957  0  3.783942  0  -1.226722  0  -0.235183  0.050333  0  3.739895  0
N  N120  1  0.60113655  0.05547312  0.38509276  1  0  -0.414219  0  3.30142  0  0  -0.3571  0  3.541709  0  0  -0.376087  0  3.554014  0  -1.223302  0  -0.445453  -0.343055  0  3.532626  0
N  N121  1  0.39886349  0.94452352  0.61490972  1  0  -0.414118  0  3.301674  0  0  -0.356934  0  3.541833  0  0  -0.37593  0  3.55414  0  -1.223232  0  -0.445313  -0.342891  0  3.532748  0
O  O122  1  0.22724723  0.58722103  0.26831234  1  0  -0.642284  0  2.011308  0  0  -0.571679  0  2.272631  0  0  -0.59836  0  2.256566  0  -1.173068  0  -0.33937  -0.551967  0  2.284727  0
O  O123  1  0.77274689  0.41277875  0.73168740  1  0  -0.642219  0  2.011125  0  0  -0.571629  0  2.272463  0  0  -0.598312  0  2.256406  0  -1.172987  0  -0.339282  -0.55191  0  2.28454  0
O  O124  1  0.20584318  0.29863676  0.28867510  1  0  -0.65534  0  2.01216  0  0  -0.583628  0  2.276281  0  0  -0.61085  0  2.260648  0  -1.165957  0  -0.346504  -0.563305  0  2.288232  0
O  O125  1  0.79415710  0.70136092  0.71132508  1  0  -0.65535  0  2.01224  0  0  -0.583628  0  2.276382  0  0  -0.610856  0  2.260747  0  -1.166126  0  -0.3465  -0.563309  0  2.288332  0
O  O126  1  0.09175824  0.64140536  0.16644746  1  0  -0.637385  0  1.921985  0  0  -0.587999  0  2.14764  0  0  -0.610804  0  2.13879  0  -1.201705  0  -0.328313  -0.57135  0  2.152884  0
O  O127  1  0.90823496  0.35859023  0.83355413  1  0  -0.637461  0  1.922024  0  0  -0.588048  0  2.147637  0  0  -0.610857  0  2.138791  0  -1.202071  0  -0.328343  -0.571401  0  2.15288  0
O  O128  1  0.00084330  0.12534705  0.24419359  1  0  -0.626618  0  1.926658  0  0  -0.584762  0  2.154766  0  0  -0.606482  0  2.14636  0  -1.192468  0  -0.331228  -0.56852  0  2.159554  0
O  O129  1  0.99916161  0.87465168  0.75580129  1  0  -0.626582  0  1.926552  0  0  -0.584659  0  2.154598  0  0  -0.606374  0  2.146185  0  -1.192514  0  -0.331151  -0.568418  0  2.159387  0
O  O130  1  0.32185166  0.22825150  0.61744912  1  0  -0.56151  0  1.967468  0  0  -0.522791  0  2.193899  0  0  -0.542582  0  2.183855  0  -1.175567  0  -0.284856  -0.509803  0  2.200162  0
O  O131  1  0.67814821  0.77174933  0.38255087  1  0  -0.561494  0  1.967572  0  0  -0.522766  0  2.194006  0  0  -0.542553  0  2.183958  0  -1.175653  0  -0.284819  -0.509781  0  2.200275  0
O  O132  1  0.36637283  0.40533735  0.55077363  1  0  -0.537623  0  2.026769  0  0  -0.491339  0  2.228285  0  0  -0.510365  0  2.212898  0  -1.135315  0  -0.330173  -0.478294  0  2.23748  0
O  O133  1  0.63362593  0.59466348  0.44922388  1  0  -0.537604  0  2.026738  0  0  -0.491319  0  2.228238  0  0  -0.510345  0  2.212857  0  -1.135217  0  -0.330172  -0.478274  0  2.237431  0
