# generated using pymatgen
data_H22PbC16(N2O5)2
_symmetry_space_group_name_H-M   'P 1'
_cell_length_a   9.41010630
_cell_length_b   9.40990297
_cell_length_c   11.16150789
_cell_angle_alpha   96.11915537
_cell_angle_beta   96.11813868
_cell_angle_gamma   89.75503269
_symmetry_Int_Tables_number   1
_chemical_formula_structural   H22PbC16(N2O5)2
_chemical_formula_sum   'H44 Pb2 C32 N8 O20'
_cell_volume   977.07783077
_cell_formula_units_Z   2
loop_
 _symmetry_equiv_pos_site_id
 _symmetry_equiv_pos_as_xyz
  1  'x, y, z'
loop_
 _atom_site_type_symbol
 _atom_site_label
 _atom_site_symmetry_multiplicity
 _atom_site_fract_x
 _atom_site_fract_y
 _atom_site_fract_z
 _atom_site_occupancy
 _atom_site_pbe_bader_spin_density
 _atom_site_pbe_cm5_charge
 _atom_site_pbe_ddec_charge
 _atom_site_pbe_ddec_spin_density
 _atom_site_pbe_ddec_sum_bond_order
 _atom_site_pbe_magmom
H  H0  1  0.84721265  0.70382188  0.29850002  1  0  0.318039  0.293647  0  0.973162  0
H  H1  1  0.29617742  0.15278267  0.20149428  1  0  0.318049  0.29373  0  0.973056  0
H  H2  1  0.15278941  0.29618324  0.70150708  1  0  0.317986  0.293546  0  0.973308  0
H  H3  1  0.70382342  0.84721600  0.79850051  1  0  0.318046  0.293702  0  0.97308  0
H  H4  1  0.17712917  0.53887592  0.06613552  1  0  0.292237  0.33729  0  1.028449  0
H  H5  1  0.46112921  0.82287058  0.43386734  1  0  0.292222  0.33723  0  1.028537  0
H  H6  1  0.82289035  0.46115046  0.93388032  1  0  0.292201  0.337169  0  1.028574  0
H  H7  1  0.53885420  0.17710792  0.56612151  1  0  0.292183  0.337117  0  1.028627  0
H  H8  1  0.05568822  0.15172866  0.52131016  1  0  0.292106  0.376485  0  0.962754  0
H  H9  1  0.84827718  0.94431312  0.97868865  1  0  0.292116  0.376468  0  0.96278  0
H  H10  1  0.94429351  0.84827873  0.47868463  1  0  0.292056  0.376385  0  0.96288  0
H  H11  1  0.15172397  0.05570375  0.02131402  1  0  0.292068  0.376388  0  0.962888  0
H  H12  1  0.89606804  0.12543608  0.53610962  1  0  0.291128  0.373501  0  0.966017  0
H  H13  1  0.87457309  0.10393469  0.96389130  1  0  0.291175  0.373545  0  0.965941  0
H  H14  1  0.10392098  0.87455526  0.46389516  1  0  0.291211  0.373527  0  0.965994  0
H  H15  1  0.12544605  0.89607447  0.03609792  1  0  0.29121  0.373537  0  0.965942  0
H  H16  1  0.69353201  0.35547075  0.38357304  1  0  0.103842  0.11814  0  0.989027  0
H  H17  1  0.64452190  0.30646541  0.11642591  1  0  0.103876  0.118195  0  0.989054  0
H  H18  1  0.30646557  0.64452474  0.61642119  1  0  0.103839  0.118126  0  0.989032  0
H  H19  1  0.35547909  0.69354078  0.88357761  1  0  0.10383  0.118092  0  0.989126  0
H  H20  1  0.63726890  0.53273534  0.36287821  1  0  0.102176  0.113979  0  1.00377  0
H  H21  1  0.46726485  0.36272997  0.13711583  1  0  0.102176  0.114028  0  1.003758  0
H  H22  1  0.36272221  0.46725489  0.63712128  1  0  0.102168  0.114024  0  1.003675  0
H  H23  1  0.53273596  0.63726552  0.86288496  1  0  0.10218  0.113996  0  1.003728  0
H  H24  1  0.87036526  0.44357188  0.55225835  1  0  0.084895  0.080731  0  1.00892  0
H  H25  1  0.55643915  0.12963055  0.94773624  1  0  0.084915  0.08068  0  1.008846  0
H  H26  1  0.12962150  0.55641410  0.44773771  1  0  0.084873  0.080638  0  1.008839  0
H  H27  1  0.44358206  0.87037012  0.05226855  1  0  0.084846  0.080603  0  1.008982  0
H  H28  1  0.83613339  0.62375942  0.52674618  1  0  0.087491  0.082526  0  0.99819  0
H  H29  1  0.37625203  0.16385085  0.97324790  1  0  0.087451  0.082486  0  0.998145  0
H  H30  1  0.16385667  0.37623083  0.47325681  1  0  0.087496  0.082503  0  0.998139  0
H  H31  1  0.62376148  0.83613705  0.02675154  1  0  0.087479  0.08254  0  0.998165  0
H  H32  1  0.58581436  0.60205276  0.57758023  1  0  0.083311  0.117438  0  1.0276  0
H  H33  1  0.39794936  0.41418241  0.92242273  1  0  0.083321  0.117453  0  1.027586  0
H  H34  1  0.41417353  0.39793538  0.42242328  1  0  0.083368  0.117503  0  1.027459  0
H  H35  1  0.60205992  0.58580977  0.07757134  1  0  0.083333  0.117478  0  1.027404  0
H  H36  1  0.70801933  0.55663440  0.69948337  1  0  0.075908  0.098693  0  1.062921  0
H  H37  1  0.44336822  0.29197692  0.80051495  1  0  0.075922  0.098746  0  1.062876  0
H  H38  1  0.29197375  0.44334406  0.30051706  1  0  0.075929  0.098694  0  1.062946  0
H  H39  1  0.55664207  0.70800994  0.19948591  1  0  0.075908  0.098679  0  1.062952  0
H  H40  1  0.61496872  0.41976129  0.60228944  1  0  0.08313  0.11601  0  1.035454  0
H  H41  1  0.58023476  0.38503527  0.89771049  1  0  0.083149  0.116078  0  1.035357  0
H  H42  1  0.38501908  0.58022255  0.39770742  1  0  0.083142  0.11604  0  1.035471  0
H  H43  1  0.41977034  0.61496125  0.10228896  1  0  0.083161  0.116042  0  1.035271  0
Pb  Pb44  1  0.91540058  0.08459199  0.25000174  1  0  0.663784  1.162706  0  1.783062  0
Pb  Pb45  1  0.08459195  0.91542068  0.74999892  1  0  0.663801  1.162656  0  1.783226  0
C  C46  1  0.11383455  0.33753817  0.12618837  1  0  0.21828  0.557322  0  4.234612  0
C  C47  1  0.66245446  0.88616173  0.37380597  1  0  0.218268  0.557183  0  4.23458  0
C  C48  1  0.88616976  0.66247758  0.87380910  1  0  0.218463  0.557372  0  4.234446  0
C  C49  1  0.33753563  0.11383171  0.62619282  1  0  0.218394  0.557253  0  4.234361  0
C  C50  1  0.00818814  0.42702744  0.18795408  1  0  0.082175  -0.009437  0  4.042907  0
C  C51  1  0.57296662  0.99180774  0.31204247  1  0  0.082213  -0.009429  0  4.043009  0
C  C52  1  0.99181305  0.57299052  0.81205406  1  0  0.08221  -0.009326  0  4.04268  0
C  C53  1  0.42702767  0.00818350  0.68794932  1  0  0.082114  -0.009475  0  4.042981  0
C  C54  1  0.98937154  0.57510681  0.19601647  1  0  0.089732  -0.009674  0  3.953411  0
C  C55  1  0.42489568  0.01062244  0.30398166  1  0  0.089746  -0.009606  0  3.953369  0
C  C56  1  0.01063276  0.42490578  0.80399058  1  0  0.089613  -0.009668  0  3.953214  0
C  C57  1  0.57510825  0.98936873  0.69601364  1  0  0.089768  -0.009582  0  3.953373  0
C  C58  1  0.05302716  0.68937454  0.13845809  1  0  0.227207  0.566995  0  4.188871  0
C  C59  1  0.31062564  0.94696796  0.36154567  1  0  0.227084  0.566846  0  4.189078  0
C  C60  1  0.94697716  0.31063702  0.86155604  1  0  0.227033  0.566634  0  4.189738  0
C  C61  1  0.68937190  0.05302539  0.63844749  1  0  0.227049  0.566737  0  4.189467  0
C  C62  1  0.83895827  0.47698016  0.30493379  1  0  0.244007  0.375992  0  3.925633  0
C  C63  1  0.52301989  0.16103892  0.19506115  1  0  0.244006  0.376176  0  3.925482  0
C  C64  1  0.16103733  0.52302393  0.69506639  1  0  0.244081  0.375991  0  3.925446  0
C  C65  1  0.47698735  0.83895864  0.80493679  1  0  0.243786  0.375812  0  3.925615  0
C  C66  1  0.72962919  0.46709314  0.39026223  1  0  -0.15224  -0.256972  0  3.930379  0
C  C67  1  0.53290733  0.27037701  0.10974043  1  0  -0.152272  -0.257119  0  3.930198  0
C  C68  1  0.27036625  0.53290238  0.60973272  1  0  -0.15234  -0.257103  0  3.930152  0
C  C69  1  0.46709793  0.72962809  0.89026695  1  0  -0.152256  -0.256991  0  3.930332  0
C  C70  1  0.78638047  0.51763035  0.52256209  1  0  -0.167443  -0.075264  0  3.916695  0
C  C71  1  0.48237490  0.21361365  0.97743106  1  0  -0.167396  -0.075126  0  3.916416  0
C  C72  1  0.21361167  0.48235773  0.47743641  1  0  -0.167374  -0.075115  0  3.916433  0
C  C73  1  0.51763770  0.78638388  0.02257093  1  0  -0.167269  -0.07505  0  3.916518  0
C  C74  1  0.66685341  0.52434367  0.60494554  1  0  -0.25477  -0.359872  0  3.940847  0
C  C75  1  0.47566007  0.33314274  0.89505562  1  0  -0.254809  -0.360021  0  3.940798  0
C  C76  1  0.33313552  0.47564338  0.39505528  1  0  -0.254891  -0.35997  0  3.940937  0
C  C77  1  0.52434932  0.66685587  0.10494170  1  0  -0.254891  -0.36  0  3.940653  0
N  N78  1  0.91330414  0.36865581  0.25486876  1  0  -0.309585  -0.386379  0  3.333993  0
N  N79  1  0.63133839  0.08669327  0.24512813  1  0  -0.309629  -0.386542  0  3.334081  0
N  N80  1  0.08670226  0.63135566  0.74513210  1  0  -0.309627  -0.386405  0  3.333763  0
N  N81  1  0.36865806  0.91329797  0.75486833  1  0  -0.30952  -0.386339  0  3.333886  0
N  N82  1  0.88256653  0.60245832  0.26992504  1  0  -0.355245  -0.250697  0  3.587173  0
N  N83  1  0.39754016  0.11743101  0.23007390  1  0  -0.355199  -0.250794  0  3.586872  0
N  N84  1  0.11743444  0.39754470  0.73008538  1  0  -0.355128  -0.25059  0  3.587228  0
N  N85  1  0.60246388  0.88256658  0.76992466  1  0  -0.355058  -0.250585  0  3.587074  0
O  O86  1  0.11960223  0.20493997  0.14124575  1  0  -0.292917  -0.571453  0  2.294077  0
O  O87  1  0.79505121  0.88039303  0.35874392  1  0  -0.292906  -0.57132  0  2.293948  0
O  O88  1  0.88039014  0.79506833  0.85873571  1  0  -0.293022  -0.57142  0  2.293828  0
O  O89  1  0.20494118  0.11961003  0.64125769  1  0  -0.292941  -0.571337  0  2.293955  0
O  O90  1  0.19782853  0.39598313  0.06304469  1  0  -0.300755  -0.503656  0  2.262892  0
O  O91  1  0.60401460  0.80215890  0.43694826  1  0  -0.300767  -0.503605  0  2.262835  0
O  O92  1  0.80218010  0.60403262  0.93696122  1  0  -0.300786  -0.503669  0  2.262843  0
O  O93  1  0.39598393  0.19783016  0.56304371  1  0  -0.300798  -0.503572  0  2.262688  0
O  O94  1  0.15665133  0.65367330  0.07110998  1  0  -0.319768  -0.473666  0  2.320199  0
O  O95  1  0.34633328  0.84335235  0.42889778  1  0  -0.319712  -0.473537  0  2.320384  0
O  O96  1  0.84337441  0.34634021  0.92890618  1  0  -0.319676  -0.473417  0  2.320766  0
O  O97  1  0.65366400  0.15662601  0.57108957  1  0  -0.319665  -0.473439  0  2.320584  0
O  O98  1  0.00895502  0.81457483  0.14998457  1  0  -0.284458  -0.53048  0  2.232802  0
O  O99  1  0.18543015  0.99103026  0.35001534  1  0  -0.284391  -0.530398  0  2.232897  0
O  O100  1  0.99103118  0.18544218  0.85002040  1  0  -0.284319  -0.530304  0  2.233292  0
O  O101  1  0.81456982  0.00898019  0.64998309  1  0  -0.284413  -0.530393  0  2.23312  0
O  O102  1  0.95810662  0.17170979  0.48553440  1  0  -0.570382  -0.762609  0  2.04143  0
O  O103  1  0.82830025  0.04189354  0.01446796  1  0  -0.570448  -0.762647  0  2.041437  0
O  O104  1  0.04187200  0.82829981  0.51447107  1  0  -0.570446  -0.762536  0  2.041454  0
O  O105  1  0.17170731  0.95812538  0.98552828  1  0  -0.57045  -0.762496  0  2.041497  0
