# generated using pymatgen
data_Zn7H32C44(NO)18
_symmetry_space_group_name_H-M   'P 1'
_cell_length_a   9.76839484
_cell_length_b   11.89507648
_cell_length_c   15.19085616
_cell_angle_alpha   96.36817907
_cell_angle_beta   99.08509600
_cell_angle_gamma   112.47025685
_symmetry_Int_Tables_number   1
_chemical_formula_structural   Zn7H32C44(NO)18
_chemical_formula_sum   'Zn7 H32 C44 N18 O18'
_cell_volume   1582.01574121
_cell_formula_units_Z   1
loop_
 _symmetry_equiv_pos_site_id
 _symmetry_equiv_pos_as_xyz
  1  'x, y, z'
loop_
 _atom_site_type_symbol
 _atom_site_label
 _atom_site_symmetry_multiplicity
 _atom_site_fract_x
 _atom_site_fract_y
 _atom_site_fract_z
 _atom_site_occupancy
 _atom_site_pbe_bader_charge
 _atom_site_pbe_bader_spin_density
 _atom_site_pbe_cm5_charge
 _atom_site_pbe_ddec_charge
 _atom_site_pbe_ddec_spin_density
 _atom_site_pbe_ddec_sum_bond_order
 _atom_site_pbe_magmom
Zn  Zn0  1  0.98905875  0.56465029  0.29712478  1  1.282859  0  0.721272  0.757296  0  2.427478  0
Zn  Zn1  1  0.89347145  0.69934188  0.67385768  1  1.265049  0  0.708175  0.76036  0  2.452739  0
Zn  Zn2  1  0.44248739  0.60671759  0.06946794  1  1.230935  0  0.717292  0.680204  0  2.539237  0
Zn  Zn3  1  0.01093968  0.43534839  0.70287545  1  1.282862  0  0.721286  0.757316  0  2.427495  0
Zn  Zn4  1  0.10653044  0.30065958  0.32614446  1  1.264994  0  0.708208  0.760439  0  2.452667  0
Zn  Zn5  1  0.55751197  0.39328294  0.93053255  1  1.230927  0  0.717322  0.680209  0  2.539234  0
Zn  Zn6  1  0.49999922  0.49999934  0.50000044  1  1.353853  0  0.69832  0.897014  0  2.262781  0
H  H7  1  0.30737533  0.00444801  0.81889999  1  0.120283  0  0.108257  0.120639  0  1.004948  0
H  H8  1  0.75103240  0.05002279  0.95407429  1  0.118209  0  0.108253  0.110841  0  0.988792  0
H  H9  1  0.68209721  0.82419593  0.90183540  1  0.048197  0  0.099495  0.095007  0  0.998934  0
H  H10  1  0.42435172  0.69122330  0.80390104  1  0.069007  0  0.094575  0.089842  0  1.033834  0
H  H11  1  0.81312208  0.02027029  0.66581669  1  0.125246  0  0.107962  0.121341  0  1.000726  0
H  H12  1  0.44258872  0.12762663  0.59614378  1  0.048032  0  0.098202  0.086118  0  1.026409  0
H  H13  1  0.25952506  0.90846975  0.57352537  1  0.051678  0  0.100665  0.097999  0  0.996156  0
H  H14  1  0.35604211  0.74254318  0.58797014  1  0.074281  0  0.10059  0.099764  0  1.027233  0
H  H15  1  0.17299376  0.64423716  0.14299909  1  0.200065  0  0.143218  0.122385  0  0.990599  0
H  H16  1  0.35886945  0.38817422  0.20172975  1  0.123534  0  0.141546  0.106968  0  0.985422  0
H  H17  1  0.08951843  0.68578232  0.52272112  1  0.178082  0  0.143129  0.115968  0  0.986996  0
H  H18  1  0.66969510  0.45538778  0.34975500  1  0.184306  0  0.138294  0.110723  0  1.009898  0
H  H19  1  0.72588499  0.67772691  0.23894418  1  0.138557  0  0.150067  0.118389  0  0.950033  0
H  H20  1  0.82531342  0.40886313  0.08978243  1  0.198275  0  0.145085  0.123407  0  0.983572  0
H  H21  1  0.41686543  0.65848697  0.40417897  1  0.666564  0  0.287039  0.398116  0  0.943325  0
H  H22  1  0.59404258  0.69486328  0.42776594  1  0.595228  0  0.315044  0.387675  0  0.894746  0
H  H23  1  0.69262357  0.99555160  0.18109905  1  0.12028  0  0.108235  0.12063  0  1.004957  0
H  H24  1  0.24896881  0.94998145  0.04592605  1  0.118245  0  0.108248  0.110846  0  0.988827  0
H  H25  1  0.31790872  0.17580739  0.09816600  1  0.048059  0  0.099492  0.095037  0  0.999024  0
H  H26  1  0.57565421  0.30878000  0.19610299  1  0.068936  0  0.094542  0.089774  0  1.033865  0
H  H27  1  0.18687775  0.97973118  0.33417800  1  0.1253  0  0.107974  0.121382  0  1.000706  0
H  H28  1  0.55740914  0.87237297  0.40385713  1  0.048034  0  0.098178  0.086056  0  1.026468  0
H  H29  1  0.74047787  0.09153170  0.42647885  1  0.051691  0  0.100663  0.097996  0  0.996119  0
H  H30  1  0.64395725  0.25745735  0.41203298  1  0.074289  0  0.100607  0.099774  0  1.027234  0
H  H31  1  0.82699960  0.35575967  0.85699783  1  0.200077  0  0.143204  0.122387  0  0.990555  0
H  H32  1  0.64113037  0.61182724  0.79827152  1  0.123494  0  0.141552  0.106981  0  0.985434  0
H  H33  1  0.91048312  0.31421636  0.47728074  1  0.17785  0  0.143149  0.115989  0  0.986942  0
H  H34  1  0.33030587  0.54461183  0.65024557  1  0.184295  0  0.138309  0.110739  0  1.00984  0
H  H35  1  0.27411056  0.32226806  0.76105806  1  0.138885  0  0.15006  0.118375  0  0.950051  0
H  H36  1  0.17468605  0.59113556  0.91021593  1  0.198314  0  0.145086  0.123403  0  0.983581  0
H  H37  1  0.58313301  0.34151171  0.59582126  1  0.666583  0  0.287027  0.398097  0  0.943356  0
H  H38  1  0.40595574  0.30513725  0.57223510  1  0.595264  0  0.315022  0.387643  0  0.894803  0
C  C39  1  0.35005289  0.83939270  0.80619493  1  -0.075607  0  -0.023077  -0.044546  0  3.984906  0
C  C40  1  0.38945848  0.96509478  0.83681910  1  0.060747  0  -0.070613  -0.087644  0  3.908595  0
C  C41  1  0.53420470  0.04063784  0.88912030  1  -0.014693  0  -0.017871  -0.038081  0  3.978756  0
C  C42  1  0.63934141  0.98951712  0.91263496  1  -0.044012  0  -0.069308  -0.06296  0  3.931694  0
C  C43  1  0.59997234  0.86364860  0.88304527  1  -0.032398  0  -0.093328  -0.087909  0  4.021257  0
C  C44  1  0.45652022  0.78919682  0.82931870  1  -0.03834  0  -0.084785  -0.08725  0  3.975827  0
C  C45  1  0.19651860  0.75992775  0.74806755  1  1.530083  0  0.206207  0.577973  0  4.203171  0
C  C46  1  0.57730081  0.17606498  0.91781449  1  1.514201  0  0.197504  0.565824  0  4.208305  0
C  C47  1  0.59002981  0.87108939  0.62749233  1  0.042908  0  -0.023905  -0.053914  0  3.987222  0
C  C48  1  0.69204876  0.99568844  0.64423036  1  -0.054556  0  -0.072545  -0.090844  0  3.904423  0
C  C49  1  0.63990854  0.08830074  0.63146677  1  0.033083  0  -0.020802  -0.04494  0  3.986442  0
C  C50  1  0.48342511  0.05563769  0.60592661  1  -0.091871  0  -0.075791  -0.068321  0  3.960888  0
C  C51  1  0.38107543  0.93230062  0.59220894  1  -0.012559  0  -0.08976  -0.085346  0  4.009281  0
C  C52  1  0.43404800  0.83972192  0.60101667  1  -0.036603  0  -0.076766  -0.069802  0  3.954998  0
C  C53  1  0.64973603  0.77324454  0.63710310  1  1.541064  0  0.208393  0.576358  0  4.205668  0
C  C54  1  0.75258681  0.21932186  0.64200029  1  1.548109  0  0.203263  0.572527  0  4.202671  0
C  C55  1  0.19421003  0.57054178  0.17061886  1  0.995127  0  0.153977  0.1574  0  3.913639  0
C  C56  1  0.28988773  0.44122529  0.19982253  1  1.022426  0  0.15531  0.15916  0  3.950722  0
C  C57  1  0.96887503  0.63309502  0.49578244  1  0.995084  0  0.152673  0.15465  0  3.946393  0
C  C58  1  0.75601212  0.51627013  0.40787665  1  0.980623  0  0.148095  0.15719  0  3.938399  0
C  C59  1  0.72397572  0.60729153  0.18625861  1  1.021296  0  0.159208  0.162442  0  3.930621  0
C  C60  1  0.77611886  0.47238388  0.11092356  1  0.986085  0  0.158227  0.158322  0  3.932168  0
C  C61  1  0.64995062  0.16060783  0.19380663  1  -0.075553  0  -0.023127  -0.044599  0  3.984993  0
C  C62  1  0.61054237  0.03490668  0.16317899  1  0.060745  0  -0.070562  -0.087631  0  3.908617  0
C  C63  1  0.46579558  0.95936455  0.11087847  1  -0.014675  0  -0.017854  -0.038026  0  3.978817  0
C  C64  1  0.36066037  0.01048619  0.08736602  1  -0.044009  0  -0.069335  -0.062984  0  3.931861  0
C  C65  1  0.40003302  0.13635564  0.11695681  1  -0.032212  0  -0.093312  -0.087991  0  4.021465  0
C  C66  1  0.54348571  0.21080649  0.17068401  1  -0.038421  0  -0.084696  -0.087059  0  3.975684  0
C  C67  1  0.80348502  0.24007093  0.25193387  1  1.52972  0  0.206205  0.577927  0  4.203304  0
C  C68  1  0.42269648  0.82393556  0.08218382  1  1.514211  0  0.197536  0.565878  0  4.208204  0
C  C69  1  0.40997116  0.12891022  0.37250560  1  0.042814  0  -0.023904  -0.053935  0  3.987397  0
C  C70  1  0.30795117  0.00431118  0.35576418  1  -0.054516  0  -0.072603  -0.090942  0  3.904561  0
C  C71  1  0.36008989  0.91169795  0.36852886  1  0.032777  0  -0.020746  -0.044828  0  3.986322  0
C  C72  1  0.51657575  0.94436377  0.39407214  1  -0.091825  0  -0.075778  -0.068289  0  3.96091  0
C  C73  1  0.61892497  0.06769991  0.40779100  1  -0.012589  0  -0.089766  -0.085327  0  4.009225  0
C  C74  1  0.56595090  0.16027769  0.39898237  1  -0.036537  0  -0.076768  -0.069811  0  3.955042  0
C  C75  1  0.35026448  0.22675415  0.36289669  1  1.541503  0  0.208381  0.576377  0  4.205674  0
C  C76  1  0.24741059  0.78067682  0.35799654  1  1.548084  0  0.203273  0.572518  0  4.20264  0
C  C77  1  0.80578333  0.42945505  0.82937872  1  0.995234  0  0.154055  0.157469  0  3.913522  0
C  C78  1  0.71011001  0.55877617  0.80017853  1  1.022377  0  0.155239  0.159075  0  3.950717  0
C  C79  1  0.03112605  0.36690273  0.50421864  1  0.995351  0  0.152669  0.154642  0  3.946331  0
C  C80  1  0.24398885  0.48372948  0.59212458  1  0.980644  0  0.148129  0.157236  0  3.938371  0
C  C81  1  0.27602329  0.39270623  0.81374159  1  1.020927  0  0.159177  0.162404  0  3.930728  0
C  C82  1  0.22388062  0.52761480  0.88907612  1  0.986056  0  0.158275  0.158377  0  3.932242  0
N  N83  1  0.18385612  0.42631212  0.24804505  1  -0.781463  0  -0.249113  -0.180772  0  3.520194  0
N  N84  1  0.12276841  0.50941775  0.22939038  1  -0.789513  0  -0.248953  -0.184923  0  3.520755  0
N  N85  1  0.29985788  0.53041428  0.15002162  1  -1.27344  0  -0.358616  -0.318072  0  3.56391  0
N  N86  1  0.86294428  0.62112234  0.54406241  1  -0.823614  0  -0.254761  -0.203557  0  3.538445  0
N  N87  1  0.72555477  0.54617141  0.48724619  1  -0.768323  0  -0.243992  -0.199253  0  3.441868  0
N  N88  1  0.90658773  0.56890055  0.41007704  1  -1.252227  0  -0.35652  -0.309252  0  3.56289  0
N  N89  1  0.82218703  0.55228707  0.19090704  1  -1.252008  0  -0.347126  -0.305319  0  3.526563  0
N  N90  1  0.65589411  0.47769999  0.05938226  1  -0.799708  0  -0.258417  -0.194601  0  3.550951  0
N  N91  1  0.62182045  0.56410438  0.10781041  1  -0.806259  0  -0.257074  -0.194594  0  3.522474  0
N  N92  1  0.81614220  0.57368841  0.75195599  1  -0.781185  0  -0.249057  -0.180669  0  3.520148  0
N  N93  1  0.87722645  0.49058000  0.77060875  1  -0.789844  0  -0.249004  -0.185042  0  3.520798  0
N  N94  1  0.70013790  0.46958532  0.84997776  1  -1.273485  0  -0.358632  -0.318056  0  3.563947  0
N  N95  1  0.13705785  0.37887542  0.45593877  1  -0.823579  0  -0.254806  -0.203599  0  3.538449  0
N  N96  1  0.27444666  0.45382912  0.51275582  1  -0.768408  0  -0.244035  -0.199305  0  3.441985  0
N  N97  1  0.09341336  0.43109720  0.58992469  1  -1.25223  0  -0.356523  -0.309261  0  3.56288  0
N  N98  1  0.17781291  0.44771254  0.80909211  1  -1.252006  0  -0.347128  -0.305321  0  3.526573  0
N  N99  1  0.34410479  0.52229962  0.94061745  1  -0.799691  0  -0.258423  -0.194609  0  3.551015  0
N  N100  1  0.37817695  0.43589430  0.89218906  1  -0.806256  0  -0.257072  -0.194582  0  3.522504  0
O  O101  1  0.16516128  0.64813255  0.71638006  1  -1.207893  0  -0.327737  -0.603881  0  2.333429  0
O  O102  1  0.10329598  0.81231072  0.73257664  1  -1.165424  0  -0.332357  -0.533296  0  2.295894  0
O  O103  1  0.46955560  0.21365935  0.89564610  1  -1.157613  0  -0.347599  -0.552022  0  2.297545  0
O  O104  1  0.71000289  0.24819214  0.95862937  1  -1.19431  0  -0.332727  -0.57097  0  2.11688  0
O  O105  1  0.56181059  0.65934139  0.61092077  1  -1.216827  0  -0.329694  -0.601817  0  2.337225  0
O  O106  1  0.79207423  0.81326678  0.67271648  1  -1.167156  0  -0.3249  -0.523371  0  2.332099  0
O  O107  1  0.88691872  0.24738311  0.68814041  1  -1.16865  0  -0.334587  -0.553602  0  2.261901  0
O  O108  1  0.71638536  0.29757841  0.60468911  1  -1.203924  0  -0.327249  -0.583499  0  2.231517  0
O  O109  1  0.49757440  0.62361251  0.40567499  1  -1.237067  0  -0.570228  -0.759057  0  2.108016  0
O  O110  1  0.83484084  0.35186520  0.28362244  1  -1.207868  0  -0.327743  -0.603872  0  2.333451  0
O  O111  1  0.89670614  0.18768704  0.26742454  1  -1.165147  0  -0.332347  -0.533281  0  2.295993  0
O  O112  1  0.53043915  0.78634025  0.10435318  1  -1.157537  0  -0.347647  -0.552085  0  2.297508  0
O  O113  1  0.28999325  0.75181024  0.04137029  1  -1.194359  0  -0.332741  -0.570995  0  2.116824  0
O  O114  1  0.43818934  0.34065821  0.38908035  1  -1.216814  0  -0.329695  -0.601827  0  2.337233  0
O  O115  1  0.20792778  0.18673283  0.32728354  1  -1.167605  0  -0.324877  -0.52337  0  2.33206  0
O  O116  1  0.11307764  0.75261557  0.31185698  1  -1.168591  0  -0.334584  -0.553624  0  2.261963  0
O  O117  1  0.28361504  0.70242213  0.39530885  1  -1.203757  0  -0.327281  -0.583538  0  2.231421  0
O  O118  1  0.50242404  0.37638617  0.59432590  1  -1.237138  0  -0.570198  -0.75901  0  2.108047  0
