# generated using pymatgen
data_FeH8PtC12SN6
_symmetry_space_group_name_H-M   'P 1'
_cell_length_a   9.77786884
_cell_length_b   9.76346633
_cell_length_c   16.22250000
_cell_angle_alpha   108.54499185
_cell_angle_beta   108.51668231
_cell_angle_gamma   91.25638499
_symmetry_Int_Tables_number   1
_chemical_formula_structural   FeH8PtC12SN6
_chemical_formula_sum   'Fe4 H32 Pt4 C48 S4 N24'
_cell_volume   1379.18872898
_cell_formula_units_Z   4
loop_
 _symmetry_equiv_pos_site_id
 _symmetry_equiv_pos_as_xyz
  1  'x, y, z'
loop_
 _atom_site_type_symbol
 _atom_site_label
 _atom_site_symmetry_multiplicity
 _atom_site_fract_x
 _atom_site_fract_y
 _atom_site_fract_z
 _atom_site_occupancy
 _atom_site_pbe_bader_charge
 _atom_site_pbe_bader_spin_density
 _atom_site_pbe_cm5_charge
 _atom_site_pbe_ddec_charge
 _atom_site_pbe_ddec_spin_density
 _atom_site_pbe_ddec_sum_bond_order
 _atom_site_pbe_magmom
Fe  Fe0  1  0.00000088  0.50000011  0.99999905  1  1.238676  0  0.893768  0.576911  0  3.914822  0
Fe  Fe1  1  0.49999904  0.00000109  0.99999950  1  1.237165  0  0.89364  0.576241  0  3.915746  0
Fe  Fe2  1  0.25034165  0.74969644  0.49998837  1  1.237232  0  0.892698  0.579977  0  3.90896  0
Fe  Fe3  1  0.74965760  0.25030160  0.50001087  1  1.237147  0  0.892665  0.579885  0  3.908946  0
H  H4  1  0.31173299  0.50496982  0.00130849  1  0.119567  0  0.131451  0.110348  0  0.977444  0
H  H5  1  0.68827039  0.49503475  0.99869402  1  0.119506  0  0.131434  0.110317  0  0.977421  0
H  H6  1  0.50542960  0.31214986  0.00125500  1  0.120791  0  0.131385  0.109655  0  0.978082  0
H  H7  1  0.49457270  0.68785472  0.99874669  1  0.120793  0  0.131393  0.109649  0  0.978107  0
H  H8  1  0.01618689  0.80394127  0.00205724  1  0.118892  0  0.131437  0.112199  0  0.989481  0
H  H9  1  0.98381173  0.19606004  0.99793941  1  0.119032  0  0.131433  0.112206  0  0.989507  0
H  H10  1  0.80356333  0.01576306  0.00202397  1  0.118295  0  0.131685  0.112633  0  0.989437  0
H  H11  1  0.19643514  0.98423715  0.99797368  1  0.118243  0  0.13171  0.112677  0  0.989489  0
H  H12  1  0.53616103  0.74600378  0.46804617  1  0.128553  0  0.130634  0.112378  0  0.984957  0
H  H13  1  0.92943062  0.71782351  0.46558405  1  0.124705  0  0.130318  0.112009  0  0.981723  0
H  H14  1  0.28256074  0.07101012  0.53442136  1  0.125372  0  0.130595  0.112016  0  0.982081  0
H  H15  1  0.25349262  0.46347264  0.53191282  1  0.131956  0  0.13075  0.112269  0  0.985154  0
H  H16  1  0.46384023  0.25399317  0.53195509  1  0.128471  0  0.130645  0.11238  0  0.984942  0
H  H17  1  0.07057000  0.28217670  0.53441833  1  0.124676  0  0.130313  0.111997  0  0.981748  0
H  H18  1  0.71744160  0.92898682  0.46558011  1  0.125335  0  0.130598  0.112024  0  0.982139  0
H  H19  1  0.74650570  0.53652649  0.46808706  1  0.131941  0  0.130744  0.112258  0  0.985138  0
H  H20  1  0.20832296  0.71963277  0.25980068  1  0.114801  0  0.102375  0.133868  0  1.040477  0
H  H21  1  0.04544729  0.53105184  0.24549924  1  0.092376  0  0.102709  0.134096  0  1.040627  0
H  H22  1  0.46881240  0.95436215  0.75452188  1  0.090197  0  0.102458  0.133675  0  1.041164  0
H  H23  1  0.28044875  0.79190249  0.74017769  1  0.114049  0  0.10235  0.133816  0  1.040802  0
H  H24  1  0.79167740  0.28035764  0.74019360  1  0.114597  0  0.102373  0.133906  0  1.040468  0
H  H25  1  0.95455118  0.46894838  0.75449903  1  0.092387  0  0.10273  0.134143  0  1.040625  0
H  H26  1  0.53119317  0.04563480  0.24548082  1  0.09026  0  0.102465  0.133625  0  1.0413  0
H  H27  1  0.71955262  0.20810318  0.25982834  1  0.114022  0  0.102366  0.133862  0  1.040744  0
H  H28  1  0.44524764  0.60575789  0.24531968  1  0.054004  0  0.076076  0.078593  0  1.099874  0
H  H29  1  0.79630156  0.63387490  0.23714989  1  0.074136  0  0.075727  0.077626  0  1.100603  0
H  H30  1  0.36644073  0.20404190  0.76287678  1  0.073964  0  0.076077  0.078116  0  1.099515  0
H  H31  1  0.39386513  0.55449904  0.75466544  1  0.057613  0  0.076184  0.078863  0  1.098827  0
H  H32  1  0.55475518  0.39423469  0.75467364  1  0.054698  0  0.076043  0.078539  0  1.099931  0
H  H33  1  0.20369736  0.36612859  0.76285156  1  0.07422  0  0.075733  0.077605  0  1.100603  0
H  H34  1  0.63356362  0.79595395  0.23712116  1  0.074118  0  0.076051  0.078068  0  1.099548  0
H  H35  1  0.60613517  0.44550663  0.24534038  1  0.057539  0  0.076213  0.078884  0  1.098811  0
Pt  Pt36  1  0.35201133  0.35193158  0.24906629  1  0.522939  0  0.545248  0.118543  0  4.675698  0
Pt  Pt37  1  0.89750042  0.89758939  0.25104799  1  0.523641  0  0.545498  0.120901  0  4.671708  0
Pt  Pt38  1  0.10249745  0.10240647  0.74894933  1  0.523725  0  0.54556  0.120986  0  4.67155  0
Pt  Pt39  1  0.64798484  0.64806755  0.75093441  1  0.522422  0  0.54527  0.118503  0  4.675728  0
C  C40  1  0.21079972  0.40583615  0.15025776  1  0.828697  0  0.00961  0.038598  0  3.900735  0
C  C41  1  0.94187723  0.74639965  0.15190715  1  0.821944  0  0.007495  0.037485  0  3.905939  0
C  C42  1  0.25390883  0.05842388  0.84813039  1  0.820044  0  0.007967  0.037439  0  3.902773  0
C  C43  1  0.59384417  0.78900485  0.84972045  1  0.82458  0  0.008117  0.037257  0  3.903116  0
C  C44  1  0.78920090  0.59416407  0.84974092  1  0.828665  0  0.009631  0.0386  0  3.901026  0
C  C45  1  0.05812124  0.25360056  0.84809297  1  0.821907  0  0.007482  0.037427  0  3.905833  0
C  C46  1  0.74608611  0.94157415  0.15186494  1  0.820091  0  0.007896  0.037291  0  3.903068  0
C  C47  1  0.40615400  0.21099318  0.15027982  1  0.82472  0  0.008106  0.037191  0  3.90322  0
C  C48  1  0.30912486  0.50387817  0.34838392  1  0.818876  0  0.006375  0.037955  0  3.904103  0
C  C49  1  0.03784213  0.84294541  0.34984047  1  0.820901  0  0.007604  0.039206  0  3.898426  0
C  C50  1  0.15745515  0.96236910  0.65019256  1  0.819311  0  0.00723  0.038572  0  3.903443  0
C  C51  1  0.49582624  0.69061386  0.65159122  1  0.817302  0  0.007272  0.038603  0  3.901344  0
C  C52  1  0.69087130  0.49612096  0.65161308  1  0.818961  0  0.006424  0.038008  0  3.904194  0
C  C53  1  0.96215065  0.15705262  0.65015568  1  0.820965  0  0.007522  0.039113  0  3.898883  0
C  C54  1  0.84254117  0.03763112  0.34980715  1  0.819791  0  0.007163  0.038509  0  3.903569  0
C  C55  1  0.50416899  0.30938636  0.34841260  1  0.817325  0  0.00726  0.038498  0  3.901398  0
C  C56  1  0.28603803  0.61266227  0.00081682  1  0.5237  0  0.065732  0.053635  0  3.847231  0
C  C57  1  0.71396319  0.38734231  0.99918466  1  0.523644  0  0.065743  0.053674  0  3.847191  0
C  C58  1  0.61292970  0.28628160  0.00077223  1  0.475063  0  0.066029  0.05445  0  3.847222  0
C  C59  1  0.38707152  0.71372298  0.99922863  1  0.475065  0  0.066035  0.054479  0  3.847278  0
C  C60  1  0.12299540  0.77692573  0.00108502  1  0.471541  0  0.058913  0.038623  0  3.887273  0
C  C61  1  0.87700415  0.22307449  0.99891222  1  0.470991  0  0.058901  0.038555  0  3.887348  0
C  C62  1  0.77672547  0.12276300  0.00105337  1  0.530412  0  0.059041  0.037886  0  3.887535  0
C  C63  1  0.22327315  0.87723831  0.99894452  1  0.530163  0  0.059022  0.037856  0  3.887508  0
C  C64  1  0.51971998  0.85982631  0.48259171  1  0.507746  0  0.061403  0.042953  0  3.877576  0
C  C65  1  0.96153306  0.62049473  0.48124471  1  0.483701  0  0.062664  0.047142  0  3.870213  0
C  C66  1  0.37972194  0.03871187  0.51875648  1  0.489061  0  0.062303  0.047053  0  3.870839  0
C  C67  1  0.13988783  0.48007326  0.51738032  1  0.510827  0  0.061263  0.042838  0  3.87781  0
C  C68  1  0.48028113  0.14016955  0.51740931  1  0.507874  0  0.061416  0.042937  0  3.877663  0
C  C69  1  0.03846649  0.37950549  0.51875500  1  0.483575  0  0.062657  0.047131  0  3.870257  0
C  C70  1  0.62027917  0.96128398  0.48124454  1  0.489029  0  0.062352  0.047041  0  3.870953  0
C  C71  1  0.86011157  0.51992587  0.48261792  1  0.510698  0  0.061253  0.042844  0  3.87778  0
C  C72  1  0.30258566  0.77225156  0.25518707  1  -0.315932  0  -0.116594  -0.183425  0  3.964179  0
C  C73  1  0.94897971  0.47748316  0.24706441  1  -0.220692  0  -0.115855  -0.181294  0  3.96417  0
C  C74  1  0.52241009  0.05090115  0.75294265  1  -0.219321  0  -0.115472  -0.180629  0  3.963123  0
C  C75  1  0.22779454  0.69757059  0.74478854  1  -0.310423  0  -0.116773  -0.184167  0  3.964226  0
C  C76  1  0.69741623  0.22774212  0.74480752  1  -0.315503  0  -0.116571  -0.183456  0  3.964028  0
C  C77  1  0.05101935  0.52252142  0.75293727  1  -0.22072  0  -0.115931  -0.181439  0  3.964252  0
C  C78  1  0.47759441  0.94909580  0.24705861  1  -0.219465  0  -0.115461  -0.180574  0  3.963264  0
C  C79  1  0.77220590  0.30243617  0.25521629  1  -0.310323  0  -0.116791  -0.184189  0  3.964335  0
C  C80  1  0.42726299  0.71612659  0.24746897  1  0.028368  0  -0.130059  -0.113573  0  4.078505  0
C  C81  1  0.81777387  0.52782485  0.24275900  1  -0.045071  0  -0.131457  -0.113029  0  4.081039  0
C  C82  1  0.47230683  0.18237669  0.75726827  1  -0.041929  0  -0.131449  -0.112908  0  4.080223  0
C  C83  1  0.28368770  0.57264608  0.75250619  1  0.028394  0  -0.129421  -0.112181  0  4.077256  0
C  C84  1  0.57273890  0.28386708  0.75252747  1  0.02743  0  -0.129966  -0.113394  0  4.078312  0
C  C85  1  0.18222628  0.47217973  0.75724474  1  -0.044882  0  -0.131454  -0.113027  0  4.080933  0
C  C86  1  0.52769644  0.81761916  0.24273070  1  -0.042725  0  -0.131373  -0.112776  0  4.080177  0
C  C87  1  0.71631367  0.42735959  0.24749738  1  0.028572  0  -0.129461  -0.112275  0  4.077553  0
S  S88  1  0.30822620  0.94878935  0.25701056  1  0.207409  0  0.049455  0.111905  0  3.067389  0
S  S89  1  0.94847023  0.30788465  0.25700677  1  0.20168  0  0.049526  0.112107  0  3.06842  0
S  S90  1  0.69177907  0.05120542  0.74298981  1  0.207212  0  0.04943  0.111862  0  3.067273  0
S  S91  1  0.05152991  0.69211993  0.74299574  1  0.201576  0  0.049553  0.11216  0  3.068338  0
N  N92  1  0.13560113  0.44388605  0.09180830  1  -1.31638  0  -0.389418  -0.304134  0  3.61618  0
N  N93  1  0.95966524  0.65053332  0.09267067  1  -1.309413  0  -0.389192  -0.304657  0  3.620795  0
N  N94  1  0.34967325  0.04063018  0.90734010  1  -1.30769  0  -0.38835  -0.304055  0  3.617916  0
N  N95  1  0.55576770  0.86415804  0.90820360  1  -1.31228  0  -0.389275  -0.302977  0  3.617297  0
N  N96  1  0.86439734  0.55611417  0.90818812  1  -1.316323  0  -0.389446  -0.30414  0  3.616409  0
N  N97  1  0.04033632  0.34946581  0.90732736  1  -1.309456  0  -0.389194  -0.304608  0  3.620859  0
N  N98  1  0.65032953  0.95937003  0.09266084  1  -1.307704  0  -0.388249  -0.30384  0  3.618056  0
N  N99  1  0.44423014  0.13584545  0.09179764  1  -1.312427  0  -0.389241  -0.302898  0  3.61732  0
N  N100  1  0.29257107  0.60057660  0.40767813  1  -1.305427  0  -0.388634  -0.302226  0  3.621181  0
N  N101  1  0.11244140  0.80398162  0.40804404  1  -1.308272  0  -0.387807  -0.303505  0  3.615486  0
N  N102  1  0.19640866  0.88782554  0.59193973  1  -1.307727  0  -0.388714  -0.303352  0  3.619594  0
N  N103  1  0.39924748  0.70715122  0.59231123  1  -1.304205  0  -0.388302  -0.302278  0  3.617913  0
N  N104  1  0.70742647  0.39942470  0.59232202  1  -1.305514  0  -0.388645  -0.302257  0  3.621347  0
N  N105  1  0.88755893  0.19601642  0.59195663  1  -1.308379  0  -0.387733  -0.303383  0  3.615875  0
N  N106  1  0.80359152  0.11217141  0.40805824  1  -1.308179  0  -0.38859  -0.303207  0  3.619847  0
N  N107  1  0.60075162  0.29284572  0.40768900  1  -1.304235  0  -0.388304  -0.302191  0  3.617973  0
N  N108  1  0.15216983  0.64256236  0.00174834  1  -1.139459  0  -0.299293  -0.102196  0  3.549727  0
N  N109  1  0.84783001  0.35744004  0.99824999  1  -1.139327  0  -0.299291  -0.102179  0  3.549702  0
N  N110  1  0.64259640  0.15218215  0.00172146  1  -1.140734  0  -0.299454  -0.102348  0  3.549254  0
N  N111  1  0.35740252  0.84782134  0.99827814  1  -1.140768  0  -0.29948  -0.1024  0  3.549326  0
N  N112  1  0.39771280  0.89680636  0.50133718  1  -1.152816  0  -0.301051  -0.109454  0  3.570393  0
N  N113  1  0.10317313  0.60229316  0.49864314  1  -1.15173  0  -0.300889  -0.109511  0  3.569639  0
N  N114  1  0.60228953  0.10319059  0.49866428  1  -1.152703  0  -0.301131  -0.109536  0  3.570567  0
N  N115  1  0.89682519  0.39770597  0.50135551  1  -1.151724  0  -0.300871  -0.109464  0  3.569611  0
