# generated using pymatgen
data_CuH24C32N2O7
_symmetry_space_group_name_H-M   'P 1'
_cell_length_a   8.80867490
_cell_length_b   8.80898279
_cell_length_c   39.41395104
_cell_angle_alpha   89.99501527
_cell_angle_beta   90.00194171
_cell_angle_gamma   120.00275175
_symmetry_Int_Tables_number   1
_chemical_formula_structural   CuH24C32N2O7
_chemical_formula_sum   'Cu3 H72 C96 N6 O21'
_cell_volume   2648.53003966
_cell_formula_units_Z   3
loop_
 _symmetry_equiv_pos_site_id
 _symmetry_equiv_pos_as_xyz
  1  'x, y, z'
loop_
 _atom_site_type_symbol
 _atom_site_label
 _atom_site_symmetry_multiplicity
 _atom_site_fract_x
 _atom_site_fract_y
 _atom_site_fract_z
 _atom_site_occupancy
 _atom_site_pbe_bader_charge
 _atom_site_pbe_bader_spin_density
 _atom_site_pbe_cm5_charge
 _atom_site_pbe_ddec_charge
 _atom_site_pbe_ddec_spin_density
 _atom_site_pbe_ddec_sum_bond_order
 _atom_site_pbe_magmom
Cu  Cu0  1  0.70223862  0.00002146  0.16667011  1  1.062572  -0.554115  0.739434  0.763705  -0.764701  2.205758  -0.554
Cu  Cu1  1  0.00002586  0.70227156  0.83333909  1  1.062611  0.554079  0.739236  0.763716  0.737294  2.204881  0.554
Cu  Cu2  1  0.29763864  0.29749883  0.49996230  1  1.062852  0.55416  0.739539  0.764099  0.737437  2.204595  0.554
H  H3  1  0.56762439  0.19531892  0.25008736  1  0.063993  -0.000487  0.098199  0.097429  -0.000427  1.024726  0.0
H  H4  1  0.80479210  0.37252089  0.91677711  1  0.06265  0.000489  0.098021  0.097197  0.000413  1.024668  0.0
H  H5  1  0.62745086  0.43212721  0.58339388  1  0.062841  0.000491  0.098078  0.097099  0.000416  1.02517  0.0
H  H6  1  0.37255488  0.80473738  0.08325994  1  0.062611  -0.00049  0.098324  0.09769  -0.000427  1.024536  0.0
H  H7  1  0.43221087  0.62750624  0.41656142  1  0.06493  0.000485  0.098129  0.097442  0.000413  1.024496  0.0
H  H8  1  0.19523194  0.56774281  0.74991387  1  0.063768  0.000491  0.098151  0.097346  0.000416  1.024528  0.0
H  H9  1  0.85114689  0.48930438  0.37557563  1  0.034418  -4e-06  0.095649  0.094639  -7e-06  1.024505  0.0
H  H10  1  0.51115436  0.36221241  0.04229003  1  0.034636  4e-06  0.095673  0.094594  6e-06  1.024748  0.0
H  H11  1  0.63782042  0.14902569  0.70893678  1  0.034459  2e-05  0.095833  0.094749  1.1e-05  1.024661  0.0
H  H12  1  0.36220908  0.51118212  0.95773642  1  0.034966  -4e-06  0.095826  0.094772  -7e-06  1.024541  0.0
H  H13  1  0.14905681  0.63814159  0.29104045  1  0.033497  4e-06  0.09562  0.094473  6e-06  1.024853  0.0
H  H14  1  0.48892451  0.85097077  0.62439295  1  0.035309  2e-05  0.09563  0.094523  1.1e-05  1.024886  0.0
H  H15  1  0.57106097  0.48271076  0.38611479  1  0.060332  -7e-06  0.090522  0.081646  -1.3e-05  1.037814  0.0
H  H16  1  0.51757624  0.08864566  0.05281670  1  0.021209  5e-06  0.090436  0.081944  1.2e-05  1.038121  0.0
H  H17  1  0.91136069  0.42910261  0.71945622  1  0.019562  -1e-05  0.090399  0.081738  -1.5e-05  1.038031  0.0
H  H18  1  0.08862018  0.51762741  0.94721465  1  0.021667  -6e-06  0.090453  0.081872  -1.3e-05  1.037792  0.0
H  H19  1  0.42917639  0.91166049  0.28052809  1  0.056826  7e-06  0.090396  0.081871  1.3e-05  1.038003  0.0
H  H20  1  0.48245243  0.57095539  0.61388698  1  0.014588  -1e-05  0.09033  0.081665  -1.5e-05  1.037959  0.0
H  H21  1  0.33047330  0.35537201  0.34318336  1  0.080018  -1.2e-05  0.094519  0.091905  -1.7e-05  1.068232  0.0
H  H22  1  0.64473049  0.97527276  0.00987743  1  0.080866  1.2e-05  0.094703  0.092228  1.6e-05  1.067925  0.0
H  H23  1  0.02474910  0.66954942  0.67648439  1  0.085971  -2e-06  0.0946  0.092142  -7e-06  1.068041  0.0
H  H24  1  0.97525452  0.64472333  0.99017345  1  0.081094  -1.2e-05  0.094574  0.092111  -1.7e-05  1.068138  0.0
H  H25  1  0.66961262  0.02494327  0.32349289  1  0.087122  1.2e-05  0.0946  0.092032  1.6e-05  1.067978  0.0
H  H26  1  0.35530168  0.33045811  0.65684751  1  0.080539  -2e-06  0.094594  0.092079  -7e-06  1.068022  0.0
H  H27  1  0.37614514  0.25002339  0.28862141  1  0.059798  5e-06  0.09661  0.097707  9e-06  1.023308  0.0
H  H28  1  0.75004866  0.12629912  0.95530376  1  0.070275  -4e-06  0.096463  0.097147  -1e-05  1.023622  0.0
H  H29  1  0.87372472  0.62370017  0.62191280  1  0.0609  3e-06  0.096657  0.097558  -6e-06  1.023456  0.0
H  H30  1  0.12628887  0.74994753  0.04474093  1  0.067189  4e-06  0.096614  0.097602  9e-06  1.023685  0.0
H  H31  1  0.62375040  0.87381642  0.37806042  1  0.060878  -5e-06  0.096623  0.097601  -1e-05  1.023434  0.0
H  H32  1  0.25001722  0.37624531  0.71140855  1  0.058591  3e-06  0.096611  0.097556  -6e-06  1.023191  0.0
H  H33  1  0.04013197  0.32289618  0.18043865  1  0.158107  -0.002024  0.115037  0.088327  -0.000968  1.040478  -0.001
H  H34  1  0.67716629  0.71719691  0.84710396  1  0.16153  0.002031  0.115137  0.088405  0.000933  1.040298  0.001
H  H35  1  0.28289964  0.95979955  0.51375791  1  0.153056  0.00203  0.115114  0.088382  0.00093  1.040109  0.001
H  H36  1  0.71726217  0.67719415  0.15291301  1  0.161767  -0.002022  0.115151  0.088217  -0.000969  1.040588  -0.001
H  H37  1  0.95983944  0.28265925  0.48619883  1  0.15265  0.002027  0.115068  0.08799  0.000929  1.040678  0.001
H  H38  1  0.32294900  0.04010326  0.81955863  1  0.156447  0.002034  0.115068  0.088238  0.000934  1.040094  0.001
H  H39  1  0.19780939  0.63316394  0.15890143  1  0.099162  -0.001265  0.1064  0.112125  -0.000682  1.021713  -0.001
H  H40  1  0.36686493  0.56456571  0.82558397  1  0.088862  0.001265  0.10632  0.111879  0.00066  1.021542  0.001
H  H41  1  0.43578589  0.80237902  0.49225676  1  0.090067  0.001266  0.106221  0.111926  0.000661  1.02145  0.001
H  H42  1  0.56476522  0.36696835  0.17445532  1  0.086122  -0.001267  0.106425  0.111988  -0.000682  1.021793  -0.001
H  H43  1  0.80220041  0.43519863  0.50774872  1  0.091378  0.001262  0.106368  0.111859  0.000659  1.021847  0.001
H  H44  1  0.63320532  0.19778587  0.84110116  1  0.09857  0.001265  0.106375  0.111994  0.00066  1.021889  0.001
H  H45  1  0.06358147  0.71234644  0.11045383  1  0.05524  -0.000199  0.111146  0.104444  -0.00012  0.988083  0.0
H  H46  1  0.28765474  0.35115066  0.77713491  1  0.092788  0.0002  0.111105  0.104455  0.000114  0.987856  0.0
H  H47  1  0.64906692  0.93662567  0.44378738  1  0.06564  0.000201  0.11115  0.104849  0.000115  0.988051  0.0
H  H48  1  0.35138874  0.28774194  0.22291654  1  0.093038  -0.000199  0.110933  0.104184  -0.00012  0.988227  0.0
H  H49  1  0.93640740  0.64844108  0.55623225  1  0.060368  0.000197  0.110885  0.104057  0.000114  0.988383  0.0
H  H50  1  0.71234025  0.06364536  0.88957624  1  0.055917  0.0002  0.111  0.104275  0.000114  0.988051  0.0
H  H51  1  0.78837391  0.47648961  0.08376235  1  0.138948  -0.000906  0.111967  0.118685  -0.000494  1.028016  -0.001
H  H52  1  0.52355606  0.31193292  0.75042308  1  0.130813  0.000913  0.111935  0.118672  0.000481  1.027977  0.001
H  H53  1  0.68783965  0.21147330  0.41701866  1  0.133392  0.000906  0.111805  0.118438  0.000477  1.028301  0.001
H  H54  1  0.31203162  0.52358057  0.24960942  1  0.132692  -0.000905  0.11182  0.118508  -0.000494  1.028468  -0.001
H  H55  1  0.21150713  0.68757236  0.58293253  1  0.135902  0.000908  0.112028  0.118418  0.00048  1.028207  0.001
H  H56  1  0.47641176  0.78849107  0.91628686  1  0.137252  0.000907  0.111844  0.118522  0.000478  1.028036  0.001
H  H57  1  0.64952719  0.17227379  0.10825031  1  0.121865  -0.001755  0.119405  0.092031  -0.000846  1.014145  -0.001
H  H58  1  0.82780312  0.47736285  0.77489899  1  0.117736  0.001754  0.119322  0.091878  0.000814  1.014153  0.001
H  H59  1  0.52224162  0.35010358  0.44149199  1  0.123546  0.001749  0.119461  0.091728  0.000815  1.01474  0.002
H  H60  1  0.47736039  0.82777846  0.22511522  1  0.118606  -0.00175  0.119351  0.091929  -0.000846  1.014441  -0.001
H  H61  1  0.35026996  0.52216518  0.55843222  1  0.121492  0.001748  0.11937  0.091848  0.000812  1.013921  0.001
H  H62  1  0.17221653  0.64964641  0.89178380  1  0.132218  0.001751  0.119318  0.09174  0.000815  1.014371  0.002
H  H63  1  0.07117902  0.21409610  0.26150353  1  0.646999  7e-06  0.292051  0.335593  -5e-06  1.00179  0.0
H  H64  1  0.78611005  0.85731850  0.92817937  1  0.636925  -7e-06  0.292194  0.33568  4e-06  1.001488  0.0
H  H65  1  0.14280514  0.92854506  0.59482110  1  0.638724  -8e-06  0.292369  0.335588  5e-06  1.002233  0.0
H  H66  1  0.85736094  0.78609880  0.07182824  1  0.636705  7e-06  0.292252  0.335962  -5e-06  1.001406  0.0
H  H67  1  0.92857719  0.14282707  0.40511687  1  0.636619  -7e-06  0.291727  0.334819  4e-06  1.002988  0.0
H  H68  1  0.21401053  0.07123526  0.73847773  1  0.637043  -8e-06  0.291845  0.335089  6e-06  1.002302  0.0
H  H69  1  0.29350938  0.98952509  0.14735871  1  0.586466  4.8e-05  0.31917  0.395238  1e-06  0.894555  0.0
H  H70  1  0.01082253  0.30474063  0.81396972  1  0.583686  -4.8e-05  0.319196  0.395091  -1e-06  0.894735  0.0
H  H71  1  0.69568208  0.70618148  0.48078994  1  0.598402  -4.9e-05  0.319742  0.395701  -2e-06  0.893772  0.0
H  H72  1  0.30530436  0.01092174  0.18613010  1  0.594973  4.6e-05  0.319337  0.394827  0.0  0.894725  0.0
H  H73  1  0.70462354  0.69291993  0.51954441  1  0.600151  -4.7e-05  0.319799  0.39538  -1e-06  0.894417  0.0
H  H74  1  0.98936583  0.29403757  0.85274239  1  0.588532  -4.8e-05  0.319175  0.395256  -1e-06  0.894546  0.0
C  C75  1  0.66678815  0.24011621  0.26996782  1  -0.004599  0.000642  -0.083673  -0.12008  0.000296  4.006874  0.0
C  C76  1  0.76010769  0.42692871  0.93666504  1  0.004036  -0.00064  -0.083077  -0.118775  -0.000332  4.0068  0.0
C  C77  1  0.57309193  0.33305558  0.60328735  1  -0.02106  -3.7e-05  -0.083481  -0.119699  8.2e-05  4.00763  0.0
C  C78  1  0.42694619  0.76005852  0.06336789  1  0.005382  0.000643  -0.083377  -0.119719  0.000296  4.007203  0.0
C  C79  1  0.33309603  0.57318764  0.39667471  1  -0.020187  -0.000641  -0.083157  -0.119488  -0.000335  4.006924  0.0
C  C80  1  0.23992761  0.66683437  0.73002036  1  -0.00851  -4.2e-05  -0.083234  -0.119225  8.1e-05  4.006503  0.0
C  C81  1  0.81572501  0.22832942  0.26435147  1  -0.038748  -0.009083  -0.043041  -0.181977  -0.006828  4.028365  -0.007
C  C82  1  0.77190757  0.58765449  0.93105888  1  -0.049362  0.0091  -0.042925  -0.182144  0.006598  4.028455  0.007
C  C83  1  0.41242075  0.18408680  0.59767445  1  -0.05146  0.009054  -0.043025  -0.182172  0.006552  4.029153  0.007
C  C84  1  0.58768205  0.77186971  0.06897352  1  -0.051919  -0.0091  -0.043166  -0.182546  -0.006834  4.029633  -0.007
C  C85  1  0.18410598  0.41248143  0.40227221  1  -0.049895  0.009143  -0.043354  -0.182107  0.006612  4.028444  0.007
C  C86  1  0.22817601  0.81577438  0.73562345  1  -0.038884  0.009028  -0.043202  -0.182228  0.00656  4.028839  0.007
C  C87  1  0.94844568  0.28653988  0.29009128  1  0.505247  -0.001214  0.086577  0.2483  -0.000824  4.053186  -0.001
C  C88  1  0.71378146  0.66222909  0.95678612  1  0.48076  0.001215  0.08623  0.248554  0.000784  4.054557  0.001
C  C89  1  0.33787858  0.05140604  0.62342295  1  0.517309  0.001821  0.086323  0.248284  0.001199  4.053632  0.001
C  C90  1  0.66222192  0.71374520  0.04323299  1  0.483443  -0.001215  0.086366  0.248707  -0.000825  4.053267  -0.001
C  C91  1  0.05142693  0.33802051  0.37653003  1  0.516238  0.001202  0.086144  0.247888  0.000788  4.053777  0.001
C  C92  1  0.28631876  0.94846747  0.70988300  1  0.504426  0.00184  0.086297  0.248417  0.0012  4.05439  0.001
C  C93  1  0.92951361  0.35769102  0.32035314  1  0.054649  -0.000383  -0.021326  -0.077908  -0.000293  3.965807  0.0
C  C94  1  0.64268176  0.57218185  0.98705266  1  0.049782  0.000376  -0.021043  -0.077847  0.00028  3.965044  0.0
C  C95  1  0.42792173  0.07044428  0.65369818  1  0.043986  0.001212  -0.021055  -0.077746  0.000852  3.96517  0.001
C  C96  1  0.57217550  0.64265530  0.01296335  1  0.089143  -0.000373  -0.021176  -0.078134  -0.000294  3.965155  0.0
C  C97  1  0.07047938  0.42812907  0.34626860  1  0.043442  0.000384  -0.02081  -0.077623  0.00028  3.965946  0.0
C  C98  1  0.35739928  0.92947667  0.67961652  1  0.056368  0.001212  -0.020927  -0.077815  0.000853  3.965108  0.001
C  C99  1  0.77459148  0.36670546  0.32607783  1  0.018099  0.000365  0.001704  0.059944  0.000251  3.966635  0.0
C  C100  1  0.63364615  0.40822198  0.99278547  1  0.024595  -0.000365  0.001647  0.059937  -0.00026  3.965985  0.0
C  C101  1  0.59183535  0.22543431  0.65942800  1  -0.043136  -0.000255  0.001726  0.060113  -0.000191  3.966012  0.0
C  C102  1  0.40823072  0.63365323  0.00723793  1  0.023497  0.000365  0.001686  0.060094  0.000251  3.965758  0.0
C  C103  1  0.22544774  0.59204373  0.34055108  1  0.002619  -0.000366  0.001439  0.059496  -0.000261  3.966752  0.0
C  C104  1  0.36636430  0.77450459  0.67388687  1  -0.030256  -0.000257  0.001601  0.059724  -0.000191  3.965976  0.0
C  C105  1  0.74674227  0.43444895  0.35668601  1  -0.052263  -6.6e-05  -0.098064  -0.139115  -4.3e-05  3.993203  0.0
C  C106  1  0.56590848  0.31258872  0.02340224  1  -0.057248  6.7e-05  -0.098386  -0.139592  4e-05  3.993759  0.0
C  C107  1  0.68741110  0.25338948  0.69004390  1  -0.04872  0.000252  -0.098386  -0.139659  0.000165  3.993662  0.0
C  C108  1  0.31260722  0.56595273  0.97662544  1  -0.054705  -6.6e-05  -0.098502  -0.139826  -4.2e-05  3.993536  0.0
C  C109  1  0.25340155  0.68767817  0.30994052  1  -0.03277  6.7e-05  -0.097989  -0.138934  4.1e-05  3.994224  0.0
C  C110  1  0.43409439  0.74658993  0.64328023  1  -0.044366  0.000252  -0.098307  -0.139427  0.000165  3.993982  0.0
C  C111  1  0.59058603  0.43044117  0.36248212  1  -0.086015  0.000437  -0.093541  -0.071433  0.000288  4.026776  0.0
C  C112  1  0.56981820  0.16040069  0.02919004  1  -0.045799  -0.000434  -0.093176  -0.071088  -0.000297  4.027287  0.0
C  C113  1  0.83958402  0.40953221  0.69582796  1  -0.03595  -0.000276  -0.093438  -0.071275  -0.000189  4.026869  0.0
C  C114  1  0.16041411  0.56987523  0.97084132  1  -0.04545  0.000435  -0.093473  -0.071474  0.000288  4.026602  0.0
C  C115  1  0.40957776  0.83984330  0.30415842  1  -0.09226  -0.000437  -0.093433  -0.07147  -0.000298  4.027412  0.0
C  C116  1  0.43015876  0.59047025  0.63750309  1  -0.047195  -0.000276  -0.093295  -0.071197  -0.000189  4.027087  0.0
C  C117  1  0.45437145  0.36092289  0.33812441  1  0.010994  -0.000117  -0.098056  -0.08184  -8.6e-05  4.010465  0.0
C  C118  1  0.63922830  0.09366215  0.00482447  1  0.077762  0.000119  -0.098554  -0.082776  8.2e-05  4.010024  0.0
C  C119  1  0.90632805  0.54564187  0.67144844  1  0.023797  0.000141  -0.098139  -0.082104  9.1e-05  4.010032  0.0
C  C120  1  0.09366102  0.63924713  0.99521525  1  0.078726  -0.000118  -0.09798  -0.081949  -8.5e-05  4.010266  0.0
C  C121  1  0.54569668  0.90653287  0.32853545  1  0.020905  0.000118  -0.098334  -0.082255  8.3e-05  4.010315  0.0
C  C122  1  0.36075955  0.45435461  0.66187777  1  0.01375  0.000142  -0.098131  -0.081968  9.1e-05  4.010278  0.0
C  C123  1  0.48017164  0.30184892  0.30760214  1  -0.080239  0.000339  -0.089203  -0.117715  0.000241  3.975316  0.0
C  C124  1  0.69830566  0.17854717  0.97429733  1  -0.159952  -0.000339  -0.089013  -0.116659  -0.000248  3.974118  0.0
C  C125  1  0.82146196  0.51976048  0.64091933  1  -0.093839  -0.000157  -0.089412  -0.117862  -0.000124  3.9747  0.0
C  C126  1  0.17853753  0.69827460  0.02574000  1  -0.156455  0.00034  -0.089564  -0.11808  0.000241  3.975565  0.0
C  C127  1  0.51979441  0.82159344  0.35905888  1  -0.091068  -0.000339  -0.089201  -0.117701  -0.000249  3.975202  0.0
C  C128  1  0.30168509  0.48019179  0.69239998  1  -0.076775  -0.000158  -0.08933  -0.117839  -0.000124  3.974609  0.0
C  C129  1  0.63934084  0.30391361  0.30070189  1  -0.009368  -0.000107  -0.016628  0.050335  -1.9e-05  4.044546  0.0
C  C130  1  0.69634562  0.33572218  0.96740024  1  -0.011845  0.000107  -0.016422  0.049879  1.6e-05  4.045113  0.0
C  C131  1  0.66430068  0.36058674  0.63403111  1  0.034192  9.3e-05  -0.016318  0.050841  6e-06  4.043633  0.0
C  C132  1  0.33572563  0.69631618  0.03262981  1  -0.016112  -0.000107  -0.016251  0.050983  -1.9e-05  4.043601  0.0
C  C133  1  0.36061307  0.66445683  0.36594291  1  -0.01055  0.000107  -0.016529  0.050642  1.6e-05  4.044446  0.0
C  C134  1  0.30365352  0.63933177  0.69928379  1  0.036775  9.4e-05  -0.016452  0.050558  6e-06  4.043903  0.0
C  C135  1  0.83656032  0.15376125  0.23202896  1  1.513512  0.000837  0.202471  0.582766  -0.0006  4.192945  0.003
C  C136  1  0.84636229  0.68298654  0.89870674  1  1.513505  -0.000825  0.201896  0.581687  0.0004  4.193092  -0.003
C  C137  1  0.31707185  0.16310029  0.56533396  1  1.529385  -0.000853  0.201794  0.581765  0.000407  4.194197  -0.003
C  C138  1  0.68304709  0.84633903  0.10130765  1  1.516044  0.000819  0.201972  0.581815  -0.000606  4.193921  0.003
C  C139  1  0.16316564  0.31696513  0.43460275  1  1.528556  -0.000856  0.201995  0.581472  0.000403  4.192981  -0.003
C  C140  1  0.15371975  0.83668483  0.76796201  1  1.513303  -0.000823  0.202039  0.581854  0.000406  4.193935  -0.003
C  C141  1  0.98979432  0.36375219  0.15915303  1  0.447305  1.3e-05  0.046004  0.088696  -0.000971  3.921167  0.0
C  C142  1  0.63632144  0.62601639  0.82581859  1  0.398634  -1.2e-05  0.046207  0.088732  0.000798  3.921719  0.0
C  C143  1  0.37403784  0.01014880  0.49246683  1  0.422124  -8e-06  0.046123  0.088785  0.000808  3.920942  0.0
C  C144  1  0.62607847  0.63633216  0.17419689  1  0.395422  6e-06  0.04614  0.089131  -0.000966  3.921119  0.0
C  C145  1  0.01018435  0.37378034  0.50749101  1  0.418174  -4e-06  0.046286  0.089622  0.000799  3.921639  0.0
C  C146  1  0.36376278  0.98975929  0.84085530  1  0.44981  -2.3e-05  0.04625  0.089036  0.000797  3.921093  0.0
C  C147  1  0.07566570  0.53535515  0.14712183  1  -0.064776  -0.005631  -0.081726  -0.126573  -0.004024  3.965069  -0.004
C  C148  1  0.46470144  0.54026326  0.81379663  1  0.008239  0.005514  -0.081656  -0.126347  0.003885  3.96472  0.004
C  C149  1  0.45993756  0.92444064  0.48045297  1  -0.007975  0.005526  -0.081177  -0.125641  0.003882  3.963781  0.004
C  C150  1  0.54039637  0.46474592  0.18623511  1  0.018922  -0.005503  -0.081936  -0.126793  -0.004021  3.965508  -0.004
C  C151  1  0.92433588  0.45948892  0.51953057  1  -0.011674  0.005506  -0.082258  -0.127347  0.003877  3.96573  0.004
C  C152  1  0.53537274  0.07565760  0.85288868  1  -0.063976  0.005635  -0.081571  -0.126523  0.003885  3.965115  0.004
C  C153  1  0.00198771  0.57862372  0.12011419  1  0.027244  0.003091  -0.058836  -0.017012  0.002083  3.948622  0.002
C  C154  1  0.42140599  0.42332173  0.78678739  1  -0.033763  -0.00309  -0.058918  -0.017326  -0.002155  3.948362  -0.002
C  C155  1  0.57679684  0.99809238  0.45342876  1  0.017043  -0.003079  -0.059353  -0.018408  -0.002152  3.948779  -0.002
C  C156  1  0.42348035  0.42145481  0.21324760  1  -0.042431  0.003092  -0.058705  -0.016895  0.00208  3.948284  0.002
C  C157  1  0.99798304  0.57632344  0.54655668  1  0.026321  -0.003074  -0.058594  -0.016667  -0.00215  3.948353  -0.002
C  C158  1  0.57862336  0.00204755  0.87990742  1  0.027541  -0.00309  -0.058887  -0.01703  -0.002157  3.948271  -0.002
C  C159  1  0.84724863  0.44841958  0.10543031  1  -0.064165  -0.005344  -0.075139  -0.11264  -0.003888  3.935505  -0.004
C  C160  1  0.55163990  0.39886769  0.77209537  1  0.018581  0.005247  -0.075087  -0.112674  0.003757  3.93566  0.004
C  C161  1  0.60101626  0.15263523  0.43870488  1  -0.030852  0.005298  -0.074711  -0.112185  0.003755  3.934402  0.004
C  C162  1  0.39895641  0.55164781  0.22793518  1  0.017435  -0.005245  -0.07494  -0.112505  -0.003889  3.934929  -0.004
C  C163  1  0.15264702  0.60072639  0.56124769  1  -0.031588  0.005303  -0.075023  -0.112202  0.003753  3.934528  0.004
C  C164  1  0.44835376  0.84733515  0.89460172  1  -0.063047  0.005345  -0.07479  -0.112333  0.003756  3.934374  0.004
C  C165  1  0.76964991  0.27970977  0.11874929  1  0.44716  0.00094  0.049579  0.092072  4.3e-05  3.919066  0.001
C  C166  1  0.72035086  0.49000643  0.78540868  1  0.39513  -0.00083  0.049689  0.092131  -0.000183  3.919508  -0.001
C  C167  1  0.50976810  0.23009217  0.45201503  1  0.417121  -0.000858  0.049537  0.092694  -0.000183  3.918701  -0.001
C  C168  1  0.49002281  0.72035248  0.21460813  1  0.394253  0.000826  0.049728  0.092212  4e-05  3.918943  0.001
C  C169  1  0.23022106  0.50961531  0.54791605  1  0.419312  -0.000874  0.049774  0.092385  -0.000188  3.917995  -0.001
C  C170  1  0.27967090  0.76972980  0.88127482  1  0.437183  -0.000923  0.049822  0.092579  -0.000186  3.919246  -0.001
N  N171  1  0.83855329  0.23847512  0.14530427  1  -1.188903  -0.08547  -0.343539  -0.228632  -0.061  3.614712  -0.074
N  N172  1  0.76154524  0.60008747  0.81196282  1  -1.200757  0.085589  -0.343699  -0.228299  0.058826  3.615421  0.074
N  N173  1  0.39976425  0.16121944  0.47858608  1  -1.206149  0.085574  -0.344207  -0.229378  0.058862  3.615527  0.074
N  N174  1  0.60010874  0.76157969  0.18804826  1  -1.198181  -0.085557  -0.343682  -0.228537  -0.060984  3.614696  -0.074
N  N175  1  0.16134899  0.39963070  0.52134710  1  -1.205394  0.085443  -0.343581  -0.228638  0.058756  3.614202  0.074
N  N176  1  0.23851524  0.83860665  0.85471283  1  -1.190732  0.085477  -0.344099  -0.229094  0.05884  3.616216  0.074
O  O177  1  0.09306141  0.27297022  0.28469229  1  -1.172168  0.000264  -0.349563  -0.442238  0.000202  2.32658  0.0
O  O178  1  0.72730091  0.82034081  0.95137713  1  -1.16409  -0.000263  -0.349681  -0.442408  -0.000209  2.327381  0.0
O  O179  1  0.17975111  0.90671979  0.61802035  1  -1.173171  0.000124  -0.349928  -0.442425  3.9e-05  2.327713  0.0
O  O180  1  0.82038752  0.72726601  0.04863689  1  -1.164502  0.000265  -0.349859  -0.442864  0.000202  2.326716  0.0
O  O181  1  0.90675951  0.17988121  0.38192311  1  -1.170352  -0.000263  -0.349292  -0.441657  -0.000208  2.327225  0.0
O  O182  1  0.27282411  0.09307359  0.71528316  1  -1.162905  0.000123  -0.34932  -0.441834  3.9e-05  2.327885  0.0
O  O183  1  0.97176428  0.13994472  0.22688246  1  -1.174045  -0.002155  -0.333664  -0.574048  -0.001193  2.140878  -0.002
O  O184  1  0.86011589  0.83197974  0.89354775  1  -1.17565  0.00215  -0.333332  -0.573594  0.001088  2.141445  0.002
O  O185  1  0.16812649  0.02783107  0.56018172  1  -1.183897  0.002123  -0.333396  -0.573643  0.00107  2.142156  0.002
O  O186  1  0.83206014  0.86013885  0.10646058  1  -1.176175  -0.002152  -0.333262  -0.573575  -0.00119  2.141215  -0.002
O  O187  1  0.02787314  0.16795985  0.43973766  1  -1.184788  0.002156  -0.333089  -0.573064  0.001092  2.141374  0.002
O  O188  1  0.13998263  0.97191688  0.77311083  1  -1.173078  0.002134  -0.333211  -0.573396  0.001075  2.142161  0.002
O  O189  1  0.71157352  0.10776937  0.21026659  1  -1.129321  -0.110928  -0.334724  -0.547538  -0.076005  2.405563  -0.1
O  O190  1  0.89228695  0.60393731  0.87694256  1  -1.128747  0.110944  -0.334595  -0.547223  0.073287  2.404806  0.1
O  O191  1  0.39603904  0.28806323  0.54356358  1  -1.130604  0.110852  -0.334507  -0.547085  0.073227  2.404958  0.1
O  O192  1  0.60401188  0.89226931  0.12306898  1  -1.130318  -0.110958  -0.334601  -0.547015  -0.076039  2.405481  -0.1
O  O193  1  0.28817063  0.39586738  0.45636581  1  -1.129219  0.111075  -0.334297  -0.546453  0.073346  2.40497  0.1
O  O194  1  0.10776265  0.71172893  0.78973100  1  -1.130199  0.110897  -0.334701  -0.547278  0.073255  2.405016  0.1
O  O195  1  0.36705129  0.00003075  0.16665384  1  -1.169297  0.000557  -0.572343  -0.749766  0.00041  1.92425  0.0
O  O196  1  0.00003903  0.36710378  0.83335103  1  -1.160039  -0.000556  -0.572179  -0.750075  -0.000428  1.924027  0.0
O  O197  1  0.63203108  0.63222429  0.49999708  1  -1.187238  -0.000571  -0.573272  -0.750897  -0.000431  1.924586  0.0
