# generated using pymatgen
data_AlH15(C2O)12
_symmetry_space_group_name_H-M   'P 1'
_cell_length_a   3.96768498
_cell_length_b   28.49055808
_cell_length_c   28.49011491
_cell_angle_alpha   119.99949048
_cell_angle_beta   89.99893735
_cell_angle_gamma   89.99992255
_symmetry_Int_Tables_number   1
_chemical_formula_structural   AlH15(C2O)12
_chemical_formula_sum   'Al2 H30 C48 O24'
_cell_volume   2789.10717255
_cell_formula_units_Z   2
loop_
 _symmetry_equiv_pos_site_id
 _symmetry_equiv_pos_as_xyz
  1  'x, y, z'
loop_
 _atom_site_type_symbol
 _atom_site_label
 _atom_site_symmetry_multiplicity
 _atom_site_fract_x
 _atom_site_fract_y
 _atom_site_fract_z
 _atom_site_occupancy
 _atom_site_pbe_bader_charge
 _atom_site_pbe_bader_spin_density
 _atom_site_pbe_cm5_charge
 _atom_site_pbe_ddec_charge
 _atom_site_pbe_ddec_spin_density
 _atom_site_pbe_ddec_sum_bond_order
 _atom_site_pbe_magmom
Al  Al0  1  0.01043404  0.50000228  0.49999854  1  2.504376  0  0.426803  1.59524  0  2.54779  0
Al  Al1  1  0.01045173  0.16666642  0.83333213  1  2.504281  0  0.426772  1.595259  0  2.547747  0
H  H2  1  0.19690171  0.24303667  0.65534408  1  0.095351  0  0.108913  0.133452  0  0.991137  0
H  H3  1  0.77120447  0.36821301  0.78925705  1  0.074156  0  0.110698  0.13635  0  0.980262  0
H  H4  1  0.77116298  0.29845253  0.54407044  1  0.074142  0  0.11073  0.136345  0  0.980103  0
H  H5  1  0.19685137  0.42363044  0.67798713  1  0.094982  0  0.108853  0.13343  0  0.991165  0
H  H6  1  0.50451680  0.38665547  0.72126634  1  0.073515  0  0.106242  0.106313  0  0.987706  0
H  H7  1  0.50443129  0.28000916  0.61205582  1  0.073527  0  0.106318  0.106421  0  0.987571  0
H  H8  1  0.19690404  0.91231321  0.75697032  1  0.081139  0  0.108876  0.133425  0  0.991154  0
H  H9  1  0.77117152  0.92104101  0.63178059  1  0.067597  0  0.110715  0.136327  0  0.980048  0
H  H10  1  0.77115528  0.74561852  0.70155223  1  0.067889  0  0.110775  0.136393  0  0.98001  0
H  H11  1  0.19680838  0.75435620  0.57637899  1  0.07982  0  0.108815  0.133348  0  0.991118  0
H  H12  1  0.50447864  0.83460941  0.61334485  1  0.067336  0  0.106245  0.106289  0  0.987642  0
H  H13  1  0.50442879  0.83205543  0.72000100  1  0.067125  0  0.106316  0.106372  0  0.987634  0
H  H14  1  0.19690822  0.34465407  0.08768395  1  0.096859  0  0.108859  0.133422  0  0.991124  0
H  H15  1  0.77120158  0.21073982  0.07895690  1  0.067771  0  0.110706  0.136323  0  0.980124  0
H  H16  1  0.77114841  0.45593615  0.25437956  1  0.067936  0  0.110807  0.136415  0  0.980075  0
H  H17  1  0.19689292  0.32201720  0.24564145  1  0.096575  0  0.108888  0.133477  0  0.991155  0
H  H18  1  0.50451358  0.27873506  0.16538929  1  0.07066  0  0.106248  0.106325  0  0.987656  0
H  H19  1  0.50447250  0.38794342  0.16794403  1  0.070305  0  0.10628  0.106332  0  0.987638  0
H  H20  1  0.85470815  0.28658461  0.84850104  1  0.63603  0  0.314987  0.3568  0  0.946811  0
H  H21  1  0.16353596  0.16466919  0.71849759  1  0.633258  0  0.315244  0.358105  0  0.943392  0
H  H22  1  0.16352584  0.50200073  0.61482960  1  0.633136  0  0.315292  0.358106  0  0.943711  0
H  H23  1  0.85470382  0.38008047  0.48482504  1  0.636008  0  0.314941  0.356699  0  0.9469  0
H  H24  1  0.85469303  0.06191194  0.71340677  1  0.637747  0  0.315066  0.356883  0  0.946851  0
H  H25  1  0.16353392  0.05383751  0.83533479  1  0.610404  0  0.315304  0.358167  0  0.943742  0
H  H26  1  0.16350771  0.61283366  0.49800378  1  0.610328  0  0.315233  0.358185  0  0.943568  0
H  H27  1  0.85466349  0.60475337  0.61992400  1  0.637716  0  0.315041  0.356774  0  0.946905  0
H  H28  1  0.85469794  0.15149438  0.93808144  1  0.633452  0  0.314988  0.35681  0  0.946873  0
H  H29  1  0.16351785  0.28149930  0.94616512  1  0.651835  0  0.315298  0.358153  0  0.943646  0
H  H30  1  0.16354142  0.38516995  0.38716626  1  0.651868  0  0.315292  0.358169  0  0.943614  0
H  H31  1  0.85468377  0.51517376  0.39524649  1  0.633857  0  0.315048  0.35688  0  0.946822  0
C  C32  1  0.50960999  0.46113036  0.41521966  1  1.4527  0  0.253238  0.647542  0  4.062026  0
C  C33  1  0.50959183  0.45409056  0.53886996  1  1.38421  0  0.253303  0.647766  0  4.061791  0
C  C34  1  0.50957554  0.58478214  0.54590911  1  1.379493  0  0.253082  0.647179  0  4.062233  0
C  C35  1  0.50959901  0.21257510  0.79445605  1  1.384603  0  0.253018  0.647183  0  4.062175  0
C  C36  1  0.50960270  0.08188409  0.78742476  1  1.379945  0  0.253098  0.647216  0  4.062141  0
C  C37  1  0.50958588  0.20553774  0.91811163  1  1.452406  0  0.253323  0.64768  0  4.061768  0
C  C38  1  0.50566122  0.24487282  0.76849568  1  0.053161  0  -0.053509  -0.351868  0  3.989707  0
C  C39  1  0.33121528  0.22675548  0.71826404  1  0.553045  0  0.097827  0.353957  0  4.059969  0
C  C40  1  0.33474779  0.25784073  0.69319183  1  0.0161  0  -0.113995  -0.292638  0  3.934175  0
C  C41  1  0.48845511  0.30914762  0.71877766  1  -0.069829  0  0.002635  0.170954  0  4.078155  0
C  C42  1  0.64794017  0.32875845  0.76914304  1  0.102253  0  -0.111376  -0.290265  0  3.933473  0
C  C43  1  0.67094716  0.29642107  0.79282081  1  0.506907  0  0.099472  0.356515  0  4.058171  0
C  C44  1  0.48717624  0.34290412  0.69366732  1  -0.115144  0  -0.078899  -0.118456  0  3.955677  0
C  C45  1  0.48712192  0.32376188  0.63965987  1  -0.019032  0  -0.079  -0.118539  0  3.955701  0
C  C46  1  0.64788806  0.33790755  0.56418187  1  0.10559  0  -0.111424  -0.290312  0  3.932962  0
C  C47  1  0.48840373  0.35751954  0.61454907  1  -0.072813  0  0.002615  0.170846  0  4.078407  0
C  C48  1  0.33467990  0.40882718  0.64013711  1  0.015772  0  -0.113784  -0.292479  0  3.934221  0
C  C49  1  0.33118059  0.43991188  0.61506477  1  0.552903  0  0.097766  0.354223  0  4.059541  0
C  C50  1  0.50564341  0.42179515  0.56483225  1  0.050627  0  -0.05366  -0.352445  0  3.989531  0
C  C51  1  0.67091798  0.37024669  0.54050501  1  0.510198  0  0.099554  0.356787  0  4.057609  0
C  C52  1  0.50565572  0.02362704  0.75512730  1  0.081786  0  -0.053626  -0.352109  0  3.989575  0
C  C53  1  0.33120252  0.99151297  0.77324575  1  0.457119  0  0.097755  0.354161  0  4.059597  0
C  C54  1  0.33471321  0.93535719  0.74216318  1  0.068777  0  -0.113873  -0.292538  0  3.934184  0
C  C55  1  0.48842600  0.90963284  0.69085275  1  -0.011902  0  0.002567  0.170821  0  4.078263  0
C  C56  1  0.64788787  0.94038598  0.67123962  1  0.063929  0  -0.111363  -0.290249  0  3.93339  0
C  C57  1  0.67091902  0.99639805  0.70357429  1  0.530852  0  0.099566  0.356667  0  4.058025  0
C  C58  1  0.48713055  0.85076508  0.65710074  1  -0.113898  0  -0.078829  -0.118276  0  3.955768  0
C  C59  1  0.48710931  0.81590552  0.67624646  1  -0.014902  0  -0.079  -0.118597  0  3.955985  0
C  C60  1  0.64784425  0.72627680  0.66209625  1  0.06507  0  -0.111494  -0.290442  0  3.933446  0
C  C61  1  0.48838967  0.75703573  0.64248876  1  -0.013281  0  0.002672  0.170993  0  4.07815  0
C  C62  1  0.33465366  0.73131278  0.59118200  1  0.070162  0  -0.113835  -0.292432  0  3.933612  0
C  C63  1  0.33113254  0.67515609  0.56009894  1  0.457142  0  0.097793  0.354213  0  4.059301  0
C  C64  1  0.50561110  0.64303837  0.57821022  1  0.081497  0  -0.053569  -0.351811  0  3.989022  0
C  C65  1  0.67088530  0.67026430  0.62975908  1  0.531814  0  0.099501  0.356452  0  4.057986  0
C  C66  1  0.50566275  0.23149844  0.97636883  1  -0.011693  0  -0.053696  -0.352334  0  3.989451  0
C  C67  1  0.33120366  0.28172956  0.00848635  1  0.55757  0  0.097722  0.354199  0  4.059765  0
C  C68  1  0.33474094  0.30680513  0.06464169  1  -0.011574  0  -0.113932  -0.292701  0  3.934306  0
C  C69  1  0.48845623  0.28121860  0.09036477  1  0.006005  0  0.002574  0.170997  0  4.078287  0
C  C70  1  0.64793439  0.23085546  0.05961176  1  0.086017  0  -0.111346  -0.290267  0  3.933329  0
C  C71  1  0.67094405  0.20717590  0.00359558  1  0.479115  0  0.099519  0.356686  0  4.058033  0
C  C72  1  0.48716180  0.30633572  0.14923461  1  -0.115675  0  -0.078806  -0.118471  0  3.955603  0
C  C73  1  0.48715418  0.36033995  0.18409390  1  -0.026245  0  -0.078916  -0.118343  0  3.955479  0
C  C74  1  0.64788141  0.43581945  0.27372222  1  0.085887  0  -0.111464  -0.290317  0  3.933411  0
C  C75  1  0.48844564  0.38545414  0.24296527  1  -0.002139  0  0.002565  0.170838  0  4.078166  0
C  C76  1  0.33471969  0.35986440  0.26868539  1  -0.003264  0  -0.113902  -0.292629  0  3.933922  0
C  C77  1  0.33119492  0.38493583  0.32484348  1  0.558391  0  0.097856  0.354216  0  4.059578  0
C  C78  1  0.50564439  0.43517048  0.35696167  1  -0.012374  0  -0.053696  -0.352282  0  3.98945  0
C  C79  1  0.67091623  0.45949521  0.32973577  1  0.479119  0  0.099548  0.356668  0  4.057782  0
O  O80  1  0.74217424  0.55766144  0.55438775  1  -1.268817  0  -0.248293  -0.619592  0  2.398214  0
O  O81  1  0.74219201  0.49673275  0.44233973  1  -1.267041  0  -0.248411  -0.619752  0  2.398235  0
O  O82  1  0.74218324  0.44561278  0.50326891  1  -1.269303  0  -0.248368  -0.619769  0  2.398284  0
O  O83  1  0.28016221  0.56008273  0.50889098  1  -1.272517  0  -0.249483  -0.620843  0  2.3897  0
O  O84  1  0.28016232  0.49110638  0.55118583  1  -1.270326  0  -0.249502  -0.620913  0  2.389618  0
O  O85  1  0.28016734  0.44881315  0.43991762  1  -1.270842  0  -0.249454  -0.620801  0  2.389596  0
O  O86  1  0.74216932  0.16993606  0.89099026  1  -1.266891  0  -0.248397  -0.619814  0  2.39826  0
O  O87  1  0.74219070  0.22105236  0.83005985  1  -1.269268  0  -0.248313  -0.619727  0  2.398079  0
O  O88  1  0.74218710  0.10900475  0.77894205  1  -1.268905  0  -0.248331  -0.619626  0  2.398095  0
O  O89  1  0.28015390  0.21785310  0.89341259  1  -1.270693  0  -0.2495  -0.62093  0  2.389666  0
O  O90  1  0.28015903  0.10658362  0.82444054  1  -1.272592  0  -0.249465  -0.620706  0  2.389396  0
O  O91  1  0.28018412  0.17555873  0.78213920  1  -1.270577  0  -0.249463  -0.620711  0  2.389492  0
O  O92  1  0.84225797  0.31620860  0.83991785  1  -1.143292  0  -0.347148  -0.427736  0  2.247395  0
O  O93  1  0.16576555  0.17888179  0.69313049  1  -1.142831  0  -0.34861  -0.430005  0  2.246886  0
O  O94  1  0.16575225  0.48778918  0.64019774  1  -1.142871  0  -0.348662  -0.430125  0  2.246953  0
O  O95  1  0.84225283  0.35045635  0.49340772  1  -1.143058  0  -0.347179  -0.427743  0  2.247375  0
O  O96  1  0.84223451  0.02370572  0.68378155  1  -1.144019  0  -0.347264  -0.427887  0  2.24744  0
O  O97  1  0.16575046  0.01425781  0.82112232  1  -1.119909  0  -0.348676  -0.430204  0  2.246995  0
O  O98  1  0.16570180  0.65241480  0.51221971  1  -1.119907  0  -0.348656  -0.430344  0  2.246911  0
O  O99  1  0.84220319  0.64295869  0.64955158  1  -1.144291  0  -0.347239  -0.427711  0  2.247562  0
O  O100  1  0.84226244  0.16007911  0.97628955  1  -1.141101  0  -0.347159  -0.427781  0  2.247463  0
O  O101  1  0.16573051  0.30686159  0.98574596  1  -1.163426  0  -0.348619  -0.430134  0  2.247116  0
O  O102  1  0.16574948  0.35980265  0.34758690  1  -1.163397  0  -0.348712  -0.430212  0  2.247046  0
O  O103  1  0.84222314  0.50659480  0.35703970  1  -1.141509  0  -0.347265  -0.427887  0  2.247321  0
