# generated using pymatgen
data_FeH8(C6N5)2
_symmetry_space_group_name_H-M   'P 1'
_cell_length_a   9.15483983
_cell_length_b   12.22651453
_cell_length_c   13.05301263
_cell_angle_alpha   89.99998061
_cell_angle_beta   89.99990575
_cell_angle_gamma   90.00123232
_symmetry_Int_Tables_number   1
_chemical_formula_structural   FeH8(C6N5)2
_chemical_formula_sum   'Fe4 H32 C48 N40'
_cell_volume   1461.04696760
_cell_formula_units_Z   4
loop_
 _symmetry_equiv_pos_site_id
 _symmetry_equiv_pos_as_xyz
  1  'x, y, z'
loop_
 _atom_site_type_symbol
 _atom_site_label
 _atom_site_symmetry_multiplicity
 _atom_site_fract_x
 _atom_site_fract_y
 _atom_site_fract_z
 _atom_site_occupancy
 _atom_site_pbe_bader_charge
 _atom_site_pbe_bader_spin_density
 _atom_site_pbe_cm5_charge
 _atom_site_pbe_ddec_charge
 _atom_site_pbe_ddec_spin_density
 _atom_site_pbe_ddec_sum_bond_order
 _atom_site_pbe_magmom
Fe  Fe0  1  0.00000059  0.49999941  0.00000068  1  1.443156  3.632192  0.776397  0.899193  3.888715  2.848538  3.608
Fe  Fe1  1  0.50000052  0.00000070  0.49999999  1  1.443087  3.6322  0.776367  0.899129  3.888714  2.848638  3.608
Fe  Fe2  1  0.00000008  0.99999963  0.00000059  1  1.443017  3.632172  0.776384  0.899046  3.888702  2.848646  3.608
Fe  Fe3  1  0.49999783  0.50000010  0.50000067  1  1.443031  3.63217  0.776426  0.899135  3.888698  2.848586  3.608
H  H4  1  0.93348526  0.74999890  0.00028355  1  0.131338  0.002183  0.130405  0.075764  0.00025  1.011416  0.001
H  H5  1  0.43348408  0.25000027  0.49972112  1  0.131497  0.002184  0.130417  0.075767  0.00025  1.011428  0.001
H  H6  1  0.56651594  0.74999993  0.50027945  1  0.131504  0.002184  0.130411  0.075748  0.00025  1.011447  0.001
H  H7  1  0.06651476  0.25000131  0.99971702  1  0.131333  0.002183  0.130417  0.075809  0.00025  1.01142  0.001
H  H8  1  0.30491973  0.92665725  0.92462759  1  0.142076  0.001571  0.119119  0.083138  -0.000126  1.011306  0.001
H  H9  1  0.80492174  0.42665541  0.57537085  1  0.141833  0.00157  0.119119  0.083141  -0.000126  1.011249  0.001
H  H10  1  0.30493107  0.57336851  0.92462535  1  0.142336  0.001571  0.119145  0.083118  -0.000126  1.011251  0.001
H  H11  1  0.19507131  0.92663354  0.42462813  1  0.142047  0.001571  0.119186  0.083186  -0.000126  1.011284  0.001
H  H12  1  0.69508030  0.07334295  0.07537222  1  0.1421  0.001571  0.119123  0.083126  -0.000126  1.011311  0.001
H  H13  1  0.19507719  0.57334643  0.42462973  1  0.141852  0.00157  0.119147  0.083137  -0.000126  1.01121  0.001
H  H14  1  0.69507005  0.42663088  0.07537522  1  0.142346  0.001571  0.119165  0.083148  -0.000126  1.011328  0.001
H  H15  1  0.80492981  0.07336748  0.57537167  1  0.142071  0.001572  0.119165  0.083161  -0.000126  1.011237  0.001
H  H16  1  0.44230250  0.75001604  0.89383082  1  0.142493  0.001445  0.105852  0.114741  0.000758  1.07309  0.001
H  H17  1  0.94230553  0.25001337  0.60616292  1  0.142487  0.001445  0.105863  0.114764  0.000758  1.073085  0.001
H  H18  1  0.05769450  0.74998847  0.39383765  1  0.142491  0.001445  0.105843  0.114753  0.000758  1.073117  0.001
H  H19  1  0.55769753  0.24998416  0.10616899  1  0.142492  0.001445  0.105851  0.114744  0.000758  1.073098  0.001
H  H20  1  0.21088037  0.74999710  0.19457015  1  0.059008  -0.000133  0.120272  0.068767  -0.000253  0.973657  0.0
H  H21  1  0.71087638  0.24999682  0.30543172  1  0.058967  -0.000132  0.120299  0.068846  -0.000253  0.973632  0.0
H  H22  1  0.28912583  0.75000093  0.69456656  1  0.058939  -0.000133  0.120311  0.068847  -0.000253  0.973584  0.0
H  H23  1  0.78911966  0.25000310  0.80542889  1  0.059011  -0.000133  0.120268  0.068742  -0.000253  0.973661  0.0
H  H24  1  0.59382245  0.92637836  0.16111249  1  0.08219  0.000152  0.112436  0.074998  6e-05  1.003967  0.0
H  H25  1  0.09381618  0.42637651  0.33889865  1  0.082153  0.000152  0.112452  0.074954  6e-05  1.003954  0.0
H  H26  1  0.59381960  0.57362206  0.16112175  1  0.082218  0.000152  0.112413  0.074965  6e-05  1.003793  0.0
H  H27  1  0.90618998  0.92637754  0.66111336  1  0.082153  0.000152  0.112435  0.075017  6e-05  1.003775  0.0
H  H28  1  0.40617758  0.07362103  0.83888655  1  0.082179  0.000152  0.112423  0.074999  6e-05  1.003948  0.0
H  H29  1  0.90618494  0.57362206  0.66110040  1  0.082076  0.000152  0.112456  0.074999  6e-05  1.003942  0.0
H  H30  1  0.40617934  0.42637651  0.83887806  1  0.082231  0.000152  0.11242  0.074982  6e-05  1.003791  0.0
H  H31  1  0.09381442  0.07362103  0.33888722  1  0.082179  0.000152  0.112418  0.074973  6e-05  1.003856  0.0
H  H32  1  0.73607258  0.75000218  0.14286225  1  0.107774  0.00024  0.108336  0.122839  7e-05  1.021473  0.0
H  H33  1  0.23606299  0.25000197  0.35715032  1  0.107862  0.00024  0.108315  0.122724  7e-05  1.021565  0.0
H  H34  1  0.76393594  0.74999906  0.64285025  1  0.107863  0.00024  0.108312  0.122693  7e-05  1.021588  0.0
H  H35  1  0.26392854  0.24999639  0.85713756  1  0.10778  0.00024  0.108336  0.122831  7e-05  1.021495  0.0
C  C36  1  0.04777884  0.75000220  0.97721639  1  1.065801  -0.023393  0.185677  0.245657  -0.026213  3.907965  -0.016
C  C37  1  0.54777988  0.25000201  0.52278546  1  1.065655  -0.023391  0.185651  0.245601  -0.026211  3.90792  -0.016
C  C38  1  0.45222124  0.74999819  0.47721434  1  1.065656  -0.023394  0.185674  0.245675  -0.026214  3.907872  -0.016
C  C39  1  0.95222228  0.24999800  0.02278418  1  1.065794  -0.023394  0.185695  0.245612  -0.026215  3.907954  -0.016
C  C40  1  0.25359214  0.65297868  0.93450278  1  0.412273  -0.037033  0.065081  0.136395  -0.039052  3.90684  -0.023
C  C41  1  0.75359308  0.15297929  0.56549428  1  0.412594  -0.037031  0.065007  0.13625  -0.039051  3.907029  -0.023
C  C42  1  0.25358726  0.84704298  0.93450428  1  0.411932  -0.037031  0.064811  0.136052  -0.039052  3.907263  -0.023
C  C43  1  0.24641073  0.65295907  0.43450710  1  0.412214  -0.037027  0.064836  0.136217  -0.039049  3.907099  -0.023
C  C44  1  0.74640898  0.34702153  0.06549780  1  0.412273  -0.037031  0.065087  0.136379  -0.03905  3.906956  -0.023
C  C45  1  0.24640695  0.84702255  0.43450553  1  0.412547  -0.03703  0.064996  0.136283  -0.03905  3.907074  -0.023
C  C46  1  0.74641276  0.15295723  0.06549553  1  0.411929  -0.03703  0.06485  0.136147  -0.039051  3.907199  -0.023
C  C47  1  0.75358930  0.34704195  0.56549424  1  0.412179  -0.037027  0.064853  0.136096  -0.039048  3.907119  -0.023
C  C48  1  0.32895587  0.75001348  0.91856617  1  0.056245  0.012866  -0.084332  -0.179225  0.004525  3.972818  0.011
C  C49  1  0.82895896  0.25001327  0.58143077  1  0.056222  0.012866  -0.084324  -0.179237  0.004526  3.97278  0.011
C  C50  1  0.17104107  0.74998857  0.41856981  1  0.056228  0.012866  -0.08431  -0.179332  0.004526  3.97281  0.011
C  C51  1  0.67104416  0.24998672  0.08143441  1  0.056251  0.012866  -0.084356  -0.179296  0.004525  3.972837  0.011
C  C52  1  0.08296556  0.41769031  0.76914722  1  1.572274  0.009185  0.314918  0.457507  0.004143  4.257455  0.011
C  C53  1  0.58296839  0.91768805  0.73085300  1  1.572274  0.009183  0.314998  0.457597  0.004141  4.25729  0.011
C  C54  1  0.08296077  0.08231264  0.76914728  1  1.572359  0.009176  0.315125  0.457798  0.004137  4.25745  0.011
C  C55  1  0.41703752  0.41768737  0.26914828  1  1.572354  0.009184  0.315086  0.457765  0.004143  4.257366  0.011
C  C56  1  0.91703228  0.58230825  0.23085259  1  1.572267  0.009183  0.315117  0.457771  0.004142  4.257271  0.011
C  C57  1  0.41703055  0.08231215  0.26914757  1  1.572249  0.009182  0.314985  0.457558  0.004141  4.257325  0.011
C  C58  1  0.91703707  0.91768756  0.23085636  1  1.572305  0.009179  0.315115  0.45775  0.004139  4.257431  0.011
C  C59  1  0.58296250  0.58231283  0.73084923  1  1.572614  0.009179  0.315113  0.457837  0.004142  4.257474  0.011
C  C60  1  0.21132407  0.41734296  0.61747105  1  1.57741  0.023819  0.322538  0.471421  0.012354  4.245762  0.022
C  C61  1  0.71132108  0.91734064  0.88252673  1  1.577598  0.023824  0.322455  0.471315  0.012357  4.245916  0.022
C  C62  1  0.21130836  0.08266704  0.61746728  1  1.577742  0.023815  0.322547  0.471445  0.012351  4.245752  0.022
C  C63  1  0.28868919  0.41733548  0.11746996  1  1.577488  0.023824  0.322583  0.47146  0.012355  4.245571  0.022
C  C64  1  0.78867596  0.58265970  0.38252799  1  1.577548  0.023824  0.322499  0.471328  0.012357  4.245879  0.022
C  C65  1  0.28867677  0.08266120  0.11747308  1  1.577597  0.023822  0.322469  0.471313  0.012356  4.245889  0.022
C  C66  1  0.78868511  0.91733317  0.38253483  1  1.577827  0.023809  0.322508  0.471457  0.012349  4.245872  0.022
C  C67  1  0.71131302  0.58266390  0.88252755  1  1.577495  0.02382  0.322524  0.471461  0.012354  4.245749  0.022
C  C68  1  0.32953893  0.74999725  0.18502976  1  1.094078  -0.000141  0.168228  0.228149  -0.000455  4.024187  0.0
C  C69  1  0.82953383  0.24999778  0.31497274  1  1.094286  -0.000141  0.168251  0.2281  -0.000454  4.024335  0.0
C  C70  1  0.17046729  0.74999997  0.68502707  1  1.094303  -0.000141  0.168206  0.228043  -0.000455  4.024341  0.0
C  C71  1  0.67046110  0.25000214  0.81496928  1  1.094075  -0.000141  0.16827  0.228268  -0.000455  4.024169  0.0
C  C72  1  0.53967399  0.84684749  0.16540733  1  0.491218  -0.000756  0.058289  0.132576  -0.000871  3.954137  0.0
C  C73  1  0.03966774  0.34684646  0.33459777  1  0.491451  -0.000756  0.058336  0.132719  -0.000871  3.954024  0.0
C  C74  1  0.53967341  0.65315451  0.16541119  1  0.491414  -0.000756  0.058272  0.132565  -0.000871  3.954168  0.0
C  C75  1  0.96033615  0.84684672  0.66540430  1  0.491508  -0.000756  0.058318  0.132597  -0.000871  3.953941  0.0
C  C76  1  0.46032603  0.15315190  0.83459171  1  0.491351  -0.000756  0.058356  0.132635  -0.000871  3.954149  0.0
C  C77  1  0.96033338  0.65315293  0.66539974  1  0.491538  -0.000756  0.058334  0.132653  -0.000871  3.954034  0.0
C  C78  1  0.46032662  0.34684488  0.83458938  1  0.49138  -0.000756  0.05827  0.132564  -0.000871  3.954162  0.0
C  C79  1  0.03966716  0.15315266  0.33459397  1  0.491442  -0.000756  0.058366  0.132691  -0.000871  3.954044  0.0
C  C80  1  0.61871387  0.74999959  0.15613818  1  0.027831  0.000397  -0.08548  -0.179309  0.000177  3.945495  0.0
C  C81  1  0.11870432  0.25000020  0.34387299  1  0.027702  0.000397  -0.085615  -0.179337  0.000177  3.945682  0.0
C  C82  1  0.88129680  0.75000000  0.65612452  1  0.02775  0.000397  -0.085568  -0.179234  0.000177  3.945693  0.0
C  C83  1  0.38128616  0.24999979  0.84386163  1  0.027737  0.000397  -0.085513  -0.179349  0.000177  3.945497  0.0
N  N84  1  0.11251431  0.84737635  0.96414656  1  -1.229046  0.054413  -0.317869  -0.273345  0.025697  3.518049  0.047
N  N85  1  0.61251533  0.34737615  0.53585519  1  -1.229027  0.054414  -0.317895  -0.273359  0.025697  3.517931  0.047
N  N86  1  0.11252027  0.65263238  0.96414429  1  -1.228936  0.054412  -0.318105  -0.273618  0.025696  3.517781  0.047
N  N87  1  0.38747984  0.84736802  0.46414382  1  -1.228972  0.054413  -0.318084  -0.273539  0.025696  3.517845  0.047
N  N88  1  0.88748462  0.15262386  0.03585402  1  -1.229032  0.054414  -0.317933  -0.273404  0.025697  3.51799  0.047
N  N89  1  0.38748361  0.65262405  0.46414615  1  -1.229029  0.054415  -0.317915  -0.273494  0.025698  3.51804  0.047
N  N90  1  0.88748085  0.34736783  0.03585705  1  -1.228957  0.054412  -0.318116  -0.273592  0.025696  3.517776  0.047
N  N91  1  0.61252128  0.15263382  0.53585599  1  -1.229  0.054414  -0.318059  -0.273509  0.025696  3.5179  0.047
N  N92  1  0.05358125  0.43497054  0.85555871  1  -1.280735  0.05577  -0.380837  -0.541179  0.026957  3.209231  0.036
N  N93  1  0.55358100  0.93496912  0.64444078  1  -1.280704  0.055769  -0.380863  -0.541224  0.026956  3.209148  0.036
N  N94  1  0.05358033  0.06503273  0.85555341  1  -1.280742  0.055768  -0.38095  -0.541314  0.026954  3.209392  0.036
N  N95  1  0.44641994  0.43496726  0.35555590  1  -1.280791  0.055772  -0.380949  -0.541328  0.026958  3.209337  0.036
N  N96  1  0.94641878  0.56502966  0.14444493  1  -1.280709  0.055766  -0.380978  -0.54135  0.026954  3.209248  0.036
N  N97  1  0.44642121  0.06503272  0.35555903  1  -1.280704  0.055768  -0.380858  -0.541208  0.026956  3.209165  0.036
N  N98  1  0.94641860  0.93496666  0.14444563  1  -1.280643  0.055772  -0.380943  -0.541285  0.026955  3.209262  0.036
N  N99  1  0.55358008  0.56503376  0.64444544  1  -1.28107  0.055774  -0.380891  -0.541218  0.026955  3.209568  0.036
N  N100  1  0.30542869  0.43378095  0.55767330  1  -1.277309  0.060081  -0.386433  -0.546304  0.028978  3.209664  0.031
N  N101  1  0.80543103  0.93377944  0.94232742  1  -1.277212  0.060082  -0.386378  -0.546286  0.028978  3.209561  0.031
N  N102  1  0.30542235  0.06622649  0.55767031  1  -1.277378  0.060078  -0.3864  -0.546375  0.028977  3.209352  0.031
N  N103  1  0.19457316  0.43377441  0.05767002  1  -1.2771  0.060078  -0.386458  -0.546392  0.028977  3.209134  0.031
N  N104  1  0.69456697  0.56622007  0.44232957  1  -1.2773  0.06008  -0.386438  -0.546335  0.028977  3.209567  0.031
N  N105  1  0.19456900  0.06622158  0.05767392  1  -1.27721  0.060081  -0.38639  -0.54629  0.028978  3.209566  0.031
N  N106  1  0.69457768  0.93377290  0.44233027  1  -1.27756  0.060078  -0.386364  -0.546327  0.028977  3.209604  0.031
N  N107  1  0.80542687  0.56622416  0.94232825  1  -1.277124  0.060078  -0.386429  -0.546389  0.028978  3.209231  0.031
N  N108  1  0.10202078  0.39076212  0.67438825  1  -1.337522  0.020549  -0.302196  -0.390104  0.008875  3.581254  0.015
N  N109  1  0.60202339  0.89075901  0.82561120  1  -1.337833  0.02055  -0.302186  -0.390041  0.008875  3.58146  0.015
N  N110  1  0.10201348  0.10924281  0.67438370  1  -1.341721  0.020547  -0.302286  -0.390205  0.008872  3.581325  0.015
N  N111  1  0.39798285  0.39075806  0.17438626  1  -1.337901  0.020547  -0.30224  -0.390184  0.008874  3.581393  0.015
N  N112  1  0.89797816  0.60923645  0.32561462  1  -1.337689  0.02055  -0.302176  -0.390059  0.008875  3.581259  0.015
N  N113  1  0.39797555  0.10924283  0.17438938  1  -1.341627  0.020554  -0.302173  -0.389999  0.008875  3.581408  0.015
N  N114  1  0.89798655  0.89075821  0.32561687  1  -1.341679  0.020547  -0.302266  -0.390213  0.008872  3.581329  0.015
N  N115  1  0.60201936  0.60924215  0.82561278  1  -1.341651  0.02055  -0.302291  -0.390351  0.008874  3.581354  0.015
N  N116  1  0.39449286  0.84799054  0.17981788  1  -1.21491  -0.000574  -0.317535  -0.303052  -0.000793  3.305246  0.0
N  N117  1  0.89448775  0.34799107  0.32018681  1  -1.214938  -0.000574  -0.317543  -0.303065  -0.000793  3.305113  0.0
N  N118  1  0.39449334  0.65200501  0.17982481  1  -1.214786  -0.000574  -0.317464  -0.302988  -0.000793  3.30527  0.0
N  N119  1  0.10551508  0.84799221  0.67982063  1  -1.215071  -0.000574  -0.317485  -0.303036  -0.000793  3.305254  0.0
N  N120  1  0.60550607  0.15200966  0.82018116  1  -1.214924  -0.000574  -0.317589  -0.303147  -0.000793  3.305382  0.0
N  N121  1  0.10551337  0.65200749  0.67981224  1  -1.215028  -0.000574  -0.317555  -0.303078  -0.000793  3.305175  0.0
N  N122  1  0.60550560  0.34799438  0.82017576  1  -1.214791  -0.000574  -0.317467  -0.303018  -0.000793  3.305292  0.0
N  N123  1  0.89448823  0.15200636  0.32017841  1  -1.215068  -0.000574  -0.317514  -0.303101  -0.000793  3.305355  0.0
