# generated using pymatgen
data_Al6H21C63NO30
_symmetry_space_group_name_H-M   'P 1'
_cell_length_a   12.47346522
_cell_length_b   12.26912654
_cell_length_c   27.03314251
_cell_angle_alpha   97.65546285
_cell_angle_beta   90.49905483
_cell_angle_gamma   119.11491434
_symmetry_Int_Tables_number   1
_chemical_formula_structural   Al6H21C63NO30
_chemical_formula_sum   'Al6 H21 C63 N1 O30'
_cell_volume   3569.21590321
_cell_formula_units_Z   1
loop_
 _symmetry_equiv_pos_site_id
 _symmetry_equiv_pos_as_xyz
  1  'x, y, z'
loop_
 _atom_site_type_symbol
 _atom_site_label
 _atom_site_symmetry_multiplicity
 _atom_site_fract_x
 _atom_site_fract_y
 _atom_site_fract_z
 _atom_site_occupancy
 _atom_site_pbe_bader_charge
 _atom_site_pbe_bader_spin_density
 _atom_site_pbe_cm5_charge
 _atom_site_pbe_ddec_charge
 _atom_site_pbe_ddec_spin_density
 _atom_site_pbe_ddec_sum_bond_order
 _atom_site_pbe_magmom
Al  Al0  1  0.41047891  0.81254562  0.48846578  1  2.492324  0  0.400925  1.681424  0  2.559384  0
Al  Al1  1  0.66280433  0.07718650  0.50290220  1  2.482168  0  0.510259  1.660158  0  2.509906  0
Al  Al2  1  0.42378436  0.08232676  0.50420354  1  2.481938  0  0.50906  1.660963  0  2.511677  0
Al  Al3  1  0.92268492  0.84966993  0.02091271  1  2.490864  0  0.3998  1.682159  0  2.563835  0
Al  Al4  1  0.91890062  0.58349428  0.00627771  1  2.483362  0  0.511961  1.661027  0  2.503137  0
Al  Al5  1  0.67556648  0.57954061  0.00377385  1  2.482197  0  0.51011  1.661352  0  2.508793  0
H  H6  1  0.85270761  0.37545999  0.30764496  1  0.09451  0  0.124024  0.146078  0  0.968773  0
H  H7  1  0.84682918  0.97758694  0.80983588  1  0.09375  0  0.118586  0.123781  0  0.968278  0
H  H8  1  0.56387624  0.62930852  0.67609890  1  0.095562  0  0.115023  0.133279  0  1.004484  0
H  H9  1  0.47843251  0.27233682  0.20029819  1  0.107022  0  0.120787  0.126609  0  0.966986  0
H  H10  1  0.46284309  0.24823282  0.29051444  1  0.09816  0  0.117417  0.124953  0  0.975973  0
H  H11  1  0.35824584  0.85641543  0.72006534  1  0.083674  0  0.106234  0.11928  0  1.015115  0
H  H12  1  0.98509267  0.83588772  0.79289834  1  0.078192  0  0.103343  0.106552  0  1.009745  0
H  H13  1  0.02044937  0.86971671  0.70408326  1  0.064965  0  0.101825  0.111289  0  1.010721  0
H  H14  1  0.84984137  0.01509673  0.72095833  1  0.065959  0  0.114239  0.122666  0  0.981197  0
H  H15  1  0.52061657  0.44580985  0.70397885  1  0.056074  0  0.100142  0.098648  0  1.008335  0
H  H16  1  0.40243598  0.48751377  0.71603648  1  0.064901  0  0.106121  0.106511  0  0.976216  0
H  H17  1  0.42216195  0.38638959  0.75311531  1  0.085123  0  0.118376  0.129572  0  0.958616  0
H  H18  1  0.00468261  0.54761785  0.27163618  1  0.075718  0  0.098202  0.095112  0  1.00088  0
H  H19  1  0.95543997  0.60047546  0.22160826  1  0.053752  0  0.094395  0.090681  0  1.009833  0
H  H20  1  0.06523557  0.54678882  0.21163201  1  0.0889  0  0.114774  0.127189  0  0.964772  0
H  H21  1  0.32187168  0.81163535  0.85244405  1  0.462345  0  0.314212  0.262271  0  0.952458  0
H  H22  1  0.50529423  0.82542360  0.83234241  1  0.069118  0  0.108647  0.119603  0  0.993857  0
H  H23  1  0.51710570  0.92972601  0.79005685  1  0.053683  0  0.097036  0.098129  0  0.988246  0
H  H24  1  0.44270541  0.76364276  0.76912461  1  0.041352  0  0.094483  0.096066  0  1.004065  0
H  H25  1  0.31997810  0.60699104  0.50711634  1  0.578411  0  0.296256  0.386657  0  0.917065  0
H  H26  1  0.03223151  0.05560870  0.00314928  1  0.589896  0  0.296298  0.386404  0  0.917483  0
C  C27  1  0.61419702  0.89452936  0.41963511  1  1.694246  0  0.278985  0.689097  0  4.187128  0
C  C28  1  0.55959528  0.29460165  0.22411045  1  -0.024915  0  -0.065911  -0.09089  0  3.955668  0
C  C29  1  0.55091363  0.28160756  0.27427642  1  -0.015936  0  -0.075533  -0.129581  0  3.948895  0
C  C30  1  0.65704683  0.31139969  0.30496156  1  0.071722  0  0.010792  0.14317  0  4.114529  0
C  C31  1  0.67388305  0.33863195  0.20295188  1  0.120644  0  0.003811  0.022462  0  4.073702  0
C  C32  1  0.68595495  0.35941363  0.15265733  1  -0.474499  0  0.004323  0.032983  0  4.053579  0
C  C33  1  0.64799804  0.29426114  0.35585126  1  -0.363124  0  0.00579  0.01579  0  4.022079  0
C  C34  1  0.69957347  0.38264901  0.10988919  1  0.281426  0  -0.031878  -0.202784  0  3.920412  0
C  C35  1  0.11438256  0.79476150  0.13710790  1  0.181814  0  0.010165  -0.119523  0  3.807689  0
C  C36  1  0.14525446  0.81768440  0.18213093  1  -0.23323  0  -0.002822  0.023944  0  4.255871  0
C  C37  1  0.17305105  0.83842030  0.23165988  1  -0.170081  0  0.005877  -0.002225  0  4.191953  0
C  C38  1  0.61813042  0.22939297  0.44594741  1  1.6351  0  0.286154  0.723554  0  4.146314  0
C  C39  1  0.19178223  0.85264820  0.27756220  1  0.164174  0  0.004746  3.7e-05  0  4.183694  0
C  C40  1  0.21261937  0.86723882  0.32731255  1  -0.37633  0  -0.002677  0.028563  0  4.250045  0
C  C41  1  0.23305137  0.88077855  0.37281970  1  0.239661  0  0.007906  -0.124637  0  3.816556  0
C  C42  1  0.67613773  0.78390390  0.13356588  1  0.345902  0  0.00652  -0.129023  0  3.812768  0
C  C43  1  0.66718644  0.80133351  0.17873999  1  -0.411898  0  -2.9e-05  0.037196  0  4.242526  0
C  C44  1  0.65986741  0.81983237  0.22827641  1  0.186578  0  0.004773  -0.000884  0  4.184291  0
C  C45  1  0.65557846  0.83633249  0.27408906  1  -0.188815  0  0.004416  0.001704  0  4.18442  0
C  C46  1  0.64857233  0.85445846  0.32365935  1  -0.397594  0  -0.002286  0.032362  0  4.247849  0
C  C47  1  0.64042963  0.87128156  0.36891312  1  0.303693  0  0.005428  -0.128179  0  3.819467  0
C  C48  1  0.70525321  0.38252346  0.87455832  1  0.12336  0  0.011411  -0.121299  0  3.794605  0
C  C49  1  0.28144449  0.90436934  0.42388722  1  1.687087  0  0.28222  0.68812  0  4.191901  0
C  C50  1  0.69146044  0.36040148  0.82859892  1  -0.172356  0  0.003372  0.037135  0  4.225699  0
C  C51  1  0.67765629  0.33781403  0.77836002  1  0.066721  0  0.009733  0.009229  0  4.164698  0
C  C52  1  0.66623147  0.31890993  0.73210255  1  -0.136904  0  0.005013  -0.003629  0  4.17569  0
C  C53  1  0.65254450  0.29573825  0.68186112  1  0.00448  0  0.000143  0.03241  0  4.244741  0
C  C54  1  0.63929980  0.27257311  0.63589545  1  -0.024429  0  0.005994  -0.131375  0  3.806942  0
C  C55  1  0.24004423  0.89188636  0.61354777  1  0.17924  0  -0.04132  -0.206852  0  3.94363  0
C  C56  1  0.27752169  0.85222986  0.73676961  1  -0.016349  0  -0.100188  -0.250778  0  3.914368  0
C  C57  1  0.25945582  0.83436611  0.78695842  1  0.492247  0  0.112879  0.20764  0  4.081573  0
C  C58  1  0.06674785  0.84108197  0.77661966  1  -0.023393  0  -0.08256  -0.097542  0  4.005059  0
C  C59  1  0.08604485  0.85991220  0.72730245  1  0.008399  0  -0.104155  -0.173429  0  4.007515  0
C  C60  1  0.64000584  0.89669841  0.55862840  1  1.668275  0  0.277251  0.710085  0  4.165086  0
C  C61  1  0.19186783  0.86439021  0.70714497  1  0.082641  0  -0.000628  0.14346  0  4.150833  0
C  C62  1  0.15030204  0.82680545  0.80677259  1  0.075035  0  -0.014348  0.008653  0  4.09845  0
C  C63  1  0.12667647  0.80450480  0.85633491  1  -0.175827  0  -0.014687  -0.003361  0  4.120308  0
C  C64  1  0.21481128  0.88029977  0.65667702  1  -0.453861  0  -0.009513  -0.000778  0  4.057426  0
C  C65  1  0.10568186  0.78412465  0.89920140  1  -0.111141  0  -0.045061  -0.219319  0  3.941252  0
C  C66  1  0.67818581  0.86718580  0.60283926  1  0.245997  0  -0.032504  -0.184873  0  3.934597  0
C  C67  1  0.78814504  0.92278717  0.73091637  1  0.001047  0  -0.086986  -0.149707  0  3.975182  0
C  C68  1  0.78641947  0.90181532  0.78010430  1  -0.034849  0  -0.070906  -0.094518  0  3.977585  0
C  C69  1  0.62585507  0.68224559  0.75517812  1  0.560809  0  0.09914  0.220548  0  4.049334  0
C  C70  1  0.62620795  0.70353390  0.70574052  1  -0.029416  0  -0.096436  -0.265416  0  3.935908  0
C  C71  1  0.61326602  0.22253374  0.58327869  1  1.677957  0  0.284105  0.701598  0  4.174329  0
C  C72  1  0.70562294  0.82410443  0.69353854  1  0.062143  0  0.007442  0.155928  0  4.127207  0
C  C73  1  0.70473224  0.78331332  0.79345686  1  0.150164  0  -0.004142  0.015855  0  4.100769  0
C  C74  1  0.69873623  0.76732173  0.84417660  1  -0.522071  0  -0.016756  -0.008923  0  4.114186  0
C  C75  1  0.69522463  0.84709188  0.64432844  1  -0.485396  0  -0.014319  -0.02112  0  4.061168  0
C  C76  1  0.69546144  0.76005019  0.88875760  1  0.232365  0  -0.033814  -0.193743  0  3.932033  0
C  C77  1  0.05648205  0.76572684  0.08730189  1  1.691844  0  0.280202  0.686772  0  4.188735  0
C  C78  1  0.72501687  0.43471417  0.06439832  1  1.618357  0  0.2848  0.724586  0  4.141769  0
C  C79  1  0.70715555  0.76137794  0.08361641  1  1.679687  0  0.282849  0.690223  0  4.184743  0
C  C80  1  0.05664864  0.76187229  0.94696966  1  1.63976  0  0.275622  0.718209  0  4.160866  0
C  C81  1  0.73006337  0.43303955  0.92712946  1  1.663802  0  0.285193  0.698461  0  4.178258  0
C  C82  1  0.28967104  0.90758141  0.56569749  1  1.653278  0  0.276687  0.716542  0  4.157785  0
C  C83  1  0.71345704  0.74919960  0.93997959  1  1.665849  0  0.275189  0.710329  0  4.166745  0
C  C84  1  0.63989785  0.27670345  0.39939525  1  0.130357  0  -0.032818  -0.20216  0  3.927326  0
C  C85  1  0.77135503  0.35457127  0.28428383  1  0.048023  0  -0.077784  -0.230278  0  3.898847  0
C  C86  1  0.78018231  0.36815249  0.23386068  1  0.535076  0  0.104453  0.233266  0  4.021724  0
C  C87  1  0.46966373  0.46698714  0.73320350  1  0.374854  0  -0.128531  -0.174807  0  3.899382  0
C  C88  1  0.98384641  0.53308447  0.23088655  1  0.347813  0  -0.133826  -0.173661  0  3.913042  0
C  C89  1  0.45700828  0.83656635  0.80107808  1  0.291436  0  -0.132633  -0.205055  0  3.99207  0
N  N90  1  0.34195573  0.82464974  0.81673141  1  -1.248558  0  -0.436882  -0.278266  0  3.628231  0
O  O91  1  0.29839282  0.82065180  0.43899971  1  -1.199497  0  -0.194096  -0.523511  0  2.28309  0
O  O92  1  0.69143969  0.19750090  0.56220369  1  -1.228752  0  -0.216902  -0.568249  0  2.248085  0
O  O93  1  0.51079366  0.20173826  0.56293416  1  -1.229417  0  -0.221888  -0.576351  0  2.245937  0
O  O94  1  0.30204194  0.00367367  0.54637036  1  -1.256165  0  -0.24628  -0.613869  0  2.22997  0
O  O95  1  0.50045867  0.99314012  0.49864364  1  -1.610419  0  -0.39064  -1.273697  0  2.296302  0
O  O96  1  0.81123162  0.84168967  0.07241052  1  -1.205984  0  -0.191462  -0.519625  0  2.285623  0
O  O97  1  0.02704341  0.84346656  0.07465875  1  -1.199104  0  -0.193109  -0.525213  0  2.290835  0
O  O98  1  0.03566759  0.66046023  0.06112880  1  -1.242533  0  -0.235037  -0.592689  0  2.235232  0
O  O99  1  0.82782399  0.45929613  0.04636577  1  -1.243996  0  -0.227275  -0.59241  0  2.240034  0
O  O100  1  0.64522061  0.45895694  0.04586641  1  -1.248879  0  -0.229201  -0.595527  0  2.247204  0
O  O101  1  0.62812996  0.65844620  0.05545800  1  -1.254016  0  -0.236452  -0.597114  0  2.235739  0
O  O102  1  0.51039932  0.81649605  0.43203056  1  -1.200235  0  -0.197492  -0.529019  0  2.285146  0
O  O103  1  0.81087558  0.83571669  0.96480753  1  -1.217917  0  -0.209722  -0.562715  0  2.292961  0
O  O104  1  0.02844826  0.84126425  0.96844260  1  -1.214896  0  -0.21053  -0.568673  0  2.30743  0
O  O105  1  0.04022040  0.66088261  0.96324311  1  -1.252473  0  -0.245152  -0.608049  0  2.222461  0
O  O106  1  0.83456786  0.46073691  0.94773959  1  -1.233829  0  -0.218966  -0.570739  0  2.245463  0
O  O107  1  0.64795785  0.45204083  0.94789244  1  -1.226244  0  -0.217476  -0.568678  0  2.253774  0
O  O108  1  0.63111466  0.64904218  0.95598153  1  -1.259188  0  -0.24532  -0.607106  0  2.223389  0
O  O109  1  0.83798618  0.66844161  0.00984222  1  -1.609522  0  -0.390293  -1.273271  0  2.290128  0
O  O110  1  0.69751195  0.99569073  0.44728036  1  -1.255269  0  -0.238309  -0.599344  0  2.242307  0
O  O111  1  0.69804832  0.20474721  0.46414138  1  -1.24529  0  -0.22733  -0.590648  0  2.234683  0
O  O112  1  0.51771755  0.20875081  0.46518657  1  -1.245326  0  -0.226811  -0.591046  0  2.249811  0
O  O113  1  0.30870238  0.01298001  0.44891953  1  -1.246183  0  -0.234141  -0.590032  0  2.236427  0
O  O114  1  0.32183117  0.82899859  0.54695355  1  -1.222824  0  -0.209663  -0.563198  0  2.291336  0
O  O115  1  0.53396092  0.81901657  0.53771665  1  -1.228483  0  -0.207686  -0.564322  0  2.29505  0
O  O116  1  0.71601922  0.00368083  0.54529731  1  -1.259843  0  -0.240199  -0.600315  0  2.228  0
O  O117  1  0.55212348  0.57043358  0.77048717  1  -1.069566  0  -0.1746  -0.147646  0  2.586919  0
O  O118  1  0.88844302  0.40617539  0.21221522  1  -1.079105  0  -0.196068  -0.175301  0  2.529142  0
O  O119  1  0.32623949  0.64778626  0.47823218  1  -1.354813  0  -0.570803  -0.985952  0  1.792798  0
O  O120  1  0.99965188  0.01452924  0.03189640  1  -1.366243  0  -0.571083  -0.985405  0  1.79065  0
