# generated using pymatgen
data_ZnH16C20(NO2)2
_symmetry_space_group_name_H-M   'P 1'
_cell_length_a   9.42441641
_cell_length_b   10.26642278
_cell_length_c   10.52181043
_cell_angle_alpha   113.59291376
_cell_angle_beta   103.96841158
_cell_angle_gamma   97.52075131
_symmetry_Int_Tables_number   1
_chemical_formula_structural   ZnH16C20(NO2)2
_chemical_formula_sum   'Zn2 H32 C40 N4 O8'
_cell_volume   875.23032692
_cell_formula_units_Z   2
loop_
 _symmetry_equiv_pos_site_id
 _symmetry_equiv_pos_as_xyz
  1  'x, y, z'
loop_
 _atom_site_type_symbol
 _atom_site_label
 _atom_site_symmetry_multiplicity
 _atom_site_fract_x
 _atom_site_fract_y
 _atom_site_fract_z
 _atom_site_occupancy
 _atom_site_hle17_bader_spin_density
 _atom_site_hle17_ddec_charge
 _atom_site_hle17_ddec_spin_density
 _atom_site_hle17_ddec_sum_bond_order
 _atom_site_hle17_magmom
 _atom_site_hse06_10hf_bader_spin_density
 _atom_site_hse06_10hf_ddec_charge
 _atom_site_hse06_10hf_ddec_spin_density
 _atom_site_hse06_10hf_ddec_sum_bond_order
 _atom_site_hse06_10hf_magmom
 _atom_site_hse06_bader_spin_density
 _atom_site_hse06_ddec_charge
 _atom_site_hse06_ddec_spin_density
 _atom_site_hse06_ddec_sum_bond_order
 _atom_site_hse06_magmom
 _atom_site_pbe_bader_spin_density
 _atom_site_pbe_cm5_charge
 _atom_site_pbe_ddec_charge
 _atom_site_pbe_ddec_spin_density
 _atom_site_pbe_ddec_sum_bond_order
 _atom_site_pbe_magmom
Zn  Zn0  1  0.62414558  0.95798319  0.17180277  1  0  1.030748  0  1.827713  0  0  0.850989  0  2.276601  0  0  0.901288  0  2.221936  0  0  0.679383  0.815813  0  2.314014  0
Zn  Zn1  1  0.37585406  0.04201910  0.82819683  1  0  1.030721  0  1.827759  0  0  0.850943  0  2.276669  0  0  0.901241  0  2.222001  0  0  0.679359  0.815765  0  2.314086  0
H  H2  1  0.78690009  0.88181621  0.94958400  1  0  0.081722  0  0.944311  0  0  0.093358  0  1.003601  0  0  0.094843  0  1.002595  0  0  0.120724  0.092094  0  1.00492  0
H  H3  1  0.21310362  0.11818929  0.05042163  1  0  0.081707  0  0.944433  0  0  0.093361  0  1.003695  0  0  0.094846  0  1.002692  0  0  0.120742  0.092132  0  1.00497  0
H  H4  1  0.79930678  0.66746038  0.73365051  1  0  0.105108  0  0.963119  0  0  0.116464  0  1.021888  0  0  0.119198  0  1.021498  0  0  0.108153  0.114829  0  1.021542  0
H  H5  1  0.20070644  0.33254399  0.26635872  1  0  0.105157  0  0.963116  0  0  0.116488  0  1.02191  0  0  0.119236  0  1.021502  0  0  0.108151  0.114854  0  1.021563  0
H  H6  1  0.43634256  0.62993711  0.98958650  1  0  0.075575  0  0.958586  0  0  0.082665  0  1.0268  0  0  0.084114  0  1.026936  0  0  0.114587  0.081941  0  1.025854  0
H  H7  1  0.56365613  0.37006175  0.01041626  1  0  0.075634  0  0.958532  0  0  0.082718  0  1.026753  0  0  0.084165  0  1.026896  0  0  0.114617  0.081995  0  1.02581  0
H  H8  1  0.43726124  0.40124177  0.77892299  1  0  0.130313  0  0.965309  0  0  0.135016  0  1.032626  0  0  0.139276  0  1.030662  0  0  0.109258  0.132027  0  1.033957  0
H  H9  1  0.56274612  0.59876061  0.22107554  1  0  0.130309  0  0.965351  0  0  0.135101  0  1.032567  0  0  0.13936  0  1.030599  0  0  0.109284  0.132109  0  1.033898  0
H  H10  1  0.59852767  0.22761474  0.69799174  1  0  0.128964  0  0.952738  0  0  0.135986  0  1.017465  0  0  0.139931  0  1.015253  0  0  0.112594  0.132885  0  1.01969  0
H  H11  1  0.40147600  0.77238639  0.30201116  1  0  0.128968  0  0.952742  0  0  0.13602  0  1.017428  0  0  0.139967  0  1.015209  0  0  0.112596  0.132917  0  1.019654  0
H  H12  1  0.61879461  0.02302324  0.47754814  1  0  0.084904  0  0.952534  0  0  0.092696  0  1.016915  0  0  0.095054  0  1.015309  0  0  0.118953  0.090836  0  1.018384  0
H  H13  1  0.38119561  0.97697238  0.52244853  1  0  0.084899  0  0.952587  0  0  0.092695  0  1.016955  0  0  0.095051  0  1.01535  0  0  0.118943  0.090835  0  1.018426  0
H  H14  1  0.65930198  0.50865892  0.48837288  1  0  0.10538  0  0.95037  0  0  0.117217  0  1.007808  0  0  0.119991  0  1.007885  0  0  0.10785  0.114927  0  1.008427  0
H  H15  1  0.34071270  0.49134665  0.51163336  1  0  0.105414  0  0.950296  0  0  0.11723  0  1.007759  0  0  0.120005  0  1.007834  0  0  0.107842  0.114942  0  1.008378  0
H  H16  1  0.82640765  0.39731994  0.92171803  1  0  0.090554  0  0.959492  0  0  0.102708  0  1.020146  0  0  0.104869  0  1.020455  0  0  0.098012  0.100814  0  1.020545  0
H  H17  1  0.17360208  0.60268700  0.07827624  1  0  0.090513  0  0.959446  0  0  0.102691  0  1.020076  0  0  0.104831  0  1.020403  0  0  0.097992  0.100798  0  1.020477  0
H  H18  1  0.06582287  0.87509106  0.38056390  1  0  0.108702  0  0.924357  0  0  0.124677  0  0.980887  0  0  0.126488  0  0.980345  0  0  0.099366  0.123496  0  0.981417  0
H  H19  1  0.93416995  0.12491087  0.61944732  1  0  0.108714  0  0.92442  0  0  0.124673  0  0.980963  0  0  0.12648  0  0.980417  0  0  0.099395  0.123498  0  0.981491  0
H  H20  1  0.95681065  0.83851734  0.48371216  1  0  0.120431  0  0.922664  0  0  0.134935  0  0.979473  0  0  0.137983  0  0.977373  0  0  0.102112  0.132524  0  0.981704  0
H  H21  1  0.04317577  0.16147254  0.51629082  1  0  0.120412  0  0.922729  0  0  0.134935  0  0.979525  0  0  0.137979  0  0.977427  0  0  0.102137  0.132527  0  0.981759  0
H  H22  1  0.86019327  0.66220026  0.07330137  1  0  0.09053  0  0.973144  0  0  0.102026  0  1.03495  0  0  0.103827  0  1.036149  0  0  0.096869  0.100576  0  1.03449  0
H  H23  1  0.13981211  0.33780311  0.92670093  1  0  0.090589  0  0.973206  0  0  0.102082  0  1.034986  0  0  0.103884  0  1.03618  0  0  0.096898  0.100622  0  1.034537  0
H  H24  1  0.93311842  0.13816828  0.07383520  1  0  0.111472  0  0.924947  0  0  0.128426  0  0.981139  0  0  0.130751  0  0.979617  0  0  0.101509  0.126411  0  0.982965  0
H  H25  1  0.06688398  0.86183115  0.92614675  1  0  0.111576  0  0.92484  0  0  0.128494  0  0.981034  0  0  0.130824  0  0.979504  0  0  0.101477  0.126457  0  0.982892  0
H  H26  1  0.89219566  0.16358840  0.91061401  1  0  0.120197  0  0.922094  0  0  0.134658  0  0.980022  0  0  0.137899  0  0.977598  0  0  0.102249  0.132183  0  0.982277  0
H  H27  1  0.10779894  0.83640649  0.08936909  1  0  0.120333  0  0.922141  0  0  0.134768  0  0.980029  0  0  0.13801  0  0.977603  0  0  0.102265  0.132298  0  0.982284  0
H  H28  1  0.99378549  0.60453760  0.46368894  1  0  0.083816  0  0.976819  0  0  0.096188  0  1.039037  0  0  0.098632  0  1.038315  0  0  0.094843  0.094503  0  1.039435  0
H  H29  1  0.00620379  0.39545029  0.53630626  1  0  0.083934  0  0.97679  0  0  0.096212  0  1.039099  0  0  0.098654  0  1.038379  0  0  0.094875  0.094532  0  1.039491  0
H  H30  1  0.95969829  0.33742439  0.31039112  1  0  0.087599  0  0.958866  0  0  0.10105  0  1.01789  0  0  0.104183  0  1.015412  0  0  0.098762  0.098742  0  1.01974  0
H  H31  1  0.04030214  0.66256813  0.68959994  1  0  0.08761  0  0.958837  0  0  0.101003  0  1.017919  0  0  0.104129  0  1.015453  0  0  0.098778  0.098703  0  1.019767  0
H  H32  1  0.66663009  0.28837121  0.27427389  1  0  0.084434  0  0.979717  0  0  0.088999  0  1.049856  0  0  0.090825  0  1.049707  0  0  0.113374  0.088122  0  1.049113  0
H  H33  1  0.33337201  0.71163215  0.72572766  1  0  0.084498  0  0.979655  0  0  0.089046  0  1.049805  0  0  0.090874  0  1.049655  0  0  0.113404  0.08817  0  1.049061  0
C  C34  1  0.70950093  0.77420238  0.90617018  1  0  0.135603  0  3.705575  0  0  0.105053  0  3.956131  0  0  0.111779  0  3.974641  0  0  0.050127  0.099994  0  3.944693  0
C  C35  1  0.29050052  0.22579869  0.09383409  1  0  0.135629  0  3.705812  0  0  0.105049  0  3.956358  0  0  0.111769  0  3.974879  0  0  0.05009  0.099968  0  3.944911  0
C  C36  1  0.71617260  0.65425177  0.78645160  1  0  -0.158811  0  3.709071  0  0  -0.176457  0  3.954734  0  0  -0.183675  0  3.9762  0  0  -0.079709  -0.171498  0  3.939582  0
C  C37  1  0.28382980  0.34575272  0.21354953  1  0  -0.158851  0  3.709161  0  0  -0.176498  0  3.954845  0  0  -0.183725  0  3.976302  0  0  -0.079676  -0.171541  0  3.939704  0
C  C38  1  0.51610167  0.63290752  0.93049282  1  0  0.140444  0  3.680539  0  0  0.109193  0  3.934813  0  0  0.116253  0  3.953228  0  0  0.052982  0.104895  0  3.920947  0
C  C39  1  0.48390271  0.36709239  0.06951450  1  0  0.140463  0  3.680534  0  0  0.109192  0  3.934813  0  0  0.116252  0  3.953225  0  0  0.052966  0.104893  0  3.920949  0
C  C40  1  0.51718505  0.50582033  0.81333245  1  0  -0.162025  0  3.656878  0  0  -0.177687  0  3.902209  0  0  -0.185136  0  3.921571  0  0  -0.077257  -0.172828  0  3.888817  0
C  C41  1  0.48282085  0.49418084  0.18666907  1  0  -0.162108  0  3.656769  0  0  -0.177854  0  3.902118  0  0  -0.185301  0  3.921478  0  0  -0.077288  -0.17299  0  3.888723  0
C  C42  1  0.61972293  0.51578582  0.73854612  1  0  0.096442  0  3.760914  0  0  0.108886  0  3.990608  0  0  0.112915  0  4.011665  0  0  0.015613  0.106346  0  3.976278  0
C  C43  1  0.38027872  0.48421984  0.26145246  1  0  0.096446  0  3.760731  0  0  0.1089  0  3.990409  0  0  0.112928  0  4.011466  0  0  0.015613  0.106362  0  3.976079  0
C  C44  1  0.61390518  0.24762452  0.60730416  1  0  -0.148144  0  3.662338  0  0  -0.165498  0  3.908471  0  0  -0.172305  0  3.927772  0  0  -0.074447  -0.16082  0  3.8954  0
C  C45  1  0.38609803  0.75237887  0.39269670  1  0  -0.148207  0  3.662412  0  0  -0.165597  0  3.908536  0  0  -0.172404  0  3.927836  0  0  -0.074466  -0.160917  0  3.895464  0
C  C46  1  0.62397983  0.13255391  0.48468186  1  0  0.133646  0  3.684642  0  0  0.103094  0  3.933441  0  0  0.109678  0  3.951817  0  0  0.052193  0.099167  0  3.920815  0
C  C47  1  0.37601048  0.86744615  0.51531474  1  0  0.133703  0  3.68469  0  0  0.103141  0  3.933481  0  0  0.109726  0  3.951858  0  0  0.052246  0.099213  0  3.920855  0
C  C48  1  0.64874186  0.40293167  0.49107419  1  0  -0.16625  0  3.727009  0  0  -0.185776  0  3.979337  0  0  -0.193779  0  4.001822  0  0  -0.083458  -0.180374  0  3.964504  0
C  C49  1  0.35126358  0.59707177  0.50892529  1  0  -0.166346  0  3.726917  0  0  -0.185875  0  3.979233  0  0  -0.193878  0  4.001718  0  0  -0.083464  -0.180474  0  3.964403  0
C  C50  1  0.69815163  0.11979396  0.97844332  1  0  0.711564  0  3.84768  0  0  0.66286  0  4.151493  0  0  0.696814  0  4.143251  0  0  0.214062  0.640276  0  4.155447  0
C  C51  1  0.30185296  0.88021054  0.02155830  1  0  0.711687  0  3.847408  0  0  0.663018  0  4.151095  0  0  0.696968  0  4.142857  0  0  0.214123  0.640441  0  4.155052  0
C  C52  1  0.86289146  0.44233332  0.04077371  1  0  -0.120708  0  3.770707  0  0  -0.137874  0  4.01799  0  0  -0.139736  0  4.039254  0  0  -0.095281  -0.136751  0  4.003453  0
C  C53  1  0.13712085  0.55766694  0.95922223  1  0  -0.120614  0  3.770542  0  0  -0.137796  0  4.017862  0  0  -0.139637  0  4.039127  0  0  -0.095322  -0.136673  0  4.00332  0
C  C54  1  0.62679458  0.38729632  0.61186482  1  0  0.094572  0  3.759824  0  0  0.104939  0  3.991242  0  0  0.108582  0  4.012969  0  0  0.01289  0.102706  0  3.97644  0
C  C55  1  0.37321252  0.61270933  0.38813594  1  0  0.094621  0  3.75985  0  0  0.105015  0  3.991205  0  0  0.108658  0  4.012932  0  0  0.012849  0.102779  0  3.976411  0
C  C56  1  0.95522504  0.81577235  0.37195005  1  0  -0.304224  0  3.690169  0  0  -0.345458  0  3.928603  0  0  -0.351164  0  3.936173  0  0  -0.163575  -0.341858  0  3.924057  0
C  C57  1  0.04476638  0.18422413  0.62805674  1  0  -0.304157  0  3.690443  0  0  -0.34547  0  3.928854  0  0  -0.351154  0  3.936415  0  0  -0.16365  -0.341886  0  3.924304  0
C  C58  1  0.88151945  0.59153665  0.12646270  1  0  -0.121583  0  3.741505  0  0  -0.141069  0  3.988818  0  0  -0.143881  0  4.010492  0  0  -0.097393  -0.139321  0  3.974426  0
C  C59  1  0.11848200  0.40846010  0.87353696  1  0  -0.121624  0  3.741614  0  0  -0.141118  0  3.988875  0  0  -0.143929  0  4.01054  0  0  -0.097363  -0.139362  0  3.974488  0
C  C60  1  0.89365494  0.34939641  0.10568145  1  0  0.105621  0  3.764338  0  0  0.124283  0  4.00453  0  0  0.123735  0  4.0297  0  0  -0.016054  0.124853  0  3.985511  0
C  C61  1  0.10635048  0.65060269  0.89431436  1  0  0.10556  0  3.764436  0  0  0.124147  0  4.004625  0  0  0.1236  0  4.029789  0  0  -0.01612  0.124725  0  3.9856  0
C  C62  1  0.86575986  0.18637101  0.01229847  1  0  -0.314265  0  3.695888  0  0  -0.362576  0  3.946783  0  0  -0.367729  0  3.952673  0  0  -0.163084  -0.359086  0  3.943021  0
C  C63  1  0.13424019  0.81362820  0.98769142  1  0  -0.314634  0  3.696092  0  0  -0.362794  0  3.946741  0  0  -0.367948  0  3.952636  0  0  -0.163046  -0.359305  0  3.943014  0
C  C64  1  0.95701521  0.55915267  0.34457878  1  0  -0.128663  0  3.768137  0  0  -0.149113  0  4.017893  0  0  -0.152218  0  4.04065  0  0  -0.10042  -0.14653  0  4.00151  0
C  C65  1  0.04297826  0.44083859  0.65541589  1  0  -0.128839  0  3.768079  0  0  -0.149251  0  4.017804  0  0  -0.152365  0  4.040579  0  0  -0.100461  -0.14667  0  4.001425  0
C  C66  1  0.93936582  0.40975464  0.25882748  1  0  -0.134618  0  3.783372  0  0  -0.155037  0  4.039204  0  0  -0.156903  0  4.060254  0  0  -0.100405  -0.153551  0  4.022994  0
C  C67  1  0.06063348  0.59024215  0.74116982  1  0  -0.134493  0  3.783258  0  0  -0.154844  0  4.039083  0  0  -0.156714  0  4.060138  0  0  -0.10034  -0.153368  0  4.02288  0
C  C68  1  0.92979021  0.65279843  0.27981174  1  0  0.121999  0  3.745597  0  0  0.140975  0  3.98196  0  0  0.142146  0  4.00583  0  0  -0.010104  0.14019  0  3.965772  0
C  C69  1  0.07020132  0.34719820  0.72018943  1  0  0.121983  0  3.745835  0  0  0.14106  0  3.982025  0  0  0.142231  0  4.005886  0  0  -0.010123  0.140278  0  3.965844  0
C  C70  1  0.65317519  0.28133376  0.37138858  1  0  0.129548  0  3.70427  0  0  0.09877  0  3.956103  0  0  0.105238  0  3.975207  0  0  0.04587  0.094292  0  3.943306  0
C  C71  1  0.34682420  0.71866747  0.62860864  1  0  0.129488  0  3.704279  0  0  0.098735  0  3.956081  0  0  0.105199  0  3.975186  0  0  0.045837  0.094258  0  3.943281  0
C  C72  1  0.83389042  0.87578659  0.30562521  1  0  0.677527  0  3.880198  0  0  0.635237  0  4.1794  0  0  0.66745  0  4.174541  0  0  0.189253  0.613542  0  4.182101  0
C  C73  1  0.16610346  0.12421532  0.69438720  1  0  0.677275  0  3.880535  0  0  0.635105  0  4.179561  0  0  0.667294  0  4.17473  0  0  0.189224  0.61343  0  4.182244  0
N  N74  1  0.61077521  0.76476824  0.97722136  1  0  -0.315231  0  3.277241  0  0  -0.239483  0  3.53987  0  0  -0.257448  0  3.556827  0  0  -0.315599  -0.227243  0  3.528344  0
N  N75  1  0.38922191  0.23523289  0.02277911  1  0  -0.315281  0  3.277366  0  0  -0.239455  0  3.539904  0  0  -0.257425  0  3.556874  0  0  -0.315582  -0.227216  0  3.528392  0
N  N76  1  0.64131185  0.14790622  0.36768840  1  0  -0.304087  0  3.250161  0  0  -0.225131  0  3.509562  0  0  -0.243216  0  3.52603  0  0  -0.314956  -0.212689  0  3.498407  0
N  N77  1  0.35868284  0.85209385  0.63230919  1  0  -0.304097  0  3.250348  0  0  -0.225126  0  3.50972  0  0  -0.243211  0  3.526189  0  0  -0.314959  -0.212682  0  3.498562  0
O  O78  1  0.86885772  0.96078961  0.25065768  1  0  -0.653792  0  1.916541  0  0  -0.602646  0  2.154552  0  0  -0.62891  0  2.14489  0  0  -0.341649  -0.58468  0  2.160982  0
O  O79  1  0.13113419  0.03921762  0.74936310  1  0  -0.653687  0  1.91637  0  0  -0.602617  0  2.154364  0  0  -0.628863  0  2.144699  0  0  -0.341627  -0.584658  0  2.160793  0
O  O80  1  0.69841482  0.83554739  0.30301317  1  0  -0.658697  0  1.9367  0  0  -0.601204  0  2.178333  0  0  -0.627595  0  2.168863  0  0  -0.334569  -0.583055  0  2.18444  0
O  O81  1  0.30157023  0.16443275  0.69697983  1  0  -0.658639  0  1.93714  0  0  -0.60114  0  2.178686  0  0  -0.627523  0  2.169223  0  0  -0.334546  -0.582994  0  2.184783  0
O  O82  1  0.66059004  0.09447367  0.07545743  1  0  -0.660941  0  2.13685  0  0  -0.59628  0  2.421449  0  0  -0.622681  0  2.406603  0  0  -0.323761  -0.577525  0  2.430036  0
O  O83  1  0.33942161  0.90552862  0.92454584  1  0  -0.660846  0  2.136668  0  0  -0.596263  0  2.421311  0  0  -0.622661  0  2.406465  0  0  -0.323736  -0.577512  0  2.429901  0
O  O84  1  0.60579112  0.10528557  0.85992633  1  0  -0.635353  0  2.012933  0  0  -0.570023  0  2.271766  0  0  -0.597326  0  2.259083  0  0  -0.319863  -0.551145  0  2.279829  0
O  O85  1  0.39421016  0.89472321  0.14008010  1  0  -0.635445  0  2.012808  0  0  -0.570161  0  2.271661  0  0  -0.597463  0  2.258979  0  0  -0.319943  -0.551281  0  2.279727  0
