# generated using pymatgen
data_Zr3H14C26BrO21
_symmetry_space_group_name_H-M   'P 1'
_cell_length_a   14.78390078
_cell_length_b   14.77251370
_cell_length_c   14.77815063
_cell_angle_alpha   60.03797671
_cell_angle_beta   60.01630968
_cell_angle_gamma   60.09897336
_symmetry_Int_Tables_number   1
_chemical_formula_structural   Zr3H14C26BrO21
_chemical_formula_sum   'Zr6 H28 C52 Br2 O42'
_cell_volume   2284.81278004
_cell_formula_units_Z   2
loop_
 _symmetry_equiv_pos_site_id
 _symmetry_equiv_pos_as_xyz
  1  'x, y, z'
loop_
 _atom_site_type_symbol
 _atom_site_label
 _atom_site_symmetry_multiplicity
 _atom_site_fract_x
 _atom_site_fract_y
 _atom_site_fract_z
 _atom_site_occupancy
 _atom_site_pbe_bader_charge
 _atom_site_pbe_bader_spin_density
 _atom_site_pbe_cm5_charge
 _atom_site_pbe_ddec_charge
 _atom_site_pbe_ddec_spin_density
 _atom_site_pbe_ddec_sum_bond_order
 _atom_site_pbe_magmom
Zr  Zr0  1  0.87749281  0.88353171  0.61883494  1  2.630335  0  1.636694  2.36729  0  2.777313  0
Zr  Zr1  1  0.11849875  0.11865013  0.38312030  1  2.625741  0  1.630689  2.371553  0  2.754145  0
Zr  Zr2  1  0.11658278  0.87889644  0.62356860  1  2.635759  0  1.633367  2.377291  0  2.733084  0
Zr  Zr3  1  0.87903886  0.12126716  0.38139042  1  2.637531  0  1.638876  2.373203  0  2.754969  0
Zr  Zr4  1  0.11845968  0.88129573  0.38276216  1  2.633149  0  1.634189  2.366669  0  2.772745  0
Zr  Zr5  1  0.87975950  0.11978334  0.62075082  1  2.636631  0  1.633357  2.369567  0  2.762545  0
H  H6  1  0.09278865  0.71754003  0.59569182  1  0.598178  0  0.33097  0.424521  0  0.856445  0
H  H7  1  0.09577572  0.09460388  0.21885186  1  0.640994  0  0.330886  0.423727  0  0.858745  0
H  H8  1  0.09397721  0.09234009  0.59658069  1  0.605918  0  0.333774  0.429062  0  0.846621  0
H  H9  1  0.71625365  0.09631834  0.59415355  1  0.628688  0  0.336416  0.431848  0  0.845164  0
H  H10  1  0.15907434  0.56940511  0.37563952  1  0.129981  0  0.118951  0.145145  0  0.975094  0
H  H11  1  0.83066118  0.44455673  0.60886018  1  0.116851  0  0.118149  0.145154  0  0.978844  0
H  H12  1  0.59270552  0.13761584  0.92484252  1  0.105294  0  0.117819  0.143496  0  0.978878  0
H  H13  1  0.42133052  0.84822942  0.09515466  1  0.101419  0  0.118071  0.143467  0  0.978159  0
H  H14  1  0.83602958  0.12076081  0.10926147  1  0.108709  0  0.119489  0.144577  0  0.978022  0
H  H15  1  0.14820412  0.86112549  0.91025318  1  0.087251  0  0.118977  0.146063  0  0.973951  0
H  H16  1  0.59213246  0.42188880  0.35117443  1  0.11502  0  0.120068  0.14653  0  0.971708  0
H  H17  1  0.42234999  0.59543369  0.63863646  1  0.111599  0  0.119205  0.144133  0  0.975362  0
H  H18  1  0.98647966  0.57681265  0.74196713  1  0.073965  0  0.096016  0.09634  0  1.054027  0
H  H19  1  0.99672787  0.40716059  0.73982063  1  0.078231  0  0.100003  0.097827  0  1.00959  0
H  H20  1  0.99418234  0.23858048  0.07617848  1  0.078764  0  0.097106  0.098945  0  1.050335  0
H  H21  1  0.00027671  0.23696209  0.90850320  1  0.062032  0  0.09973  0.098427  0  1.013612  0
H  H22  1  0.59232319  0.84836431  0.63808440  1  0.070136  0  0.118477  0.143635  0  0.978025  0
H  H23  1  0.42227825  0.13373946  0.34708481  1  0.143454  0  0.118335  0.144172  0  0.977472  0
H  H24  1  0.16995244  0.33235924  0.36296500  1  0.639058  0  0.310518  0.354572  0  0.961852  0
H  H25  1  0.81904954  0.68335063  0.61929519  1  0.642434  0  0.311206  0.353153  0  0.96271  0
H  H26  1  0.35523636  0.14709500  0.16287423  1  0.639385  0  0.310384  0.353692  0  0.965866  0
H  H27  1  0.65799186  0.83936068  0.85644204  1  0.652404  0  0.310189  0.354871  0  0.964308  0
H  H28  1  0.82670335  0.13356574  0.86932592  1  0.648761  0  0.310552  0.354906  0  0.963798  0
H  H29  1  0.15692779  0.84689951  0.15107596  1  0.660116  0  0.311239  0.354016  0  0.965189  0
H  H30  1  0.35465068  0.66012401  0.34083252  1  0.629117  0  0.30923  0.351022  0  0.972924  0
H  H31  1  0.66145196  0.35854511  0.64683539  1  0.645013  0  0.309507  0.351966  0  0.968931  0
H  H32  1  0.35521502  0.83612104  0.64884293  1  0.633017  0  0.310581  0.353302  0  0.967318  0
H  H33  1  0.65894445  0.14650462  0.33675396  1  0.627223  0  0.310951  0.353271  0  0.967985  0
C  C34  1  0.99598547  0.70076756  0.49338577  1  1.50804  0  0.237699  0.65418  0  4.073362  0
C  C35  1  0.30948635  0.99469177  0.20167048  1  1.490208  0  0.237485  0.655234  0  4.067543  0
C  C36  1  0.99725663  0.30818647  0.49769485  1  1.498216  0  0.233227  0.648233  0  4.086289  0
C  C37  1  0.69686365  0.99870678  0.81063766  1  1.512444  0  0.236125  0.653197  0  4.072712  0
C  C38  1  0.98390896  0.70511149  0.81187584  1  1.567322  0  0.239116  0.661208  0  4.099465  0
C  C39  1  0.69789722  0.99566064  0.49573385  1  1.497257  0  0.237554  0.655196  0  4.073056  0
C  C40  1  0.99100397  0.31023649  0.20444378  1  1.584559  0  0.238855  0.661149  0  4.101826  0
C  C41  1  0.30946709  0.99370322  0.49642405  1  1.48742  0  0.237885  0.656728  0  4.070209  0
C  C42  1  0.30832146  0.69903683  0.49962312  1  1.477425  0  0.238286  0.656517  0  4.066907  0
C  C43  1  0.99519774  0.99427034  0.81169313  1  1.509151  0  0.233825  0.649083  0  4.086949  0
C  C44  1  0.69875760  0.31134744  0.49663346  1  1.507143  0  0.237527  0.652567  0  4.070508  0
C  C45  1  0.99472660  0.99513779  0.20117840  1  1.50271  0  0.237543  0.653807  0  4.069681  0
C  C46  1  0.99698755  0.41077957  0.49253484  1  0.037811  0  -0.03448  -0.168608  0  4.005713  0
C  C47  1  0.99330894  0.60240945  0.49287956  1  -0.021582  0  -0.030677  -0.167207  0  3.997516  0
C  C48  1  0.09101923  0.44690796  0.42435688  1  0.521433  0  0.082295  0.288317  0  4.080206  0
C  C49  1  0.89839382  0.56763231  0.55927129  1  0.511039  0  0.084821  0.289184  0  4.077362  0
C  C50  1  0.08710778  0.54213655  0.42646709  1  0.03142  0  -0.090215  -0.182779  0  3.934458  0
C  C51  1  0.90256626  0.47194622  0.55793342  1  0.001845  0  -0.093378  -0.190252  0  3.939214  0
C  C52  1  0.41205690  0.99378479  0.10498788  1  0.005628  0  -0.030016  -0.16544  0  3.99492  0
C  C53  1  0.60115355  0.99289303  0.91422178  1  -0.003581  0  -0.029706  -0.167177  0  3.999801  0
C  C54  1  0.46195389  0.07609565  0.05729221  1  0.519404  0  0.086693  0.295198  0  4.064894  0
C  C55  1  0.55319080  0.90861855  0.96382673  1  0.518186  0  0.085667  0.294035  0  4.07072  0
C  C56  1  0.55551749  0.07392337  0.96244237  1  0.041679  0  -0.091056  -0.184944  0  3.938501  0
C  C57  1  0.45917950  0.91127792  0.05818072  1  0.036373  0  -0.091913  -0.186899  0  3.940378  0
C  C58  1  0.99157054  0.99321361  0.91393496  1  -0.046843  0  -0.034501  -0.169254  0  4.003469  0
C  C59  1  0.99371268  0.98993682  0.10448461  1  -0.051704  0  -0.029506  -0.165379  0  3.990363  0
C  C60  1  0.90104987  0.06711019  0.97139144  1  0.524127  0  0.083391  0.287041  0  4.077328  0
C  C61  1  0.08268731  0.91387501  0.04888375  1  0.530791  0  0.085142  0.292541  0  4.071342  0
C  C62  1  0.90429793  0.06393790  0.06559935  1  0.04909  0  -0.091243  -0.188267  0  3.946496  0
C  C63  1  0.07996341  0.91786660  0.95400424  1  0.13058  0  -0.09387  -0.18943  0  3.953006  0
C  C64  1  0.41163262  0.60314603  0.49435037  1  0.027819  0  -0.02957  -0.166288  0  3.993372  0
C  C65  1  0.60215298  0.41407237  0.49565795  1  -0.046139  0  -0.029883  -0.165081  0  3.996627  0
C  C66  1  0.46118854  0.55469249  0.41053648  1  0.50984  0  0.085462  0.292175  0  4.071207  0
C  C67  1  0.55487502  0.46459079  0.57727454  1  0.584805  0  0.085423  0.291595  0  4.068392  0
C  C68  1  0.55517263  0.46050281  0.41356962  1  0.053229  0  -0.089993  -0.184236  0  3.937733  0
C  C69  1  0.45993031  0.55787319  0.57526496  1  -0.016175  0  -0.090361  -0.182861  0  3.934327  0
C  C70  1  0.97737412  0.60592238  0.91563790  1  0.067431  0  -0.011022  -0.107222  0  3.911375  0
C  C71  1  0.98692720  0.50704474  0.91088315  1  -0.011735  0  0.002426  0.072341  0  3.942845  0
C  C72  1  0.96223748  0.61001066  0.01409492  1  -0.050101  0  -0.015776  0.03958  0  3.958694  0
C  C73  1  0.99181845  0.50251380  0.81451773  1  -0.05843  0  -0.094732  -0.133823  0  3.969191  0
C  C74  1  0.99666028  0.40738887  0.81356602  1  -0.00984  0  -0.08553  -0.064521  0  4.010557  0
C  C75  1  0.98322033  0.41391308  0.10506023  1  0.040491  0  -0.010602  -0.107144  0  3.904401  0
C  C76  1  0.96552669  0.51323702  0.10941846  1  -0.055773  0  -0.015287  0.041287  0  3.952765  0
C  C77  1  0.98960566  0.40931970  0.00742061  1  0.009431  0  0.002931  0.072264  0  3.940664  0
C  C78  1  0.99635194  0.31217895  0.00268901  1  -0.022453  0  -0.093482  -0.131874  0  3.96399  0
C  C79  1  0.99880812  0.31148416  0.90853084  1  -0.044484  0  -0.08744  -0.06937  0  4.010662  0
C  C80  1  0.41237694  0.98936550  0.49439052  1  0.01296  0  -0.029408  -0.166266  0  3.997568  0
C  C81  1  0.60167087  0.99334923  0.49134490  1  -0.009924  0  -0.029873  -0.166429  0  3.997994  0
C  C82  1  0.46180612  0.90632781  0.57718579  1  0.536897  0  0.086197  0.292511  0  4.073024  0
C  C83  1  0.55401947  0.07457908  0.40680329  1  0.509152  0  0.086625  0.293996  0  4.070895  0
C  C84  1  0.55543758  0.91049102  0.57405699  1  0.071717  0  -0.091131  -0.183732  0  3.936908  0
C  C85  1  0.45983205  0.07095215  0.41048340  1  0.004919  0  -0.090995  -0.184835  0  3.939288  0
Br  Br86  1  0.93936166  0.52126875  0.24508534  1  -0.012689  0  0.053838  -0.019314  0  1.546852  0
Br  Br87  1  0.93161244  0.74679440  0.02279704  1  -0.010322  0  0.056754  -0.014878  0  1.555833  0
O  O88  1  0.91695575  0.74290983  0.56966704  1  -1.188838  0  -0.352461  -0.635836  0  2.319352  0
O  O89  1  0.26602200  0.07397058  0.24133898  1  -1.182907  0  -0.35602  -0.63371  0  2.322014  0
O  O90  1  0.07776652  0.26342175  0.42379660  1  -1.188437  0  -0.357632  -0.64097  0  2.347354  0
O  O91  1  0.73465448  0.92469448  0.76620600  1  -1.187387  0  -0.352915  -0.629895  0  2.331108  0
O  O92  1  0.06485762  0.73861479  0.77212453  1  -1.164615  0  -0.34561  -0.611158  0  2.269781  0
O  O93  1  0.73773623  0.07464385  0.41991874  1  -1.178809  0  -0.351772  -0.632357  0  2.319086  0
O  O94  1  0.91544682  0.26856736  0.24521964  1  -1.171766  0  -0.356414  -0.614101  0  2.305866  0
O  O95  1  0.26638346  0.91804470  0.57569069  1  -1.181401  0  -0.351666  -0.631278  0  2.318161  0
O  O96  1  0.26616125  0.73941355  0.42300990  1  -1.183321  0  -0.35487  -0.635753  0  2.325586  0
O  O97  1  0.91805782  0.07219368  0.77041602  1  -1.183586  0  -0.353593  -0.633959  0  2.324955  0
O  O98  1  0.73973293  0.26904799  0.57469375  1  -1.189778  0  -0.357516  -0.637626  0  2.32348  0
O  O99  1  0.07416208  0.92014616  0.24029582  1  -1.194208  0  -0.353972  -0.631933  0  2.3235  0
O  O100  1  0.07327980  0.92095317  0.76824718  1  -1.185237  0  -0.354068  -0.614609  0  2.30382  0
O  O101  1  0.73613987  0.26764095  0.42386553  1  -1.178615  0  -0.349578  -0.605315  0  2.280647  0
O  O102  1  0.92043342  0.07304547  0.23992685  1  -1.190538  0  -0.35054  -0.61247  0  2.28142  0
O  O103  1  0.26373287  0.73690576  0.57873743  1  -1.185306  0  -0.353654  -0.611107  0  2.269423  0
O  O104  1  0.90976006  0.74530063  0.76876296  1  -1.174854  0  -0.355083  -0.616184  0  2.296503  0
O  O105  1  0.26641187  0.07177604  0.42266397  1  -1.18651  0  -0.356871  -0.614891  0  2.284418  0
O  O106  1  0.07179755  0.26967739  0.23822425  1  -1.172968  0  -0.344345  -0.614319  0  2.256036  0
O  O107  1  0.73670761  0.92204953  0.57388771  1  -1.188475  0  -0.358461  -0.617159  0  2.285782  0
O  O108  1  0.73683914  0.07598551  0.76814815  1  -1.189477  0  -0.356748  -0.618176  0  2.273646  0
O  O109  1  0.07538617  0.73815849  0.42154356  1  -1.191122  0  -0.354085  -0.610582  0  2.27885  0
O  O110  1  0.26657998  0.92048601  0.24100915  1  -1.185751  0  -0.35501  -0.615868  0  2.27546  0
O  O111  1  0.92119771  0.26763046  0.57396371  1  -1.185919  0  -0.3521  -0.609633  0  2.274624  0
O  O112  1  0.79651281  0.06923558  0.56756973  1  -1.25239  0  -0.698404  -1.071521  0  2.364241  0
O  O113  1  0.06622392  0.06613451  0.57016798  1  -1.228808  0  -0.695131  -1.066734  0  2.352656  0
O  O114  1  0.06670144  0.06834139  0.29916157  1  -1.270871  0  -0.695101  -1.069971  0  2.358505  0
O  O115  1  0.06433442  0.79784561  0.56986928  1  -1.227261  0  -0.694147  -1.070455  0  2.353263  0
O  O116  1  0.14701214  0.94991861  0.45364035  1  -1.190883  0  -0.793779  -1.146772  0  2.138642  0
O  O117  1  0.94963544  0.95190209  0.45062878  1  -1.200672  0  -0.795018  -1.147723  0  2.137919  0
O  O118  1  0.94987914  0.14908190  0.45199195  1  -1.195699  0  -0.793159  -1.142842  0  2.134866  0
O  O119  1  0.94817070  0.95119243  0.64994806  1  -1.197923  0  -0.793149  -1.142591  0  2.13622  0
O  O120  1  0.18502356  0.39286169  0.35881144  1  -1.142398  0  -0.355693  -0.434317  0  2.251896  0
O  O121  1  0.80385221  0.62287871  0.62353452  1  -1.148902  0  -0.353958  -0.432852  0  2.252689  0
O  O122  1  0.42275707  0.15739177  0.09839154  1  -1.141906  0  -0.35558  -0.435089  0  2.243976  0
O  O123  1  0.59326247  0.82631555  0.92380963  1  -1.15186  0  -0.356221  -0.435086  0  2.242145  0
O  O124  1  0.81188723  0.14089710  0.93907282  1  -1.157337  0  -0.35561  -0.434205  0  2.247931  0
O  O125  1  0.17075128  0.83839619  0.08233915  1  -1.167232  0  -0.355633  -0.432302  0  2.245013  0
O  O126  1  0.42106180  0.59459455  0.32832980  1  -1.131438  0  -0.356948  -0.435932  0  2.248084  0
O  O127  1  0.59689880  0.42582610  0.65779026  1  -1.14823  0  -0.3574  -0.436862  0  2.243708  0
O  O128  1  0.42188806  0.82400504  0.65981559  1  -1.1379  0  -0.355763  -0.434465  0  2.245774  0
O  O129  1  0.59482357  0.15603330  0.32334813  1  -1.128841  0  -0.355438  -0.434462  0  2.245095  0
