# generated using pymatgen
data_FeHgH16C24S4(BrN)2
_symmetry_space_group_name_H-M   'P 1'
_cell_length_a   9.82818121
_cell_length_b   9.82771337
_cell_length_c   14.68117918
_cell_angle_alpha   104.20767149
_cell_angle_beta   106.05110366
_cell_angle_gamma   102.72984727
_symmetry_Int_Tables_number   1
_chemical_formula_structural   FeHgH16C24S4(BrN)2
_chemical_formula_sum   'Fe2 Hg2 H32 C48 S8 Br4 N4'
_cell_volume   1256.25937588
_cell_formula_units_Z   2
loop_
 _symmetry_equiv_pos_site_id
 _symmetry_equiv_pos_as_xyz
  1  'x, y, z'
loop_
 _atom_site_type_symbol
 _atom_site_label
 _atom_site_symmetry_multiplicity
 _atom_site_fract_x
 _atom_site_fract_y
 _atom_site_fract_z
 _atom_site_occupancy
 _atom_site_hle17_bader_spin_density
 _atom_site_hle17_ddec_charge
 _atom_site_hle17_ddec_spin_density
 _atom_site_hle17_ddec_sum_bond_order
 _atom_site_hle17_magmom
 _atom_site_hse06_10hf_bader_spin_density
 _atom_site_hse06_10hf_ddec_charge
 _atom_site_hse06_10hf_ddec_spin_density
 _atom_site_hse06_10hf_ddec_sum_bond_order
 _atom_site_hse06_10hf_magmom
 _atom_site_hse06_bader_spin_density
 _atom_site_hse06_ddec_charge
 _atom_site_hse06_ddec_spin_density
 _atom_site_hse06_ddec_sum_bond_order
 _atom_site_hse06_magmom
 _atom_site_pbe_bader_spin_density
 _atom_site_pbe_cm5_charge
 _atom_site_pbe_ddec_charge
 _atom_site_pbe_ddec_spin_density
 _atom_site_pbe_ddec_sum_bond_order
 _atom_site_pbe_magmom
Fe  Fe0  1  0.99999660  0.99999967  0.99999916  1  0  0.094395  0  3.599738  0  0  0.199195  0  4.000051  0  0  0.206492  0  3.983146  0  0  0.52841  0.200995  0  4.004537  0
Fe  Fe1  1  0.50000076  0.00000055  0.50000043  1  0  0.094096  0  3.602259  0  0  0.198991  0  4.002464  0  0  0.205924  0  3.986146  0  0  0.528518  0.200996  0  4.006629  0
Hg  Hg2  1  0.79935416  0.54946938  0.24995725  1  0  0.677426  0  2.138145  0  0  0.537657  0  2.640552  0  0  0.582913  0  2.607706  0  0  0.466121  0.501538  0  2.668211  0
Hg  Hg3  1  0.20064456  0.45053028  0.75004231  1  0  0.67746  0  2.138058  0  0  0.537678  0  2.640484  0  0  0.582937  0  2.607636  0  0  0.466128  0.501562  0  2.66814  0
H  H4  1  0.05645416  0.74286362  0.90743590  1  0  0.128655  0  0.948447  0  0  0.142013  0  1.005487  0  0  0.144437  0  1.005444  0  0  0.106101  0.140333  0  1.00553  0
H  H5  1  0.33543491  0.14896115  0.59248847  1  0  0.127945  0  0.947932  0  0  0.140651  0  1.005882  0  0  0.142993  0  1.00597  0  0  0.105977  0.139027  0  1.005842  0
H  H6  1  0.94354490  0.25713713  0.09256253  1  0  0.128635  0  0.948443  0  0  0.141983  0  1.005504  0  0  0.144391  0  1.005481  0  0  0.106088  0.140302  0  1.005548  0
H  H7  1  0.66456731  0.85104290  0.40751109  1  0  0.127943  0  0.94796  0  0  0.140658  0  1.005898  0  0  0.143  0  1.005987  0  0  0.105982  0.139032  0  1.005859  0
H  H8  1  0.24371271  0.00814753  0.93207605  1  0  0.115692  0  0.971849  0  0  0.129541  0  1.027716  0  0  0.13114  0  1.029521  0  0  0.104777  0.128416  0  1.026504  0
H  H9  1  0.57629027  0.31168090  0.56809623  1  0  0.115458  0  0.971219  0  0  0.129354  0  1.027054  0  0  0.131021  0  1.028769  0  0  0.104599  0.128174  0  1.025915  0
H  H10  1  0.75628493  0.99185546  0.06792588  1  0  0.115727  0  0.971759  0  0  0.12954  0  1.027679  0  0  0.131139  0  1.029486  0  0  0.104771  0.128414  0  1.026467  0
H  H11  1  0.42371337  0.68832094  0.43190323  1  0  0.115444  0  0.971211  0  0  0.12929  0  1.027095  0  0  0.130959  0  1.028809  0  0  0.104586  0.12811  0  1.025957  0
H  H12  1  0.28927411  0.19507469  0.11434595  1  0  0.116179  0  0.955703  0  0  0.128752  0  1.01432  0  0  0.131305  0  1.014017  0  0  0.105092  0.127439  0  1.013512  0
H  H13  1  0.58118109  0.17503598  0.38584568  1  0  0.114919  0  0.957119  0  0  0.127591  0  1.01588  0  0  0.130129  0  1.015582  0  0  0.104217  0.12631  0  1.015043  0
H  H14  1  0.71071895  0.80492723  0.88565564  1  0  0.116165  0  0.955717  0  0  0.128736  0  1.014333  0  0  0.131288  0  1.014029  0  0  0.105079  0.127424  0  1.013525  0
H  H15  1  0.41882045  0.82496257  0.61415423  1  0  0.114907  0  0.957178  0  0  0.127595  0  1.015916  0  0  0.130133  0  1.015617  0  0  0.104206  0.126313  0  1.015079  0
H  H16  1  0.13185067  0.04675285  0.20476021  1  0  0.120568  0  0.960286  0  0  0.1306  0  1.024195  0  0  0.133211  0  1.024092  0  0  0.102253  0.128881  0  1.024096  0
H  H17  1  0.34239140  0.92726557  0.29525392  1  0  0.120819  0  0.958688  0  0  0.130831  0  1.02278  0  0  0.133457  0  1.022658  0  0  0.102445  0.129101  0  1.022686  0
H  H18  1  0.86814101  0.95324464  0.79523905  1  0  0.120597  0  0.96025  0  0  0.130628  0  1.024161  0  0  0.13324  0  1.024058  0  0  0.102252  0.12891  0  1.024063  0
H  H19  1  0.65761155  0.07273408  0.70474643  1  0  0.120803  0  0.958698  0  0  0.130808  0  1.022796  0  0  0.133432  0  1.022675  0  0  0.102432  0.129077  0  1.022703  0
H  H20  1  0.46819583  0.51035374  0.20775108  1  0  0.084493  0  1.008202  0  0  0.091024  0  1.0829  0  0  0.093994  0  1.08064  0  0  0.08141  0.087506  0  1.086986  0
H  H21  1  0.80268919  0.26070950  0.29246550  1  0  0.086253  0  1.008818  0  0  0.092479  0  1.083805  0  0  0.095471  0  1.08153  0  0  0.082131  0.08898  0  1.087845  0
H  H22  1  0.53180466  0.48964482  0.79224931  1  0  0.084505  0  1.008228  0  0  0.091037  0  1.082922  0  0  0.094008  0  1.080662  0  0  0.081416  0.087519  0  1.087008  0
H  H23  1  0.19731130  0.73928904  0.70753353  1  0  0.086247  0  1.008805  0  0  0.092489  0  1.083784  0  0  0.09548  0  1.081507  0  0  0.082129  0.088973  0  1.087836  0
H  H24  1  0.48074528  0.38129566  0.33416216  1  0  0.090691  0  0.969044  0  0  0.100784  0  1.032222  0  0  0.103522  0  1.031485  0  0  0.093051  0.098282  0  1.034013  0
H  H25  1  0.54735394  0.14691040  0.16595482  1  0  0.091156  0  0.968894  0  0  0.100848  0  1.032386  0  0  0.103592  0  1.031627  0  0  0.092479  0.098295  0  1.034231  0
H  H26  1  0.51925520  0.61870291  0.66583892  1  0  0.090687  0  0.969061  0  0  0.100809  0  1.032209  0  0  0.103549  0  1.031471  0  0  0.093065  0.098307  0  1.034003  0
H  H27  1  0.45264549  0.85308816  0.83404537  1  0  0.09117  0  0.968849  0  0  0.100844  0  1.032365  0  0  0.103596  0  1.031598  0  0  0.092482  0.098292  0  1.034212  0
H  H28  1  0.27781377  0.33800763  0.40368069  1  0  0.091121  0  0.973157  0  0  0.100528  0  1.036623  0  0  0.103292  0  1.03595  0  0  0.089695  0.098667  0  1.036954  0
H  H29  1  0.43461211  0.87444180  0.09623084  1  0  0.092267  0  0.973553  0  0  0.101528  0  1.037114  0  0  0.104292  0  1.036437  0  0  0.090274  0.099626  0  1.037551  0
H  H30  1  0.72218495  0.66199203  0.59631955  1  0  0.091097  0  0.973197  0  0  0.1005  0  1.036667  0  0  0.103265  0  1.035994  0  0  0.089682  0.09864  0  1.036998  0
H  H31  1  0.56538944  0.12555676  0.90376975  1  0  0.092265  0  0.973577  0  0  0.101526  0  1.037139  0  0  0.104291  0  1.036462  0  0  0.090273  0.099623  0  1.037577  0
H  H32  1  0.05641704  0.42153068  0.34716705  1  0  0.103666  0  0.971467  0  0  0.111445  0  1.040799  0  0  0.114411  0  1.039054  0  0  0.089192  0.108575  0  1.043416  0
H  H33  1  0.57465519  0.70951925  0.15265500  1  0  0.102669  0  0.972087  0  0  0.110423  0  1.041714  0  0  0.113429  0  1.039888  0  0  0.088546  0.107609  0  1.044247  0
H  H34  1  0.94358274  0.57846898  0.65283271  1  0  0.10368  0  0.971457  0  0  0.111456  0  1.040789  0  0  0.114424  0  1.039041  0  0  0.089198  0.108586  0  1.043406  0
H  H35  1  0.42534635  0.29047930  0.84734491  1  0  0.102649  0  0.972123  0  0  0.110402  0  1.041745  0  0  0.113407  0  1.039923  0  0  0.088539  0.107587  0  1.044276  0
C  C36  1  0.06301203  0.85354521  0.06327862  1  0  -0.037783  0  3.815151  0  0  -0.024943  0  4.095211  0  0  -0.029118  0  4.116104  0  0  -0.0905  -0.02301  0  4.081332  0
C  C37  1  0.29041960  0.99982333  0.43662666  1  0  -0.040153  0  3.817493  0  0  -0.027084  0  4.097567  0  0  -0.03118  0  4.118349  0  0  -0.090607  -0.025162  0  4.083722  0
C  C38  1  0.93698317  0.14645336  0.93672011  1  0  -0.03784  0  3.815123  0  0  -0.025012  0  4.095194  0  0  -0.029188  0  4.116084  0  0  -0.090549  -0.023057  0  4.081286  0
C  C39  1  0.70958123  0.00017631  0.56337261  1  0  -0.040026  0  3.817383  0  0  -0.026953  0  4.097443  0  0  -0.031058  0  4.118239  0  0  -0.090575  -0.025029  0  4.08359  0
C  C40  1  0.09917944  0.84069023  0.97332785  1  0  -0.136182  0  3.693859  0  0  -0.173457  0  3.969314  0  0  -0.175582  0  3.985206  0  0  -0.152568  -0.172378  0  3.958329  0
C  C41  1  0.36748475  0.12586693  0.52663983  1  0  -0.134999  0  3.693838  0  0  -0.171748  0  3.96954  0  0  -0.173805  0  3.985411  0  0  -0.152595  -0.170718  0  3.958539  0
C  C42  1  0.90081928  0.15930943  0.02667239  1  0  -0.136122  0  3.693766  0  0  -0.173384  0  3.969199  0  0  -0.175499  0  3.985102  0  0  -0.152543  -0.172312  0  3.958212  0
C  C43  1  0.63251678  0.87413492  0.47335993  1  0  -0.135105  0  3.693963  0  0  -0.171859  0  3.969655  0  0  -0.173917  0  3.985532  0  0  -0.152619  -0.17083  0  3.958657  0
C  C44  1  0.19788165  0.98041348  0.98684538  1  0  -0.083797  0  3.684521  0  0  -0.109498  0  3.94938  0  0  -0.112736  0  3.96727  0  0  -0.143036  -0.10766  0  3.937045  0
C  C45  1  0.49384896  0.21108879  0.51328520  1  0  -0.084278  0  3.685568  0  0  -0.110112  0  3.950505  0  0  -0.113361  0  3.968293  0  0  -0.143637  -0.108273  0  3.938263  0
C  C46  1  0.80211599  0.01958952  0.01315655  1  0  -0.083794  0  3.684331  0  0  -0.109467  0  3.949182  0  0  -0.112706  0  3.967072  0  0  -0.143011  -0.107628  0  3.936849  0
C  C47  1  0.50615328  0.78891197  0.48671520  1  0  -0.084193  0  3.685538  0  0  -0.109987  0  3.950512  0  0  -0.113236  0  3.968298  0  0  -0.143624  -0.108149  0  3.938271  0
C  C48  1  0.22276728  0.07944201  0.08391269  1  0  -0.087346  0  3.689468  0  0  -0.112082  0  3.954375  0  0  -0.115486  0  3.971822  0  0  -0.142924  -0.110043  0  3.941453  0
C  C49  1  0.49591577  0.13896264  0.41622139  1  0  -0.088299  0  3.689451  0  0  -0.11334  0  3.95483  0  0  -0.116692  0  3.972298  0  0  -0.142859  -0.11136  0  3.941918  0
C  C50  1  0.77722756  0.92055878  0.91608768  1  0  -0.087338  0  3.689399  0  0  -0.112059  0  3.95427  0  0  -0.115461  0  3.971722  0  0  -0.142915  -0.110021  0  3.941349  0
C  C51  1  0.50408364  0.86103922  0.58377797  1  0  -0.088415  0  3.689584  0  0  -0.113482  0  3.954965  0  0  -0.116833  0  3.972431  0  0  -0.1429  -0.111501  0  3.942054  0
C  C52  1  0.13976049  0.00213250  0.13169705  1  0  -0.139101  0  3.701038  0  0  -0.172752  0  3.972047  0  0  -0.175425  0  3.989073  0  0  -0.15243  -0.171372  0  3.96019  0
C  C53  1  0.37077185  0.00822067  0.36831508  1  0  -0.134824  0  3.698116  0  0  -0.168354  0  3.968896  0  0  -0.171005  0  3.985867  0  0  -0.151044  -0.167037  0  3.95715  0
C  C54  1  0.86023294  0.99786718  0.86830152  1  0  -0.139101  0  3.700953  0  0  -0.172749  0  3.971939  0  0  -0.175424  0  3.988967  0  0  -0.152394  -0.171377  0  3.96008  0
C  C55  1  0.62923110  0.99177898  0.63168527  1  0  -0.134768  0  3.698056  0  0  -0.168295  0  3.968844  0  0  -0.170944  0  3.985818  0  0  -0.151009  -0.166978  0  3.957096  0
C  C56  1  0.05291449  0.63653561  0.14407367  1  0  0.123039  0  3.776473  0  0  0.111072  0  4.089686  0  0  0.126681  0  4.102061  0  0  0.121338  0.101282  0  4.079465  0
C  C57  1  0.99259060  0.90902180  0.35592815  1  0  0.120309  0  3.775958  0  0  0.108228  0  4.089315  0  0  0.12381  0  4.10169  0  0  0.120313  0.098449  0  4.07907  0
C  C58  1  0.94708459  0.36346183  0.85592492  1  0  0.123002  0  3.77648  0  0  0.111033  0  4.089687  0  0  0.126641  0  4.102065  0  0  0.121309  0.101243  0  4.079468  0
C  C59  1  0.00741095  0.09097674  0.64407039  1  0  0.120271  0  3.776063  0  0  0.108195  0  4.089397  0  0  0.123777  0  4.101771  0  0  0.120309  0.098414  0  4.079155  0
C  C60  1  0.25566347  0.53951915  0.20746858  1  0  -0.046607  0  3.774465  0  0  -0.029362  0  4.025458  0  0  -0.031022  0  4.048981  0  0  -0.012961  -0.029497  0  4.010625  0
C  C61  1  0.83229089  0.04845157  0.29252980  1  0  -0.044808  0  3.777328  0  0  -0.027777  0  4.02841  0  0  -0.029407  0  4.051957  0  0  -0.012393  -0.028011  0  4.013667  0
C  C62  1  0.74433595  0.46047941  0.79253093  1  0  -0.04662  0  3.774491  0  0  -0.029398  0  4.025521  0  0  -0.03106  0  4.049047  0  0  -0.012943  -0.029533  0  4.010687  0
C  C63  1  0.16771135  0.95154917  0.70746922  1  0  -0.044817  0  3.777224  0  0  -0.027799  0  4.02832  0  0  -0.029432  0  4.051869  0  0  -0.012411  -0.028036  0  4.013556  0
C  C64  1  0.37935399  0.49212934  0.23845212  1  0  -0.101407  0  3.773527  0  0  -0.119241  0  4.017671  0  0  -0.120947  0  4.038242  0  0  -0.097904  -0.117179  0  4.004945  0
C  C65  1  0.75385680  0.14115829  0.26165601  1  0  -0.102791  0  3.774319  0  0  -0.120301  0  4.018404  0  0  -0.122023  0  4.038982  0  0  -0.096454  -0.11819  0  4.005634  0
C  C66  1  0.62064544  0.50786921  0.76154739  1  0  -0.101412  0  3.773574  0  0  -0.119245  0  4.01773  0  0  -0.120948  0  4.038302  0  0  -0.097913  -0.117181  0  4.005003  0
C  C67  1  0.24614369  0.85884025  0.73834302  1  0  -0.102796  0  3.774193  0  0  -0.120316  0  4.018261  0  0  -0.12204  0  4.038843  0  0  -0.096433  -0.118192  0  4.005504  0
C  C68  1  0.38415174  0.41737094  0.30803711  1  0  -0.065798  0  3.751726  0  0  -0.077136  0  3.995057  0  0  -0.079112  0  4.01561  0  0  -0.093416  -0.075914  0  3.981782  0
C  C69  1  0.60957675  0.07642313  0.19201689  1  0  -0.065727  0  3.752835  0  0  -0.076716  0  3.995942  0  0  -0.078696  0  4.016489  0  0  -0.09343  -0.075451  0  3.982666  0
C  C70  1  0.61584768  0.58262762  0.69196308  1  0  -0.065801  0  3.751754  0  0  -0.077167  0  3.995094  0  0  -0.079146  0  4.015648  0  0  -0.093433  -0.075947  0  3.98182  0
C  C71  1  0.39042374  0.92357542  0.80798283  1  0  -0.065703  0  3.752746  0  0  -0.076674  0  3.995855  0  0  -0.078659  0  4.016401  0  0  -0.093443  -0.075409  0  3.982575  0
C  C72  1  0.26868044  0.39194229  0.34668199  1  0  -0.060787  0  3.7628  0  0  -0.074676  0  4.010401  0  0  -0.074929  0  4.029942  0  0  -0.095548  -0.074529  0  3.996529  0
C  C73  1  0.54556387  0.92231869  0.15320702  1  0  -0.062422  0  3.765364  0  0  -0.076211  0  4.012996  0  0  -0.076451  0  4.032527  0  0  -0.096171  -0.0761  0  3.999194  0
C  C74  1  0.73131933  0.60805737  0.65331845  1  0  -0.060713  0  3.762766  0  0  -0.074596  0  4.010368  0  0  -0.07485  0  4.029907  0  0  -0.095482  -0.074451  0  3.996498  0
C  C75  1  0.45443942  0.07768206  0.84679289  1  0  -0.062419  0  3.765361  0  0  -0.076217  0  4.013005  0  0  -0.076456  0  4.032533  0  0  -0.096146  -0.076106  0  3.999204  0
C  C76  1  0.14422805  0.43759091  0.31517956  1  0  -0.149332  0  3.723315  0  0  -0.169375  0  3.975842  0  0  -0.172731  0  3.995599  0  0  -0.100984  -0.166219  0  3.962915  0
C  C77  1  0.62271735  0.82933520  0.18465160  1  0  -0.146959  0  3.724791  0  0  -0.167124  0  3.977339  0  0  -0.170443  0  3.997048  0  0  -0.099524  -0.164002  0  3.964402  0
C  C78  1  0.85577313  0.56240986  0.68482200  1  0  -0.149377  0  3.723347  0  0  -0.169421  0  3.975871  0  0  -0.172774  0  3.995627  0  0  -0.101031  -0.166262  0  3.962944  0
C  C79  1  0.37728560  0.17066444  0.81534807  1  0  -0.146933  0  3.724821  0  0  -0.167098  0  3.977367  0  0  -0.170418  0  3.997079  0  0  -0.099529  -0.163983  0  3.964417  0
C  C80  1  0.13645081  0.51074437  0.24392091  1  0  0.177876  0  3.848573  0  0  0.175228  0  4.096053  0  0  0.179729  0  4.120012  0  0  0.084996  0.172017  0  4.080213  0
C  C81  1  0.76707872  0.89276406  0.25595095  1  0  0.17314  0  3.854322  0  0  0.170466  0  4.10198  0  0  0.174867  0  4.126056  0  0  0.080903  0.16728  0  4.086108  0
C  C82  1  0.86354896  0.48925528  0.75607885  1  0  0.177858  0  3.84863  0  0  0.175212  0  4.096111  0  0  0.179711  0  4.120072  0  0  0.084976  0.172  0  4.080271  0
C  C83  1  0.23292352  0.10723669  0.74404876  1  0  0.173109  0  3.854318  0  0  0.170452  0  4.101957  0  0  0.174856  0  4.126033  0  0  0.080907  0.167295  0  4.08604  0
S  S84  1  0.22109771  0.63912063  0.12573873  1  0  0.11233  0  2.555907  0  0  0.117012  0  2.884091  0  0  0.114828  0  2.888796  0  0  0.111776  0.117416  0  2.881687  0
S  S85  1  0.01357271  0.09556936  0.37432021  1  0  0.114305  0  2.557204  0  0  0.11896  0  2.885576  0  0  0.116806  0  2.890278  0  0  0.112194  0.11932  0  2.883207  0
S  S86  1  0.77890243  0.36087681  0.87426074  1  0  0.112356  0  2.555914  0  0  0.117044  0  2.884117  0  0  0.114862  0  2.888823  0  0  0.11178  0.117448  0  2.881713  0
S  S87  1  0.98642847  0.90443140  0.62567998  1  0  0.114311  0  2.557219  0  0  0.118971  0  2.885588  0  0  0.116817  0  2.890291  0  0  0.112198  0.119328  0  2.883221  0
S  S88  1  0.93355201  0.71894203  0.08256613  1  0  0.077955  0  2.524255  0  0  0.064339  0  2.870634  0  0  0.062623  0  2.871993  0  0  0.058164  0.06562  0  2.868729  0
S  S89  1  0.13651885  0.85109233  0.41735693  1  0  0.078925  0  2.525409  0  0  0.065354  0  2.871457  0  0  0.063636  0  2.872802  0  0  0.058444  0.066564  0  2.869576  0
S  S90  1  0.06644566  0.28105432  0.91743270  1  0  0.077969  0  2.524238  0  0  0.064359  0  2.870605  0  0  0.062645  0  2.871963  0  0  0.058188  0.065633  0  2.868694  0
S  S91  1  0.86348304  0.14890733  0.58264390  1  0  0.078898  0  2.525377  0  0  0.065324  0  2.87143  0  0  0.063607  0  2.872779  0  0  0.058419  0.066534  0  2.869548  0
Br  Br92  1  0.60671027  0.40006614  0.07715943  1  0  -0.439234  0  1.018876  0  0  -0.388103  0  1.318695  0  0  -0.406403  0  1.301296  0  0  -0.236704  -0.372981  0  1.333208  0
Br  Br93  1  0.82277435  0.52957943  0.42273669  1  0  -0.439422  0  1.018767  0  0  -0.388334  0  1.318462  0  0  -0.406626  0  1.301072  0  0  -0.236548  -0.373221  0  1.333018  0
Br  Br94  1  0.39328948  0.59993683  0.92284085  1  0  -0.439272  0  1.018851  0  0  -0.38814  0  1.318659  0  0  -0.406441  0  1.301261  0  0  -0.236729  -0.373018  0  1.333171  0
Br  Br95  1  0.17722577  0.47042133  0.57726263  1  0  -0.439424  0  1.018747  0  0  -0.388336  0  1.318452  0  0  -0.406628  0  1.30106  0  0  -0.236542  -0.373221  0  1.333002  0
N  N96  1  0.02311303  0.56610073  0.20531126  1  0  -0.380615  0  3.266755  0  0  -0.319993  0  3.543163  0  0  -0.340253  0  3.560163  0  0  -0.325957  -0.3047  0  3.530199  0
N  N97  1  0.86098433  0.81799770  0.29457309  1  0  -0.379438  0  3.26542  0  0  -0.318076  0  3.540443  0  0  -0.338351  0  3.557636  0  0  -0.324749  -0.302683  0  3.527214  0
N  N98  1  0.97688675  0.43389893  0.79468850  1  0  -0.380612  0  3.266794  0  0  -0.31998  0  3.543189  0  0  -0.340242  0  3.560195  0  0  -0.325948  -0.304687  0  3.530226  0
N  N99  1  0.13901650  0.18200195  0.70542618  1  0  -0.379392  0  3.265456  0  0  -0.31804  0  3.540463  0  0  -0.338316  0  3.557657  0  0  -0.324749  -0.302668  0  3.527255  0
