# generated using pymatgen
data_CuH7C8N3O2
_symmetry_space_group_name_H-M   'P 1'
_cell_length_a   4.96056668
_cell_length_b   6.35003176
_cell_length_c   27.12496619
_cell_angle_alpha   89.99985363
_cell_angle_beta   89.99205272
_cell_angle_gamma   90.00009526
_symmetry_Int_Tables_number   1
_chemical_formula_structural   CuH7C8N3O2
_chemical_formula_sum   'Cu4 H28 C32 N12 O8'
_cell_volume   854.42980791
_cell_formula_units_Z   4
loop_
 _symmetry_equiv_pos_site_id
 _symmetry_equiv_pos_as_xyz
  1  'x, y, z'
loop_
 _atom_site_type_symbol
 _atom_site_label
 _atom_site_symmetry_multiplicity
 _atom_site_fract_x
 _atom_site_fract_y
 _atom_site_fract_z
 _atom_site_occupancy
 _atom_site_hle17_ddec_charge
 _atom_site_hle17_ddec_spin_density
 _atom_site_hle17_ddec_sum_bond_order
 _atom_site_hle17_magmom
 _atom_site_hse06_10hf_bader_charge
 _atom_site_hse06_10hf_bader_spin_density
 _atom_site_hse06_10hf_ddec_charge
 _atom_site_hse06_10hf_ddec_spin_density
 _atom_site_hse06_10hf_ddec_sum_bond_order
 _atom_site_hse06_10hf_magmom
 _atom_site_hse06_ddec_charge
 _atom_site_hse06_ddec_spin_density
 _atom_site_hse06_ddec_sum_bond_order
 _atom_site_hse06_magmom
 _atom_site_pbe_cm5_charge
 _atom_site_pbe_ddec_charge
 _atom_site_pbe_ddec_spin_density
 _atom_site_pbe_ddec_sum_bond_order
 _atom_site_pbe_magmom
Cu  Cu0  1  0.99845500  0.63044177  0.25182038  1  0.866806  -0.655359  1.883964  -0.426  1.124042  -0.569634  0.880582  -0.771346  2.279308  -0.568  0.980186  -0.893795  2.19385  -0.675  0.754299  0.827174  -0.666599  2.33149  -0.484
Cu  Cu1  1  0.50170201  0.36940699  0.75180198  1  0.864337  0.631266  1.886745  0.438  1.121721  0.578099  0.878591  0.745475  2.281839  0.574  0.977082  0.830823  2.196617  0.67  0.754513  0.827195  0.688024  2.333348  0.515
Cu  Cu2  1  0.00155560  0.13044052  0.24817979  1  0.867177  0.608743  1.883803  0.426  1.124155  0.569636  0.880584  0.732919  2.279224  0.568  0.980202  0.830697  2.193782  0.675  0.754286  0.827171  0.643477  2.3314  0.484
Cu  Cu3  1  0.49828899  0.86940923  0.74819671  1  0.864317  0.631283  1.886763  0.438  1.121559  0.578091  0.878501  0.745464  2.281891  0.574  0.977053  0.830834  2.196633  0.67  0.754489  0.82714  0.688026  2.333361  0.515
H  H4  1  0.90539961  0.33971933  0.43679221  1  0.09076  2.2e-05  0.981898  0.0  0.013212  7.1e-05  0.112547  2.3e-05  1.04744  0.0  0.113559  7e-06  1.047097  0.0  0.083574  0.111773  3.9e-05  1.047713  0.0
H  H5  1  0.59467035  0.66027231  0.93682619  1  0.090951  5.1e-05  0.982002  0.0  0.012458  0.000108  0.112706  4.1e-05  1.047574  0.0  0.113718  1.4e-05  1.047232  0.0  0.083668  0.111913  6.9e-05  1.047865  0.0
H  H6  1  0.09459533  0.83971363  0.06320747  1  0.09079  -1.5e-05  0.981868  0.0  0.013249  -5.5e-05  0.112585  -1.3e-05  1.047393  0.0  0.113597  1e-06  1.04705  0.0  0.083586  0.111811  -2.4e-05  1.047665  0.0
H  H7  1  0.40530809  0.16026884  0.56317484  1  0.090961  3.8e-05  0.982006  0.0  0.012493  9.2e-05  0.112695  2.8e-05  1.04762  0.0  0.113708  6e-06  1.047277  0.0  0.083641  0.111909  5.2e-05  1.047909  0.0
H  H8  1  0.81080719  0.35026129  0.37372605  1  0.130563  -8e-05  0.947206  0.0  0.113707  -9.6e-05  0.14927  -4.8e-05  1.008535  0.0  0.150684  -2.7e-05  1.007827  0.0  0.093943  0.148329  -6.9e-05  1.008862  0.0
H  H9  1  0.68927605  0.64966961  0.87375358  1  0.130499  7e-06  0.947104  0.0  0.113985  2.8e-05  0.149571  3.1e-05  1.008049  0.0  0.15102  -1.5e-05  1.007298  0.0  0.093936  0.148537  8.3e-05  1.008464  0.0
H  H10  1  0.18919382  0.85025660  0.12627399  1  0.130609  7.3e-05  0.947169  0.0  0.113735  9.7e-05  0.149316  4.5e-05  1.008495  0.0  0.150732  2.7e-05  1.007784  0.0  0.09394  0.148365  6.6e-05  1.008823  0.0
H  H11  1  0.31070237  0.14967007  0.62624746  1  0.1304  5e-06  0.947106  0.0  0.113918  2.6e-05  0.149466  3e-05  1.00809  0.0  0.150914  -1.5e-05  1.00734  0.0  0.093877  0.148433  8.2e-05  1.008504  0.0
H  H12  1  0.07778102  0.18542534  0.39204700  1  0.119081  0.000258  0.952661  0.0  0.064349  0.000267  0.139146  0.000168  1.012823  0.0  0.139413  0.000104  1.01477  0.0  0.091788  0.138941  0.000226  1.011445  0.0
H  H13  1  0.42232805  0.81453466  0.89208175  1  0.119025  0.000144  0.952723  0.0  0.065393  0.000176  0.139194  0.000111  1.012897  0.0  0.139484  6.4e-05  1.01482  0.0  0.091757  0.138941  0.000162  1.011555  0.0
H  H14  1  0.92222365  0.68541388  0.10795388  1  0.119084  -0.00028  0.952716  0.0  0.064354  -0.000267  0.139157  -0.000177  1.012867  0.0  0.139423  -0.000112  1.014815  0.0  0.091808  0.138945  -0.000234  1.011489  0.0
H  H15  1  0.57765477  0.31452935  0.60791919  1  0.118951  0.000142  0.952746  0.0  0.065512  0.000176  0.139224  0.000111  1.012825  0.0  0.139512  6.4e-05  1.014752  0.0  0.091788  0.138967  0.000162  1.011484  0.0
H  H16  1  0.15387258  0.62878668  0.44295729  1  0.085761  0.000158  0.976911  0.0  0.055165  0.000247  0.096941  0.000125  1.039333  0.0  0.098975  7.3e-05  1.039776  0.0  0.097481  0.095499  0.00017  1.039098  0.0
H  H17  1  0.34608526  0.37136490  0.94287739  1  0.085734  0.00014  0.977148  0.0  0.054035  0.00022  0.096887  9.9e-05  1.039599  0.0  0.098936  5.7e-05  1.040039  0.0  0.097424  0.095424  0.000136  1.039393  0.0
H  H18  1  0.84614608  0.12879485  0.05704288  1  0.085795  -0.000148  0.976909  0.0  0.05505  -0.000232  0.096972  -0.00012  1.039342  0.0  0.099003  -7.4e-05  1.039783  0.0  0.097486  0.095527  -0.000155  1.039109  0.0
H  H19  1  0.65391785  0.87136783  0.55712094  1  0.085748  0.000121  0.977276  0.0  0.053971  0.000208  0.096908  8.9e-05  1.039716  0.0  0.098956  5.1e-05  1.040157  0.0  0.097449  0.095447  0.000122  1.039509  0.0
H  H20  1  0.23075708  0.92094557  0.50228644  1  0.079336  1.9e-05  0.966666  0.0  0.089698  -3e-06  0.090233  -3e-06  1.031152  0.0  0.09241  -3e-06  1.030799  0.0  0.097499  0.088637  -1e-06  1.031525  0.0
H  H21  1  0.26942209  0.07924543  0.00223654  1  0.079362  -5e-05  0.967086  0.0  0.089295  2.1e-05  0.0903  8e-06  1.031321  0.0  0.092484  -1e-06  1.030977  0.0  0.097445  0.088704  2.3e-05  1.031695  0.0
H  H22  1  0.76925420  0.42095202  0.99771296  1  0.079333  -1.1e-05  0.966636  0.0  0.089633  1.9e-05  0.090217  9e-06  1.031127  0.0  0.092395  5e-06  1.030777  0.0  0.097507  0.088625  1.3e-05  1.031502  0.0
H  H23  1  0.73057630  0.57924840  0.49776292  1  0.079314  -3.4e-05  0.96712  0.0  0.089266  2.8e-05  0.09025  1.5e-05  1.031367  0.0  0.092434  2e-06  1.031023  0.0  0.097422  0.088657  3.5e-05  1.031744  0.0
H  H24  1  0.41929493  0.61428182  0.36522183  1  0.101198  -0.000467  0.964267  0.0  0.098353  -0.000201  0.109346  -0.000355  1.028747  0.0  0.111622  -0.000284  1.027463  0.0  0.101747  0.107941  -0.000419  1.029446  0.0
H  H25  1  0.08047959  0.38570052  0.86517966  1  0.10085  0.000334  0.96413  0.0  0.097657  0.000269  0.109134  0.00035  1.028579  0.0  0.11143  0.000283  1.027302  0.0  0.10161  0.107606  0.000423  1.02935  0.0
H  H26  1  0.58071966  0.11428567  0.13477798  1  0.101136  0.000435  0.964324  0.0  0.098371  0.000202  0.109359  0.000338  1.028729  0.0  0.111633  0.000266  1.02745  0.0  0.101764  0.107947  0.000405  1.029425  0.0
H  H27  1  0.91951548  0.88570609  0.63481939  1  0.100838  0.000334  0.964155  0.0  0.097646  0.000269  0.109099  0.00035  1.028624  0.0  0.1114  0.000282  1.027334  0.0  0.101604  0.107571  0.000424  1.029393  0.0
H  H28  1  0.56813023  0.19943926  0.48305283  1  0.084237  -0.000163  0.974894  0.0  0.044211  -0.000241  0.095881  -0.000129  1.038738  0.0  0.098192  -7.9e-05  1.038717  0.0  0.096446  0.094243  -0.00017  1.03884  0.0
H  H29  1  0.93212057  0.80063692  0.98305969  1  0.084175  0.00017  0.974431  0.0  0.045713  0.000274  0.095669  0.000132  1.038544  0.0  0.097991  7.7e-05  1.038508  0.0  0.09636  0.094014  0.000181  1.038666  0.0
H  H30  1  0.43187247  0.69944077  0.01694730  1  0.084202  0.000153  0.974897  0.0  0.044192  0.000251  0.095828  0.000127  1.038759  0.0  0.098138  7.6e-05  1.038741  0.0  0.096436  0.094192  0.000172  1.038859  0.0
H  H31  1  0.06786423  0.30063353  0.51694126  1  0.0842  0.00016  0.974472  0.0  0.045724  0.000267  0.095728  0.000123  1.038546  0.0  0.098042  7.2e-05  1.038522  0.0  0.096407  0.094076  0.000169  1.038668  0.0
C  C32  1  0.68227050  0.07039626  0.41291713  1  0.155519  -0.001018  3.701077  -0.001  0.021204  -0.001652  0.173178  -0.001169  3.934596  -0.001  0.176784  -0.000837  3.958323  -0.001  0.004125  0.170848  -0.001384  3.918269  -0.002
C  C33  1  0.81781344  0.92958776  0.91292757  1  0.155036  0.000986  3.701562  0.001  0.020358  0.001711  0.173075  0.001091  3.934273  0.001  0.176658  0.000458  3.958033  0.001  0.004256  0.170801  0.001684  3.917867  0.002
C  C34  1  0.31774199  0.57039215  0.08708307  1  0.155374  0.000842  3.701063  0.001  0.021456  0.001654  0.17313  0.001095  3.934469  0.001  0.176727  0.000763  3.958207  0.001  0.00409  0.1708  0.001322  3.918129  0.002
C  C35  1  0.18217568  0.42958848  0.58707293  1  0.155081  0.000969  3.701326  0.001  0.020242  0.001704  0.173119  0.001086  3.934126  0.001  0.176701  0.000456  3.957882  0.001  0.004207  0.170839  0.001677  3.917725  0.002
C  C36  1  0.78082907  0.88652496  0.33168751  1  0.674481  0.000288  3.819898  0.001  1.572253  0.000452  0.638004  0.000324  4.105279  0.001  0.681417  0.000222  4.097281  0.001  0.226805  0.609099  0.000407  4.109939  0.001
C  C37  1  0.71910645  0.11334340  0.83169727  1  0.675317  -0.005322  3.819699  -0.01  1.571499  -0.000327  0.63838  0.001688  4.104726  -0.002  0.681631  0.000677  4.096656  -0.002  0.226795  0.609781  0.002654  4.109659  -0.002
C  C38  1  0.21918008  0.38652485  0.16831324  1  0.674373  -0.000886  3.820058  -0.001  1.572292  -0.000448  0.637897  -0.000629  4.105449  -0.001  0.681327  -0.00059  4.09743  -0.001  0.226788  0.608992  -0.000632  4.110089  -0.001
C  C39  1  0.28087996  0.61333679  0.66830269  1  0.675402  -0.00532  3.819753  -0.01  1.571512  -0.000327  0.638487  0.001688  4.104783  -0.002  0.681744  0.000676  4.096703  -0.002  0.226839  0.609882  0.002655  4.109721  -0.002
C  C40  1  0.63841581  0.90038438  0.38011998  1  -0.122336  -0.000888  3.694567  0.0  -0.068566  -2.9e-05  -0.108639  -0.00014  3.926639  0.0  -0.120627  -6.1e-05  3.949371  0.0  -0.017499  -0.100262  -0.000218  3.910606  0.0
C  C41  1  0.86150135  0.09956850  0.88011284  1  -0.122942  0.02051  3.6957  0.021  -0.067829  0.016421  -0.108581  0.011615  3.92627  0.013  -0.120474  0.008118  3.948909  0.01  -0.017854  -0.100547  0.013988  3.910341  0.015
C  C42  1  0.36159942  0.40038025  0.11988039  1  -0.122114  0.000252  3.694574  0.0  -0.068477  4.2e-05  -0.108467  -4.1e-05  3.926674  0.0  -0.12045  -0.000116  3.949392  0.0  -0.017439  -0.100095  7.1e-05  3.910627  0.0
C  C43  1  0.13848099  0.59956696  0.61988675  1  -0.123036  0.020522  3.695751  0.021  -0.067835  0.016434  -0.108783  0.011624  3.926492  0.013  -0.120672  0.008123  3.949113  0.01  -0.017912  -0.10074  0.014  3.910559  0.015
C  C44  1  0.87954815  0.24524595  0.40329501  1  -0.339557  0.000347  3.715312  0.0  -0.099578  0.000297  -0.420033  0.000287  3.950035  0.0  -0.421421  0.00017  3.958624  0.0  -0.245987  -0.418693  0.000389  3.943764  0.0
C  C45  1  0.62055311  0.75471613  0.90332718  1  -0.339792  0.000153  3.716045  0.0  -0.099407  0.000265  -0.420576  0.000236  3.950394  0.0  -0.42198  0.000111  3.958958  0.0  -0.246178  -0.419182  0.000362  3.944171  0.0
C  C46  1  0.12045666  0.74524149  0.09670509  1  -0.339679  -0.000367  3.715407  0.0  -0.099721  -0.000283  -0.42019  -0.000293  3.950076  0.0  -0.421576  -0.000179  3.958663  0.0  -0.24604  -0.418843  -0.00039  3.943799  0.0
C  C47  1  0.37942756  0.25471384  0.59667306  1  -0.339611  0.000149  3.715977  0.0  -0.099387  0.000249  -0.42047  0.000225  3.95034  0.0  -0.421877  0.000104  3.95891  0.0  -0.246104  -0.419082  0.000347  3.944117  0.0
C  C48  1  0.30271357  0.74994369  0.43494392  1  -0.084206  0.001686  3.774807  0.002  -0.053543  0.000796  -0.097967  0.00054  4.026962  0.001  -0.102526  0.000316  4.049758  0.0  -0.095929  -0.094983  0.000723  4.011515  0.001
C  C49  1  0.19726239  0.25015916  0.93489295  1  -0.084595  0.000991  3.775765  0.001  -0.054545  0.000781  -0.098361  0.000475  4.027674  0.001  -0.102938  0.000348  4.050457  0.0  -0.096071  -0.095402  0.000672  4.01225  0.001
C  C50  1  0.69730133  0.24995159  0.06505618  1  -0.084353  -0.001783  3.774857  -0.002  -0.053648  -0.000777  -0.098122  -0.000555  4.027047  -0.001  -0.102678  -0.000335  4.049842  0.0  -0.095996  -0.095139  -0.000726  4.011591  -0.001
C  C51  1  0.80273238  0.75016691  0.56510618  1  -0.0846  0.000967  3.776063  0.001  -0.054559  0.000773  -0.098367  0.000467  4.027932  0.001  -0.102944  0.000345  4.050717  0.0  -0.096018  -0.095411  0.00066  4.012517  0.001
C  C52  1  0.34577299  0.91494901  0.46798557  1  -0.048039  -0.000735  3.784472  -0.001  -0.090467  -0.000192  -0.065773  -0.000137  4.039043  0.0  -0.064855  -6.4e-05  4.059551  0.0  -0.086562  -0.06624  -0.000213  4.025132  0.0
C  C53  1  0.15435143  0.08517238  0.96794871  1  -0.048794  0.001924  3.785692  0.002  -0.088549  0.000772  -0.066153  0.000482  4.039794  0.0  -0.065236  3e-06  4.06031  0.0  -0.086858  -0.066593  0.000978  4.025853  0.001
C  C54  1  0.65423623  0.41495564  0.03201516  1  -0.048051  0.000685  3.784539  0.001  -0.090325  0.000217  -0.065769  0.000145  4.039108  0.0  -0.064856  6.1e-05  4.059621  0.0  -0.086588  -0.066245  0.000232  4.025198  0.0
C  C55  1  0.84564499  0.58517424  0.53205090  1  -0.048732  0.001942  3.78581  0.002  -0.088596  0.000783  -0.0661  0.000491  4.039932  0.0  -0.065185  8e-06  4.06045  0.0  -0.086879  -0.066547  0.000993  4.026005  0.001
C  C56  1  0.45114446  0.74187634  0.39142271  1  -0.054863  -0.000209  3.723036  0.0  0.014234  0.000871  -0.079257  0.00061  3.97265  0.001  -0.077533  0.000451  3.99309  0.001  -0.084185  -0.080129  0.000685  3.958351  0.001
C  C57  1  0.04876351  0.25814037  0.89139064  1  -0.054477  0.000963  3.72343  0.001  0.014479  0.00168  -0.078677  0.001127  3.972129  0.001  -0.076969  0.000469  3.992552  0.001  -0.083878  -0.079491  0.001711  3.95789  0.002
C  C58  1  0.54886840  0.24187571  0.10857887  1  -0.054712  3.7e-05  3.723036  0.0  0.014066  -0.000866  -0.079181  -0.000679  3.972668  -0.001  -0.077459  -0.000518  3.993101  -0.001  -0.08418  -0.080053  -0.000741  3.958352  -0.001
C  C59  1  0.95123128  0.75814311  0.60860849  1  -0.054463  0.000956  3.723742  0.001  0.014412  0.001671  -0.078605  0.001123  3.972451  0.001  -0.076894  0.000466  3.99287  0.001  -0.083906  -0.07942  0.001706  3.958212  0.002
C  C60  1  0.53417202  0.07118018  0.45697917  1  -0.152114  -0.001201  3.745543  -0.001  -0.04424  -0.000632  -0.168367  -0.000455  3.989793  0.0  -0.174207  -0.000263  4.012419  0.0  -0.096807  -0.164491  -0.000612  3.974483  -0.001
C  C61  1  0.96598152  0.92886478  0.95697218  1  -0.151289  0.001145  3.744492  0.001  -0.044893  0.00081  -0.167674  0.000536  3.988648  0.001  -0.173509  0.000381  4.011274  0.0  -0.096528  -0.16383  0.000741  3.973357  0.001
C  C62  1  0.46583845  0.57118145  0.04301993  1  -0.152007  0.001142  3.745395  0.001  -0.04419  0.000651  -0.168271  0.000444  3.989621  0.0  -0.17411  0.00025  4.012253  0.0  -0.096789  -0.164402  0.000614  3.974308  0.001
C  C63  1  0.03400559  0.42886895  0.54302832  1  -0.151376  0.00113  3.744652  0.001  -0.044771  0.000813  -0.167778  0.000537  3.988817  0.001  -0.173609  0.000381  4.011436  0.0  -0.096567  -0.163935  0.000741  3.973538  0.001
N  N64  1  0.24945115  0.88165263  0.25446581  1  -0.520614  0.003818  2.869702  0.007  -0.294296  0.003035  -0.567105  0.001017  3.255298  0.003  -0.620678  -0.000322  3.267465  0.002  -0.349766  -0.537549  0.001774  3.250903  0.003
N  N65  1  0.25027185  0.11830886  0.75431476  1  -0.513926  0.105974  2.867568  0.129  -0.288682  0.091279  -0.562739  0.067174  3.254069  0.088  -0.615896  0.044997  3.266192  0.065  -0.347459  -0.533987  0.080895  3.249643  0.099
N  N66  1  0.75057614  0.38165077  0.24553200  1  -0.520904  -0.008279  2.869342  -0.007  -0.294639  -0.003044  -0.567367  -0.003391  3.254877  -0.003  -0.62097  -0.002825  3.267058  -0.002  -0.349972  -0.537792  -0.003425  3.250484  -0.003
N  N67  1  0.74971860  0.61830829  0.74568334  1  -0.513992  0.105985  2.86763  0.129  -0.288947  0.09129  -0.562763  0.06718  3.254105  0.088  -0.615925  0.045002  3.266229  0.065  -0.347398  -0.534008  0.080901  3.249682  0.099
N  N68  1  0.45144556  0.87935527  0.22944569  1  0.426828  -0.001491  4.10269  -0.002  -0.354902  7.6e-05  0.470953  -0.000367  4.414287  0.0  0.495512  -0.000566  4.448323  -0.001  0.094889  0.455725  -0.000154  4.394127  0.0
N  N69  1  0.04739104  0.12067264  0.72958810  1  0.424583  -0.043795  4.095644  -0.061  -0.280212  -0.006988  0.469277  -0.008523  4.410276  -0.02  0.493712  -0.013864  4.444403  -0.025  0.094553  0.454389  -0.0026  4.389702  -0.013
N  N70  1  0.54854342  0.37935288  0.27055802  1  0.426767  0.000441  4.102903  0.002  -0.354908  -7.4e-05  0.470896  -0.000149  4.414447  0.0  0.495452  -0.000122  4.448471  0.001  0.095039  0.455668  -0.000212  4.394313  0.0
N  N71  1  0.95259941  0.62067520  0.77041037  1  0.424684  -0.04379  4.095821  -0.061  -0.280171  -0.006989  0.469367  -0.008522  4.410423  -0.02  0.493804  -0.013866  4.444545  -0.025  0.09452  0.454479  -0.0026  4.389853  -0.013
N  N72  1  0.65313241  0.87764686  0.20749728  1  -0.313486  0.000246  2.459577  0.004  0.090765  0.00213  -0.341351  0.000254  2.732331  0.002  -0.354461  -4e-05  2.733459  0.002  -0.147234  -0.337687  0.00038  2.734451  0.002
N  N73  1  0.84500974  0.12245907  0.70780721  1  -0.309902  0.16741  2.455709  0.19  0.014624  0.149345  -0.340292  0.095355  2.731274  0.114  -0.353514  0.081705  2.732306  0.103  -0.146838  -0.336011  0.106136  2.732885  0.122
N  N74  1  0.34690294  0.37764241  0.29250274  1  -0.313096  -0.005602  2.460306  -0.004  0.091275  -0.002125  -0.340967  -0.002444  2.733019  -0.002  -0.354055  -0.002593  2.734141  -0.002  -0.147129  -0.337331  -0.002056  2.735163  -0.002
N  N75  1  0.15497869  0.62246198  0.79219090  1  -0.309992  0.167398  2.455922  0.19  0.014803  0.149338  -0.340402  0.095352  2.731502  0.114  -0.353621  0.081703  2.732531  0.103  -0.146851  -0.336117  0.106132  2.733111  0.122
O  O76  1  0.83131738  0.70268821  0.31477040  1  -0.592254  -0.08321  2.115646  -0.099  -1.148823  -0.080771  -0.559132  -0.055919  2.390771  -0.075  -0.605789  -0.045813  2.383793  -0.064  -0.312499  -0.529942  -0.059771  2.395561  -0.078
O  O77  1  0.66872566  0.29715199  0.81473304  1  -0.594128  0.075203  2.115975  0.098  -1.148839  0.0814  -0.559904  0.052996  2.390861  0.076  -0.606141  0.041442  2.383729  0.064  -0.313269  -0.531607  0.058818  2.39595  0.081
O  O78  1  0.16868733  0.20268470  0.18522899  1  -0.592235  0.077314  2.115784  0.099  -1.148832  0.080788  -0.559063  0.053097  2.390849  0.075  -0.605735  0.042426  2.383874  0.064  -0.31244  -0.529866  0.057721  2.395603  0.078
O  O79  1  0.33126922  0.79714684  0.68526607  1  -0.594109  0.075206  2.116021  0.098  -1.14871  0.081401  -0.559826  0.052996  2.390821  0.076  -0.606082  0.041442  2.383695  0.064  -0.313206  -0.531534  0.058819  2.395904  0.081
O  O80  1  0.83267497  0.06102058  0.31052615  1  -0.587361  0.079402  2.178137  0.102  -1.146962  0.082872  -0.548551  0.054494  2.45427  0.077  -0.596747  0.0433  2.449686  0.065  -0.306171  -0.518301  0.059449  2.457489  0.081
O  O81  1  0.66719184  0.93886692  0.81053157  1  -0.589963  0.077471  2.178462  0.101  -1.148136  0.083603  -0.549743  0.05447  2.454053  0.078  -0.597434  0.042438  2.449209  0.065  -0.307354  -0.520588  0.060624  2.457853  0.083
O  O82  1  0.16734758  0.56101674  0.18947480  1  -0.587241  -0.085467  2.178096  -0.102  -1.146951  -0.082883  -0.548463  -0.057398  2.454271  -0.077  -0.596659  -0.046755  2.449669  -0.065  -0.306124  -0.518215  -0.061607  2.457487  -0.081
O  O83  1  0.33278722  0.43886357  0.68946819  1  -0.590037  0.077463  2.17859  0.101  -1.148163  0.083597  -0.549825  0.054467  2.454203  0.078  -0.597503  0.042437  2.449344  0.065  -0.307421  -0.520666  0.060614  2.458013  0.083
