# generated using pymatgen
data_CeH11C17O9
_symmetry_space_group_name_H-M   'P 1'
_cell_length_a   4.84530991
_cell_length_b   13.38458275
_cell_length_c   13.04456822
_cell_angle_alpha   90.00653466
_cell_angle_beta   99.82622214
_cell_angle_gamma   89.88929949
_symmetry_Int_Tables_number   1
_chemical_formula_structural   CeH11C17O9
_chemical_formula_sum   'Ce2 H22 C34 O18'
_cell_volume   833.56015204
_cell_formula_units_Z   2
loop_
 _symmetry_equiv_pos_site_id
 _symmetry_equiv_pos_as_xyz
  1  'x, y, z'
loop_
 _atom_site_type_symbol
 _atom_site_label
 _atom_site_symmetry_multiplicity
 _atom_site_fract_x
 _atom_site_fract_y
 _atom_site_fract_z
 _atom_site_occupancy
 _atom_site_pbe_bader_charge
 _atom_site_pbe_bader_spin_density
 _atom_site_pbe_cm5_charge
 _atom_site_pbe_ddec_charge
 _atom_site_pbe_ddec_spin_density
 _atom_site_pbe_ddec_sum_bond_order
 _atom_site_pbe_magmom
Ce  Ce0  1  0.24355410  0.24013677  0.21205201  1  2.244103  0.949919  1.281862  1.972488  1.012807  2.279946  0.924
Ce  Ce1  1  0.75413602  0.74045449  0.78800167  1  2.249633  0.93283  1.291279  1.981206  0.99642  2.288423  0.909
H  H2  1  0.67118736  0.52024219  0.66753178  1  0.660797  9e-06  0.315332  0.374538  -4.1e-05  0.97039  0.0
H  H3  1  0.32980791  0.01899629  0.33181053  1  0.667945  5.1e-05  0.31495  0.375633  -5e-06  0.968663  0.0
H  H4  1  0.77218336  0.19545909  0.87302688  1  0.090706  8.4e-05  0.108293  0.116896  -5.6e-05  0.995621  0.0
H  H5  1  0.22755104  0.69554009  0.12683220  1  0.090212  7e-05  0.108192  0.116867  -7.5e-05  0.995303  0.0
H  H6  1  0.24985721  0.42815840  0.96289453  1  0.109533  2.3e-05  0.118074  0.122133  -5.5e-05  0.988976  0.0
H  H7  1  0.75096848  0.92696142  0.03649211  1  0.110497  3.8e-05  0.117677  0.121778  -6.9e-05  0.989909  0.0
H  H8  1  0.15059957  0.33611451  0.64203874  1  0.089914  0.000196  0.110952  0.118686  -5e-06  0.998915  0.0
H  H9  1  0.84914699  0.83575236  0.35761571  1  0.090765  0.000278  0.11045  0.117736  -9e-06  1.000333  0.0
H  H10  1  0.71664413  0.13930541  0.69974778  1  0.052803  4.7e-05  0.097018  0.104494  1e-06  1.014911  0.0
H  H11  1  0.28278866  0.63971547  0.30017875  1  0.056337  4.7e-05  0.096921  0.104439  1e-06  1.014443  0.0
H  H12  1  0.62894498  0.23568199  0.60720612  1  0.042767  -5e-06  0.103637  0.121051  -3.6e-05  0.972272  0.0
H  H13  1  0.36998312  0.73630601  0.39243196  1  0.042192  8e-06  0.103471  0.120716  -3.8e-05  0.972396  0.0
H  H14  1  0.30806087  0.02299595  0.73714015  1  0.106025  0.00014  0.113962  0.123576  -4.6e-05  0.986201  0.0
H  H15  1  0.69295016  0.52327313  0.26299523  1  0.109145  0.00016  0.113965  0.123719  -3.8e-05  0.98547  0.0
H  H16  1  0.21960227  0.22484151  0.47539149  1  0.142029  3.5e-05  0.11138  0.117458  -6.5e-05  1.042333  0.0
H  H17  1  0.77826689  0.72534603  0.52449049  1  0.144615  0.000133  0.111315  0.117409  -1e-06  1.041969  0.0
H  H18  1  0.62913461  0.98433805  0.48325569  1  0.119083  6.5e-05  0.109735  0.116756  -5.5e-05  1.009036  0.0
H  H19  1  0.37134113  0.48481634  0.51727150  1  0.122983  6.5e-05  0.10977  0.116342  -4.6e-05  1.01015  0.0
H  H20  1  0.65781328  0.08747661  0.12134340  1  0.652002  8.3e-05  0.303853  0.391174  3.6e-05  0.95107  0.0
H  H21  1  0.34134989  0.58805564  0.87883218  1  0.646267  4.7e-05  0.303575  0.390923  -0.0  0.951504  0.0
H  H22  1  0.41421598  0.10318807  0.02504377  1  0.629835  0.000134  0.336727  0.419053  -1.8e-05  0.856677  0.0
H  H23  1  0.58497434  0.60311845  0.97513674  1  0.628161  2.2e-05  0.336201  0.418713  -2.6e-05  0.856843  0.0
C  C24  1  0.60223356  0.24904321  0.85132542  1  -0.087027  0.005456  -0.078034  -0.148921  0.001576  3.921965  0.003
C  C25  1  0.39731927  0.74899574  0.14846982  1  -0.078294  0.006758  -0.078075  -0.148927  0.001959  3.923113  0.004
C  C26  1  0.52302107  0.31008552  0.92894020  1  -0.036219  0.000521  -0.013771  -0.041782  -0.000189  3.995669  0.0
C  C27  1  0.47680131  0.80971463  0.07070948  1  -0.039631  0.001198  -0.014968  -0.042722  -0.000112  3.998598  0.0
C  C28  1  0.31360829  0.38173532  0.90246314  1  -0.007671  0.001975  -0.068813  -0.098649  0.000527  3.933379  0.001
C  C29  1  0.68676363  0.88098699  0.09709319  1  -0.01112  0.003864  -0.068445  -0.098477  0.001062  3.93453  0.002
C  C30  1  0.18502007  0.39203276  0.79848741  1  -0.017452  7.2e-05  -0.018252  -0.050105  -0.000442  4.021686  -0.001
C  C31  1  0.81522112  0.89133798  0.20106454  1  -0.013605  -0.000463  -0.018584  -0.053024  -0.000972  4.024356  -0.001
C  C32  1  0.25576541  0.32779220  0.72242005  1  0.017129  0.006893  -0.072533  -0.125821  0.002022  3.887582  0.004
C  C33  1  0.74412361  0.82740621  0.27723574  1  -0.047077  0.009917  -0.073234  -0.125248  0.002905  3.887852  0.006
C  C34  1  0.46654277  0.25608776  0.74817587  1  0.012109  -0.000946  -0.003537  0.132824  -0.001281  3.968581  -0.001
C  C35  1  0.53297378  0.75606894  0.25157318  1  0.065347  -0.001063  -0.003552  0.132313  -0.001532  3.970539  -0.001
C  C36  1  0.54675844  0.18930892  0.66471121  1  0.026925  0.000168  -0.154584  -0.254765  1e-06  3.96232  0.0
C  C37  1  0.45244321  0.68963308  0.33511664  1  0.021742  0.000201  -0.154887  -0.254916  7e-06  3.96223  0.0
C  C38  1  0.29947382  0.12941751  0.61092616  1  0.014011  -0.000825  -0.005328  0.117569  -0.001142  3.97063  -0.001
C  C39  1  0.69995813  0.62968117  0.38909691  1  -0.009304  -0.000773  -0.005356  0.117851  -0.001075  3.969388  -0.001
C  C40  1  0.20187827  0.04724836  0.66057991  1  -0.101058  0.006691  -0.066151  -0.122736  0.001939  3.875133  0.004
C  C41  1  0.79864221  0.54742503  0.33961991  1  -0.089533  0.006174  -0.066288  -0.123369  0.001784  3.873205  0.004
C  C42  1  0.96165776  0.99525688  0.61434573  1  -0.044834  -0.00078  -0.011039  -0.021306  -0.001147  3.965607  -0.001
C  C43  1  0.03911047  0.49540512  0.38613561  1  -0.045861  -0.000721  -0.010888  -0.021275  -0.001072  3.967069  -0.001
C  C44  1  0.15188776  0.15931989  0.51423375  1  -0.081904  0.004431  -0.071699  -0.135875  0.001249  3.895932  0.003
C  C45  1  0.84676755  0.65977778  0.48578581  1  -0.011783  0.003705  -0.071086  -0.135435  0.001039  3.896432  0.002
C  C46  1  0.91104351  0.10774272  0.46711721  1  -0.04824  0.000761  -0.018811  -0.052367  -0.000243  3.996681  0.0
C  C47  1  0.08805676  0.60823314  0.53298045  1  -0.109498  0.00091  -0.019654  -0.053522  -6.8e-05  3.999389  0.0
C  C48  1  0.81769714  0.02470320  0.51703218  1  0.020913  0.003744  -0.072012  -0.102779  0.001043  3.918856  0.002
C  C49  1  0.18242574  0.52513272  0.48334273  1  0.021568  0.003252  -0.071522  -0.101374  0.000902  3.921669  0.002
C  C50  1  0.74911622  0.14614412  0.36802126  1  1.53913  0.011855  0.231313  0.615888  0.003888  4.14114  0.009
C  C51  1  0.25030317  0.64680398  0.63173262  1  1.553517  0.010161  0.232287  0.618545  0.003222  4.1371  0.007
C  C52  1  0.84872134  0.91444674  0.67459691  1  1.536881  0.000524  0.198692  0.569719  0.000122  4.213952  0.0
C  C53  1  0.15444671  0.41416447  0.32692561  1  1.523528  0.000465  0.198844  0.5713  4.1e-05  4.21511  0.0
C  C54  1  0.98737759  0.47521767  0.76797026  1  1.495734  0.004508  0.251791  0.606743  0.001437  4.062747  0.003
C  C55  1  0.01251932  0.97440961  0.23171138  1  1.501618  0.002236  0.252631  0.609182  0.000696  4.061162  0.002
C  C56  1  0.65831895  0.29722795  0.04000469  1  1.570942  0.00431  0.237927  0.626169  0.001194  4.187087  0.003
C  C57  1  0.34116993  0.79692849  0.95981836  1  1.561424  0.011515  0.235119  0.622112  0.003615  4.188289  0.008
O  O58  1  0.52433966  0.32789463  0.10992186  1  -1.185597  -0.00011  -0.377963  -0.643559  -0.002323  2.305361  -0.003
O  O59  1  0.47467098  0.82778790  0.88968050  1  -1.185178  0.001109  -0.38314  -0.645557  -0.001613  2.307463  -0.001
O  O60  1  0.89671269  0.25415250  0.05837922  1  -1.195095  -0.002279  -0.377644  -0.630738  -0.004469  2.265266  -0.004
O  O61  1  0.10349899  0.75375079  0.94132711  1  -1.195003  3.2e-05  -0.376262  -0.632161  -0.004235  2.270842  -0.005
O  O62  1  0.79590832  0.45828816  0.68509887  1  -1.163739  0.001614  -0.308963  -0.465072  0.000349  2.323113  0.001
O  O63  1  0.20426345  0.95723189  0.31441688  1  -1.175178  0.000746  -0.308102  -0.465697  0.00013  2.322339  0.0
O  O64  1  0.01031626  0.55660771  0.81612296  1  -1.176246  0.002709  -0.28778  -0.558925  0.000142  2.310055  0.0
O  O65  1  0.98868202  0.05599303  0.18390022  1  -1.174164  0.001241  -0.287356  -0.557658  -0.000342  2.303528  -0.001
O  O66  1  0.93791551  0.90991408  0.77266248  1  -1.177609  -0.000204  -0.36845  -0.600452  -0.00223  2.168935  -0.002
O  O67  1  0.06778790  0.40942744  0.22849599  1  -1.168937  -0.002469  -0.372874  -0.602878  -0.003602  2.165258  -0.003
O  O68  1  0.66721755  0.85196846  0.62941636  1  -1.174544  -0.002242  -0.363073  -0.611039  -0.003346  2.141261  -0.003
O  O69  1  0.33471129  0.35181617  0.37298169  1  -1.171906  0.000265  -0.358926  -0.609822  -0.001933  2.144315  -0.002
O  O70  1  0.84984007  0.21124520  0.31378144  1  -1.197213  0.001564  -0.339429  -0.651615  -0.00169  2.297663  -0.002
O  O71  1  0.14782007  0.71051195  0.68712350  1  -1.203215  0.002153  -0.340584  -0.651669  -0.000934  2.300648  -0.002
O  O72  1  0.49528766  0.11524022  0.33845087  1  -1.209736  0.001756  -0.358225  -0.637808  -0.001992  2.35406  -0.003
O  O73  1  0.50662012  0.61755847  0.65963007  1  -1.218313  0.000978  -0.358847  -0.637714  -0.002045  2.352838  -0.003
O  O74  1  0.45881524  0.10844038  0.10026928  1  -1.268117  0.001146  -0.595087  -0.815098  -0.000844  2.074471  -0.001
O  O75  1  0.54136033  0.60758180  0.89982021  1  -1.260965  0.00082  -0.593386  -0.813141  -0.000555  2.067902  -0.001
