# generated using pymatgen
data_ZnH24C12S2(NO4)2
_symmetry_space_group_name_H-M   'P 1'
_cell_length_a   8.82874149
_cell_length_b   10.74550297
_cell_length_c   14.66817349
_cell_angle_alpha   91.92429728
_cell_angle_beta   92.10688940
_cell_angle_gamma   90.70345860
_symmetry_Int_Tables_number   1
_chemical_formula_structural   ZnH24C12S2(NO4)2
_chemical_formula_sum   'Zn3 H72 C36 S6 N6 O24'
_cell_volume   1389.70674998
_cell_formula_units_Z   3
loop_
 _symmetry_equiv_pos_site_id
 _symmetry_equiv_pos_as_xyz
  1  'x, y, z'
loop_
 _atom_site_type_symbol
 _atom_site_label
 _atom_site_symmetry_multiplicity
 _atom_site_fract_x
 _atom_site_fract_y
 _atom_site_fract_z
 _atom_site_occupancy
 _atom_site_hle17_bader_spin_density
 _atom_site_hle17_ddec_charge
 _atom_site_hle17_ddec_spin_density
 _atom_site_hle17_ddec_sum_bond_order
 _atom_site_hle17_magmom
 _atom_site_hse06_10hf_bader_spin_density
 _atom_site_hse06_10hf_ddec_charge
 _atom_site_hse06_10hf_ddec_spin_density
 _atom_site_hse06_10hf_ddec_sum_bond_order
 _atom_site_hse06_10hf_magmom
 _atom_site_hse06_bader_spin_density
 _atom_site_hse06_ddec_charge
 _atom_site_hse06_ddec_spin_density
 _atom_site_hse06_ddec_sum_bond_order
 _atom_site_hse06_magmom
 _atom_site_pbe_bader_spin_density
 _atom_site_pbe_cm5_charge
 _atom_site_pbe_ddec_charge
 _atom_site_pbe_ddec_spin_density
 _atom_site_pbe_ddec_sum_bond_order
 _atom_site_pbe_magmom
Zn  Zn0  1  0.19601777  0.39390576  0.30403251  1  0  1.199542  0  1.747167  0  0  1.030341  0  2.233837  0  0  1.07641  0  2.168615  0  0  0.72322  0.998132  0  2.278574  0
Zn  Zn1  1  0.80398150  0.60609467  0.69596580  1  0  1.199515  0  1.747106  0  0  1.030311  0  2.233766  0  0  1.076382  0  2.168551  0  0  0.723222  0.998102  0  2.278504  0
Zn  Zn2  1  0.99999670  0.00000029  0.00000001  1  0  1.160301  0  1.757424  0  0  1.008964  0  2.202188  0  0  1.053785  0  2.146714  0  0  0.691874  0.976783  0  2.24118  0
H  H3  1  0.89335275  0.28523106  0.33710838  1  0  0.053104  0  0.955745  0  0  0.061388  0  1.026133  0  0  0.063106  0  1.02098  0  0  0.126549  0.059748  0  1.030285  0
H  H4  1  0.10664650  0.71476751  0.66289125  1  0  0.053119  0  0.9558  0  0  0.061421  0  1.026159  0  0  0.06314  0  1.021006  0  0  0.126565  0.059781  0  1.030312  0
H  H5  1  0.59195051  0.32305585  0.46532083  1  0  0.112491  0  0.935103  0  0  0.131511  0  0.99894  0  0  0.132203  0  0.999311  0  0  0.108772  0.130718  0  0.998939  0
H  H6  1  0.40804992  0.67694458  0.53468024  1  0  0.112541  0  0.935093  0  0  0.131557  0  0.998929  0  0  0.132249  0  0.9993  0  0  0.108817  0.130763  0  0.998926  0
H  H7  1  0.65960834  0.24697260  0.36502083  1  0  0.100049  0  0.935484  0  0  0.122593  0  0.997236  0  0  0.122936  0  0.997483  0  0  0.110127  0.122184  0  0.997077  0
H  H8  1  0.34039207  0.75302690  0.63497953  1  0  0.100052  0  0.935478  0  0  0.122598  0  0.997232  0  0  0.122939  0  0.99748  0  0  0.110145  0.122198  0  0.997071  0
H  H9  1  0.54225259  0.38105536  0.35628856  1  0  0.121493  0  0.953644  0  0  0.138012  0  1.018092  0  0  0.139473  0  1.017206  0  0  0.106453  0.136716  0  1.018947  0
H  H10  1  0.45774783  0.61894507  0.64371251  1  0  0.121482  0  0.953616  0  0  0.138012  0  1.018056  0  0  0.139473  0  1.017168  0  0  0.106468  0.136714  0  1.018911  0
H  H11  1  0.68873810  0.53776010  0.50329444  1  0  0.108506  0  0.939811  0  0  0.129113  0  1.00351  0  0  0.129707  0  1.003278  0  0  0.108152  0.128442  0  1.004086  0
H  H12  1  0.31126347  0.46224126  0.49670667  1  0  0.108497  0  0.939815  0  0  0.129109  0  1.003514  0  0  0.129695  0  1.003277  0  0  0.108152  0.128437  0  1.004085  0
H  H13  1  0.67984368  0.59849565  0.39144994  1  0  0.110304  0  0.940816  0  0  0.128429  0  1.007866  0  0  0.128961  0  1.007893  0  0  0.107705  0.127742  0  1.008194  0
H  H14  1  0.32015901  0.40150478  0.60855049  1  0  0.110307  0  0.940778  0  0  0.128423  0  1.007836  0  0  0.128959  0  1.007857  0  0  0.107714  0.127737  0  1.008161  0
H  H15  1  0.85900068  0.58837129  0.45225824  1  0  0.116712  0  0.9475  0  0  0.132681  0  1.013739  0  0  0.134582  0  1.012164  0  0  0.110136  0.13111  0  1.015111  0
H  H16  1  0.14100314  0.41162914  0.54774221  1  0  0.116709  0  0.947568  0  0  0.132683  0  1.013788  0  0  0.134583  0  1.012213  0  0  0.110146  0.131117  0  1.015158  0
H  H17  1  0.91399299  0.32449296  0.99824671  1  0  0.095372  0  0.921894  0  0  0.107681  0  0.978742  0  0  0.10928  0  0.978864  0  0  0.111291  0.106559  0  0.978755  0
H  H18  1  0.08600854  0.67550747  0.00175097  1  0  0.095419  0  0.921873  0  0  0.107734  0  0.978707  0  0  0.109335  0  0.978828  0  0  0.111308  0.106608  0  0.978717  0
H  H19  1  0.00817058  0.53588480  0.13534120  1  0  0.083019  0  0.951296  0  0  0.09955  0  1.01544  0  0  0.100827  0  1.015496  0  0  0.094136  0.098526  0  1.015648  0
H  H20  1  0.99183097  0.46411657  0.86465650  1  0  0.083027  0  0.9513  0  0  0.099536  0  1.015469  0  0  0.100813  0  1.015524  0  0  0.094136  0.098513  0  1.015678  0
H  H21  1  0.82754495  0.46061078  0.12741534  1  0  0.08908  0  0.919423  0  0  0.108202  0  0.971204  0  0  0.10992  0  0.970917  0  0  0.096754  0.106884  0  0.971608  0
H  H22  1  0.17245660  0.53939058  0.87258236  1  0  0.089066  0  0.919405  0  0  0.108182  0  0.971186  0  0  0.109899  0  0.970901  0  0  0.096739  0.106864  0  0.971591  0
H  H23  1  0.17665928  0.33541338  0.94920769  1  0  0.080726  0  0.950585  0  0  0.094523  0  1.016492  0  0  0.096178  0  1.016079  0  0  0.095623  0.093383  0  1.016752  0
H  H24  1  0.82334340  0.66458798  0.05079004  1  0  0.080736  0  0.950594  0  0  0.094566  0  1.016465  0  0  0.096221  0  1.016051  0  0  0.095636  0.093425  0  1.016725  0
H  H25  1  0.21900258  0.46082552  0.02879134  1  0  0.084832  0  0.927805  0  0  0.102084  0  0.987242  0  0  0.103242  0  0.987625  0  0  0.095963  0.101321  0  0.986849  0
H  H26  1  0.78099785  0.53917678  0.97120704  1  0  0.084845  0  0.927883  0  0  0.102098  0  0.987319  0  0  0.103256  0  0.987701  0  0  0.095962  0.101332  0  0.986928  0
H  H27  1  0.17149715  0.02229975  0.31869550  1  0  0.082282  0  0.922155  0  0  0.096183  0  0.978371  0  0  0.097427  0  0.978809  0  0  0.105652  0.095352  0  0.977714  0
H  H28  1  0.82850096  0.97769788  0.68130477  1  0  0.08231  0  0.922145  0  0  0.096228  0  0.978344  0  0  0.097472  0  0.978787  0  0  0.105676  0.095399  0  0.977687  0
H  H29  1  0.12508440  0.91727542  0.46705378  1  0  0.087651  0  0.952502  0  0  0.102839  0  1.016283  0  0  0.104457  0  1.015865  0  0  0.09354  0.101755  0  1.016395  0
H  H30  1  0.87491485  0.08272221  0.53294719  1  0  0.087639  0  0.95256  0  0  0.102839  0  1.016339  0  0  0.104465  0  1.015902  0  0  0.093524  0.101751  0  1.016452  0
H  H31  1  0.32419667  0.90760459  0.48676998  1  0  0.079041  0  0.934248  0  0  0.095964  0  0.997876  0  0  0.097191  0  0.998067  0  0  0.093319  0.094964  0  0.997966  0
H  H32  1  0.67580374  0.09239491  0.51323174  1  0  0.079034  0  0.934329  0  0  0.095965  0  0.997935  0  0  0.097191  0  0.998128  0  0  0.093318  0.094964  0  0.998025  0
H  H33  1  0.21321829  0.70646960  0.42058850  1  0  0.083172  0  0.935125  0  0  0.099203  0  0.994796  0  0  0.100666  0  0.994769  0  0  0.094351  0.097954  0  0.995087  0
H  H34  1  0.78678209  0.29352803  0.57941249  1  0  0.083172  0  0.935133  0  0  0.099191  0  0.994795  0  0  0.100656  0  0.994769  0  0  0.094356  0.097945  0  0.995088  0
H  H35  1  0.14029717  0.78470193  0.32521589  1  0  0.070854  0  0.964176  0  0  0.087764  0  1.02943  0  0  0.088196  0  1.030995  0  0  0.093069  0.087001  0  1.02909  0
H  H36  1  0.85970323  0.21529664  0.67478513  1  0  0.070878  0  0.964157  0  0  0.087796  0  1.029385  0  0  0.088229  0  1.030952  0  0  0.093068  0.087032  0  1.029049  0
H  H37  1  0.47678964  0.75740397  0.37811595  1  0  0.107538  0  0.935864  0  0  0.118544  0  0.994385  0  0  0.121293  0  0.993484  0  0  0.110259  0.116694  0  0.995046  0
H  H38  1  0.52320961  0.24259366  0.62188434  1  0  0.10758  0  0.935838  0  0  0.118581  0  0.994389  0  0  0.121331  0  0.99349  0  0  0.110278  0.116731  0  0.99505  0
H  H39  1  0.32956301  0.88497266  0.21387392  1  0  0.071372  0  0.935845  0  0  0.088732  0  0.999038  0  0  0.089487  0  0.999458  0  0  0.09124  0.088324  0  0.998604  0
H  H40  1  0.67043963  0.11502498  0.78612644  1  0  0.071364  0  0.935856  0  0  0.088734  0  0.999031  0  0  0.089488  0  0.999451  0  0  0.091232  0.088325  0  0.998596  0
H  H41  1  0.52642339  0.86954748  0.23763395  1  0  0.072256  0  0.940842  0  0  0.088843  0  1.002196  0  0  0.090244  0  1.00227  0  0  0.092586  0.087875  0  1.002126  0
H  H42  1  0.47357928  0.13045109  0.76236779  1  0  0.072295  0  0.940824  0  0  0.088857  0  1.0022  0  0  0.090258  0  1.002274  0  0  0.092596  0.087888  0  1.002128  0
H  H43  1  0.50492955  0.00198418  0.38113132  1  0  0.081133  0  0.943923  0  0  0.096308  0  1.011132  0  0  0.097942  0  1.010442  0  0  0.094048  0.094936  0  1.011775  0
H  H44  1  0.49506860  0.99801625  0.61886901  1  0  0.081143  0  0.943855  0  0  0.096311  0  1.011079  0  0  0.097946  0  1.010387  0  0  0.094022  0.094943  0  1.011718  0
H  H45  1  0.43695823  0.08236519  0.28421788  1  0  0.077751  0  0.953409  0  0  0.095074  0  1.015107  0  0  0.09591  0  1.015875  0  0  0.093053  0.09428  0  1.014833  0
H  H46  1  0.56304101  0.91763244  0.71578241  1  0  0.077758  0  0.953413  0  0  0.095098  0  1.01509  0  0  0.095936  0  1.015854  0  0  0.093061  0.094302  0  1.014823  0
H  H47  1  0.94534722  0.04331086  0.19406204  1  0  0.046417  0  0.986346  0  0  0.051576  0  1.063202  0  0  0.053814  0  1.057522  0  0  0.1199  0.049801  0  1.067479  0
H  H48  1  0.05465431  0.95668771  0.80593832  1  0  0.04642  0  0.986317  0  0  0.051588  0  1.063164  0  0  0.053827  0  1.05748  0  0  0.119879  0.049809  0  1.067441  0
H  H49  1  0.90221554  0.70957165  0.31817114  1  0  0.108766  0  0.939808  0  0  0.130702  0  1.000138  0  0  0.131259  0  1.000248  0  0  0.110672  0.13018  0  1.000124  0
H  H50  1  0.09778374  0.29042785  0.68183124  1  0  0.108786  0  0.93985  0  0  0.130703  0  1.000193  0  0  0.131265  0  1.000297  0  0  0.110658  0.130172  0  1.000178  0
H  H51  1  0.96214692  0.70659251  0.20320704  1  0  0.117758  0  0.959633  0  0  0.134832  0  1.026172  0  0  0.136117  0  1.025422  0  0  0.11036  0.132968  0  1.028087  0
H  H52  1  0.03785009  0.29340698  0.79679393  1  0  0.11775  0  0.959666  0  0  0.134852  0  1.026167  0  0  0.136137  0  1.025418  0  0  0.11037  0.132997  0  1.028084  0
H  H53  1  0.76363017  0.71283358  0.22690235  1  0  0.119993  0  0.944363  0  0  0.141361  0  1.003864  0  0  0.142185  0  1.003495  0  0  0.106363  0.139921  0  1.005097  0
H  H54  1  0.23636684  0.28716591  0.77309862  1  0  0.120039  0  0.944362  0  0  0.14141  0  1.003851  0  0  0.142234  0  1.003483  0  0  0.106403  0.139976  0  1.005084  0
H  H55  1  0.72029778  0.92336307  0.34492253  1  0  0.109818  0  0.963348  0  0  0.129277  0  1.025737  0  0  0.130036  0  1.026096  0  0  0.105304  0.128336  0  1.025748  0
H  H56  1  0.27970150  0.07663736  0.65507715  1  0  0.109803  0  0.963364  0  0  0.129271  0  1.025738  0  0  0.130029  0  1.026099  0  0  0.105293  0.128315  0  1.025761  0
H  H57  1  0.85293846  0.04673460  0.32519300  1  0  0.103161  0  0.93844  0  0  0.123606  0  1.003071  0  0  0.124251  0  1.002696  0  0  0.107586  0.123107  0  1.003231  0
H  H58  1  0.14706195  0.95326490  0.67480736  1  0  0.103159  0  0.938386  0  0  0.123604  0  1.003025  0  0  0.124248  0  1.002651  0  0  0.107588  0.123115  0  1.003186  0
H  H59  1  0.90495238  0.91906400  0.39451947  1  0  0.11229  0  0.96148  0  0  0.12997  0  1.027437  0  0  0.131023  0  1.027326  0  0  0.106156  0.129291  0  1.026979  0
H  H60  1  0.09504576  0.08093550  0.60548084  1  0  0.112307  0  0.961464  0  0  0.129984  0  1.027438  0  0  0.131036  0  1.027327  0  0  0.10615  0.129302  0  1.026981  0
H  H61  1  0.25730446  0.81556420  0.06543520  1  0  0.054521  0  0.945272  0  0  0.060949  0  1.02046  0  0  0.062966  0  1.015299  0  0  0.126512  0.059295  0  1.024363  0
H  H62  1  0.74269486  0.18443809  0.93456589  1  0  0.05457  0  0.94525  0  0  0.060959  0  1.020477  0  0  0.062976  0  1.015314  0  0  0.126498  0.059306  0  1.024379  0
H  H63  1  0.51516749  0.63669790  0.95773018  1  0  0.109613  0  0.916052  0  0  0.132532  0  0.971204  0  0  0.133343  0  0.971118  0  0  0.110378  0.131884  0  0.971253  0
H  H64  1  0.48482838  0.36330160  0.04227009  1  0  0.1096  0  0.91606  0  0  0.132519  0  0.971207  0  0  0.133333  0  0.971121  0  0  0.110373  0.13187  0  0.971255  0
H  H65  1  0.43780316  0.67835718  0.06585859  1  0  0.115232  0  0.973244  0  0  0.129247  0  1.045436  0  0  0.130766  0  1.044713  0  0  0.107565  0.128065  0  1.045945  0
H  H66  1  0.56219273  0.32164418  0.93414104  1  0  0.115233  0  0.97327  0  0  0.129253  0  1.04545  0  0  0.130772  0  1.044728  0  0  0.107573  0.12807  0  1.045958  0
H  H67  1  0.61097009  0.74855910  0.03224750  1  0  0.107069  0  0.935005  0  0  0.127253  0  0.995292  0  0  0.128317  0  0.994782  0  0  0.106423  0.126396  0  0.995857  0
H  H68  1  0.38902692  0.25144039  0.96775279  1  0  0.107061  0  0.935048  0  0  0.127238  0  0.995343  0  0  0.128302  0  0.994833  0  0  0.106415  0.126379  0  0.995907  0
H  H69  1  0.59426409  0.86685875  0.88591668  1  0  0.118852  0  0.933969  0  0  0.138226  0  0.995754  0  0  0.139084  0  0.995735  0  0  0.109343  0.137216  0  0.996269  0
H  H70  1  0.40573636  0.13314354  0.11408511  1  0  0.118841  0  0.933985  0  0  0.13825  0  0.995736  0  0  0.139109  0  0.995715  0  0  0.10933  0.137238  0  0.996255  0
H  H71  1  0.41914694  0.94867338  0.86742955  1  0  0.109538  0  0.941461  0  0  0.128057  0  1.004663  0  0  0.129419  0  1.003951  0  0  0.109048  0.126892  0  1.005323  0
H  H72  1  0.58085238  0.05132891  0.13257222  1  0  0.109586  0  0.941434  0  0  0.128097  0  1.004635  0  0  0.129459  0  1.003924  0  0  0.109075  0.126931  0  1.005296  0
H  H73  1  0.43852698  0.79248738  0.82354920  1  0  0.102617  0  0.917765  0  0  0.126588  0  0.97483  0  0  0.126768  0  0.974957  0  0  0.108496  0.12633  0  0.974841  0
H  H74  1  0.56147347  0.20751491  0.17645123  1  0  0.102601  0  0.91771  0  0  0.126586  0  0.974764  0  0  0.126766  0  0.974892  0  0  0.108506  0.126329  0  0.974774  0
C  C75  1  0.89373305  0.38145450  0.36421069  1  0  0.408334  0  3.766034  0  0  0.331384  0  4.044229  0  0  0.35992  0  4.045145  0  0  0.183942  0.312  0  4.043549  0
C  C76  1  0.10626736  0.61854500  0.63579035  1  0  0.408295  0  3.76621  0  0  0.331341  0  4.044392  0  0  0.359875  0  4.045312  0  0  0.183925  0.31196  0  4.043708  0
C  C77  1  0.63265402  0.33743155  0.39662812  1  0  -0.175062  0  3.634544  0  0  -0.278606  0  3.885266  0  0  -0.275575  0  3.895869  0  0  -0.1305  -0.280092  0  3.877897  0
C  C78  1  0.36734754  0.66256981  0.60337163  1  0  -0.175036  0  3.634456  0  0  -0.27859  0  3.885179  0  0  -0.275558  0  3.895778  0  0  -0.130557  -0.280079  0  3.877809  0
C  C79  1  0.74808351  0.54365198  0.43916386  1  0  -0.174368  0  3.618187  0  0  -0.277722  0  3.867491  0  0  -0.27375  0  3.876176  0  0  -0.134423  -0.280101  0  3.861868  0
C  C80  1  0.25191574  0.45634658  0.56083440  1  0  -0.174307  0  3.618189  0  0  -0.277652  0  3.867467  0  0  -0.273676  0  3.876155  0  0  -0.13442  -0.280034  0  3.861854  0
C  C81  1  0.99785076  0.37804272  0.04151553  1  0  -0.141379  0  3.608956  0  0  -0.141392  0  3.858623  0  0  -0.146423  0  3.873664  0  0  -0.07789  -0.138059  0  3.848401  0
C  C82  1  0.00215078  0.62195865  0.95848081  1  0  -0.141399  0  3.608931  0  0  -0.141431  0  3.858631  0  0  -0.146462  0  3.873667  0  0  -0.077872  -0.138078  0  3.848371  0
C  C83  1  0.92390149  0.49027497  0.08775723  1  0  -0.121814  0  3.663421  0  0  -0.167139  0  3.920209  0  0  -0.168057  0  3.933765  0  0  -0.164765  -0.166205  0  3.91053  0
C  C84  1  0.07610005  0.50972546  0.91224113  1  0  -0.12174  0  3.663459  0  0  -0.167034  0  3.920223  0  0  -0.167951  0  3.933782  0  0  -0.164691  -0.166106  0  3.910542  0
C  C85  1  0.12954491  0.41753969  0.98361528  1  0  -0.110961  0  3.651303  0  0  -0.155879  0  3.908523  0  0  -0.156472  0  3.921774  0  0  -0.162718  -0.155194  0  3.899046  0
C  C86  1  0.87045550  0.58246075  0.01638238  1  0  -0.110937  0  3.651251  0  0  -0.155883  0  3.908494  0  0  -0.156471  0  3.921736  0  0  -0.162675  -0.155197  0  3.899009  0
C  C87  1  0.26280276  0.01707177  0.37169188  1  0  -0.142248  0  3.6265  0  0  -0.14281  0  3.876416  0  0  -0.147519  0  3.890917  0  0  -0.083094  -0.139461  0  3.865754  0
C  C88  1  0.73719876  0.98292680  0.62830780  1  0  -0.142301  0  3.626572  0  0  -0.142884  0  3.876491  0  0  -0.147597  0  3.890998  0  0  -0.083144  -0.139532  0  3.865825  0
C  C89  1  0.23344999  0.90803497  0.43325681  1  0  -0.121121  0  3.652805  0  0  -0.165235  0  3.906848  0  0  -0.166058  0  3.920047  0  0  -0.165131  -0.164162  0  3.896852  0
C  C90  1  0.76654812  0.09196267  0.56674277  1  0  -0.121061  0  3.653013  0  0  -0.165236  0  3.907079  0  0  -0.166055  0  3.920284  0  0  -0.165108  -0.164158  0  3.89708  0
C  C91  1  0.23362762  0.78528923  0.37678542  1  0  -0.108517  0  3.655374  0  0  -0.151913  0  3.911412  0  0  -0.15227  0  3.924552  0  0  -0.165491  -0.151497  0  3.902351  0
C  C92  1  0.76637391  0.21470934  0.62321494  1  0  -0.108561  0  3.65547  0  0  -0.151895  0  3.911441  0  0  -0.152261  0  3.924592  0  0  -0.165493  -0.15147  0  3.902353  0
C  C93  1  0.38270533  0.76943755  0.32796171  1  0  -0.161328  0  3.612647  0  0  -0.161766  0  3.860499  0  0  -0.167549  0  3.875128  0  0  -0.085905  -0.157711  0  3.84995  0
C  C94  1  0.61729623  0.23056288  0.67203938  1  0  -0.161404  0  3.612769  0  0  -0.161915  0  3.860688  0  0  -0.167704  0  3.875329  0  0  -0.085961  -0.157858  0  3.850136  0
C  C95  1  0.41653742  0.88114564  0.26952759  1  0  -0.111206  0  3.674838  0  0  -0.155691  0  3.936794  0  0  -0.156306  0  3.950617  0  0  -0.163119  -0.154855  0  3.926386  0
C  C96  1  0.58346530  0.11885572  0.73047491  1  0  -0.111099  0  3.674695  0  0  -0.155537  0  3.936604  0  0  -0.156149  0  3.950429  0  0  -0.163022  -0.154707  0  3.926213  0
C  C97  1  0.41537211  0.00285596  0.32698756  1  0  -0.121627  0  3.668082  0  0  -0.167603  0  3.925986  0  0  -0.168118  0  3.939198  0  0  -0.166861  -0.167098  0  3.916642  0
C  C98  1  0.58462831  0.99714354  0.67301416  1  0  -0.1218  0  3.668053  0  0  -0.167783  0  3.925965  0  0  -0.168297  0  3.939175  0  0  -0.166914  -0.167283  0  3.916621  0
C  C99  1  0.94655511  0.94129651  0.18452000  1  0  0.383127  0  3.795512  0  0  0.305958  0  4.083798  0  0  0.335055  0  4.082807  0  0  0.167256  0.286154  0  4.084428  0
C  C100  1  0.05344190  0.05870392  0.81547826  1  0  0.383072  0  3.795668  0  0  0.305911  0  4.083935  0  0  0.335008  0  4.082947  0  0  0.167268  0.286109  0  4.084566  0
C  C101  1  0.87852687  0.74388554  0.24969056  1  0  -0.184394  0  3.608528  0  0  -0.284929  0  3.84963  0  0  -0.281257  0  3.85866  0  0  -0.136951  -0.286322  0  3.844423  0
C  C102  1  0.12147237  0.25611209  0.75030836  1  0  -0.184549  0  3.608792  0  0  -0.285073  0  3.849828  0  0  -0.281404  0  3.858856  0  0  -0.137001  -0.286468  0  3.844626  0
C  C103  1  0.83916731  0.94634905  0.33370542  1  0  -0.185391  0  3.646187  0  0  -0.289865  0  3.896371  0  0  -0.286928  0  3.90745  0  0  -0.135977  -0.291631  0  3.888406  0
C  C104  1  0.16083087  0.05365230  0.66629630  1  0  -0.185395  0  3.646107  0  0  -0.289887  0  3.896298  0  0  -0.286949  0  3.907378  0  0  -0.135964  -0.291658  0  3.888348  0
C  C105  1  0.29025729  0.85831308  0.00160699  1  0  0.38595  0  3.792291  0  0  0.309634  0  4.079158  0  0  0.337754  0  4.07988  0  0  0.176981  0.290699  0  4.078014  0
C  C106  1  0.70974087  0.14168828  0.99839268  1  0  0.385806  0  3.792518  0  0  0.309532  0  4.079343  0  0  0.337652  0  4.080066  0  0  0.176959  0.290597  0  4.078199  0
C  C107  1  0.49894267  0.71304160  0.00806156  1  0  -0.18199  0  3.645616  0  0  -0.283173  0  3.893823  0  0  -0.280564  0  3.90475  0  0  -0.131043  -0.284661  0  3.886398  0
C  C108  1  0.50105549  0.28695976  0.99193743  1  0  -0.181925  0  3.6456  0  0  -0.283092  0  3.893785  0  0  -0.280487  0  3.904713  0  0  -0.131009  -0.284573  0  3.886355  0
C  C109  1  0.47018861  0.85834441  0.88033859  1  0  -0.168946  0  3.62979  0  0  -0.269212  0  3.876178  0  0  -0.265518  0  3.886041  0  0  -0.131101  -0.271232  0  3.869711  0
C  C110  1  0.52981180  0.14165509  0.11966245  1  0  -0.168956  0  3.629724  0  0  -0.269251  0  3.876112  0  0  -0.26556  0  3.885975  0  0  -0.131091  -0.271271  0  3.869648  0
S  S111  1  0.05984985  0.26975760  0.12583643  1  0  1.314461  0  5.501831  0  0  1.219757  0  6.022653  0  0  1.265286  0  6.002549  0  0  0.518474  1.188247  0  6.035844  0
S  S112  1  0.94015171  0.73024376  0.87416195  1  0  1.314358  0  5.502048  0  0  1.219674  0  6.022861  0  0  1.2652  0  6.002757  0  0  0.518403  1.188162  0  6.036043  0
S  S113  1  0.25090386  0.16416551  0.43368688  1  0  1.306278  0  5.565018  0  0  1.215855  0  6.082093  0  0  1.26159  0  6.061624  0  0  0.511296  1.184105  0  6.094892  0
S  S114  1  0.74909425  0.83583212  0.56631338  1  0  1.306194  0  5.565279  0  0  1.215825  0  6.082308  0  0  1.261561  0  6.061843  0  0  0.511273  1.184073  0  6.095111  0
S  S115  1  0.38009470  0.62856057  0.25737924  1  0  1.296514  0  5.557136  0  0  1.206836  0  6.080932  0  0  1.252658  0  6.059256  0  0  0.503454  1.175182  0  6.094427  0
S  S116  1  0.61990571  0.37143986  0.74262046  1  0  1.296626  0  5.556995  0  0  1.20699  0  6.08077  0  0  1.252819  0  6.05909  0  0  0.503494  1.175335  0  6.094267  0
N  N117  1  0.76672139  0.41808142  0.40094743  1  0  -0.060661  0  3.503578  0  0  0.044966  0  3.73226  0  0  0.025631  0  3.757231  0  0  -0.269266  0.057909  0  3.71496  0
N  N118  1  0.23327905  0.58191994  0.59905366  1  0  -0.060806  0  3.503658  0  0  0.04482  0  3.732338  0  0  0.025483  0  3.757305  0  0  -0.269313  0.057759  0  3.715042  0
N  N119  1  0.89093573  0.87942134  0.25303002  1  0  -0.075441  0  3.516873  0  0  0.028149  0  3.752612  0  0  0.008398  0  3.777441  0  0  -0.280244  0.041583  0  3.735142  0
N  N120  1  0.10906356  0.12057909  0.74697102  1  0  -0.07528  0  3.51701  0  0  0.028294  0  3.752747  0  0  0.008539  0  3.777581  0  0  -0.280205  0.041735  0  3.735268  0
N  N121  1  0.41451176  0.81226638  0.96525847  1  0  -0.06623  0  3.500921  0  0  0.037591  0  3.73358  0  0  0.017931  0  3.759079  0  0  -0.274658  0.050572  0  3.71607  0
N  N122  1  0.58548639  0.18773404  0.03474255  1  0  -0.066255  0  3.500971  0  0  0.037539  0  3.733649  0  0  0.017877  0  3.759149  0  0  -0.274739  0.050515  0  3.716142  0
O  O123  1  0.00948261  0.45242228  0.35870031  1  0  -0.566898  0  2.109375  0  0  -0.494033  0  2.393065  0  0  -0.5213  0  2.379376  0  0  -0.308586  -0.475476  0  2.40196  0
O  O124  1  0.99051893  0.54757722  0.64130007  1  0  -0.566821  0  2.109332  0  0  -0.49397  0  2.393031  0  0  -0.521237  0  2.379345  0  0  -0.308568  -0.475415  0  2.401925  0
O  O125  1  0.19265247  0.33346630  0.17570986  1  0  -0.711654  0  2.055929  0  0  -0.639268  0  2.353578  0  0  -0.662685  0  2.331453  0  0  -0.349003  -0.622627  0  2.368152  0
O  O126  1  0.80735022  0.66653506  0.82428786  1  0  -0.711629  0  2.055965  0  0  -0.639227  0  2.353589  0  0  -0.662647  0  2.331472  0  0  -0.34898  -0.622588  0  2.368161  0
O  O127  1  0.93405188  0.24730220  0.18548989  1  0  -0.665224  0  1.944418  0  0  -0.620118  0  2.194506  0  0  -0.640789  0  2.181294  0  0  -0.339412  -0.605507  0  2.203102  0
O  O128  1  0.06594856  0.75270009  0.81450918  1  0  -0.665146  0  1.944526  0  0  -0.620065  0  2.194629  0  0  -0.640736  0  2.18142  0  0  -0.339395  -0.605456  0  2.203223  0
O  O129  1  0.11464284  0.15746257  0.07743149  1  0  -0.683682  0  2.03671  0  0  -0.624408  0  2.313534  0  0  -0.646532  0  2.297658  0  0  -0.333432  -0.60891  0  2.324727  0
O  O130  1  0.88535644  0.84253786  0.92256750  1  0  -0.683685  0  2.036733  0  0  -0.624434  0  2.313578  0  0  -0.646556  0  2.297701  0  0  -0.333422  -0.608932  0  2.324761  0
O  O131  1  0.29899166  0.25757941  0.36539032  1  0  -0.74424  0  2.095611  0  0  -0.667165  0  2.39884  0  0  -0.691615  0  2.377239  0  0  -0.361225  -0.650253  0  2.413208  0
O  O132  1  0.70100535  0.74242101  0.63460863  1  0  -0.744228  0  2.095735  0  0  -0.667146  0  2.398929  0  0  -0.691601  0  2.377329  0  0  -0.361222  -0.650235  0  2.4133  0
O  O133  1  0.36135791  0.16339517  0.51022992  1  0  -0.656894  0  1.934744  0  0  -0.604097  0  2.18033  0  0  -0.625189  0  2.169568  0  0  -0.338032  -0.588943  0  2.187075  0
O  O134  1  0.63864250  0.83660526  0.48976978  1  0  -0.656765  0  1.934781  0  0  -0.604033  0  2.180397  0  0  -0.625129  0  2.169644  0  0  -0.338  -0.58888  0  2.187147  0
O  O135  1  0.09269875  0.18036887  0.45749487  1  0  -0.674729  0  1.916053  0  0  -0.629975  0  2.163464  0  0  -0.650632  0  2.151652  0  0  -0.349014  -0.615308  0  2.170937  0
O  O136  1  0.90729937  0.81962970  0.54250474  1  0  -0.674739  0  1.916077  0  0  -0.629996  0  2.163477  0  0  -0.650653  0  2.151666  0  0  -0.349023  -0.615329  0  2.170952  0
O  O137  1  0.25829420  0.63797128  0.18748980  1  0  -0.667879  0  1.910901  0  0  -0.622672  0  2.162989  0  0  -0.642899  0  2.14957  0  0  -0.347124  -0.608409  0  2.172567  0
O  O138  1  0.74170734  0.36202822  0.81250990  1  0  -0.667907  0  1.910863  0  0  -0.6227  0  2.162944  0  0  -0.642928  0  2.149523  0  0  -0.347119  -0.608435  0  2.172523  0
O  O139  1  0.53192379  0.61218066  0.22302445  1  0  -0.657003  0  1.900637  0  0  -0.613684  0  2.136458  0  0  -0.633609  0  2.123988  0  0  -0.350305  -0.599472  0  2.144942  0
O  O140  1  0.46807663  0.38781977  0.77697457  1  0  -0.657049  0  1.900511  0  0  -0.613769  0  2.136348  0  0  -0.633694  0  2.123877  0  0  -0.350337  -0.599558  0  2.144837  0
O  O141  1  0.34510319  0.52889678  0.32489695  1  0  -0.736036  0  2.05106  0  0  -0.65982  0  2.349184  0  0  -0.683689  0  2.32679  0  0  -0.362164  -0.642918  0  2.363789  0
O  O142  1  0.65489827  0.47109900  0.67509993  1  0  -0.736039  0  2.051014  0  0  -0.659825  0  2.349125  0  0  -0.683694  0  2.326728  0  0  -0.362168  -0.642927  0  2.363742  0
O  O143  1  0.99664437  0.88956635  0.11322865  1  0  -0.547671  0  2.106251  0  0  -0.485978  0  2.377751  0  0  -0.512186  0  2.368463  0  0  -0.306072  -0.467586  0  2.3839  0
O  O144  1  0.00335377  0.11043408  0.88677100  1  0  -0.547691  0  2.106344  0  0  -0.486  0  2.377827  0  0  -0.512196  0  2.368511  0  0  -0.306087  -0.467609  0  2.38398  0
O  O145  1  0.21492682  0.94442285  0.96632308  1  0  -0.554228  0  2.156232  0  0  -0.490272  0  2.427044  0  0  -0.516687  0  2.418068  0  0  -0.304003  -0.471504  0  2.432485  0
O  O146  1  0.78507023  0.05557944  0.03367796  1  0  -0.554149  0  2.156287  0  0  -0.490175  0  2.427035  0  0  -0.51659  0  2.418059  0  0  -0.303947  -0.47141  0  2.432479  0
