# generated using pymatgen
data_NiMo8H42C48(N8O13)2
_symmetry_space_group_name_H-M   'P 1'
_cell_length_a   12.02348092
_cell_length_b   12.47114902
_cell_length_c   12.20555393
_cell_angle_alpha   71.08238261
_cell_angle_beta   65.79362892
_cell_angle_gamma   88.07006035
_symmetry_Int_Tables_number   1
_chemical_formula_structural   NiMo8H42C48(N8O13)2
_chemical_formula_sum   'Ni1 Mo8 H42 C48 N16 O26'
_cell_volume   1568.61452022
_cell_formula_units_Z   1
loop_
 _symmetry_equiv_pos_site_id
 _symmetry_equiv_pos_as_xyz
  1  'x, y, z'
loop_
 _atom_site_type_symbol
 _atom_site_label
 _atom_site_symmetry_multiplicity
 _atom_site_fract_x
 _atom_site_fract_y
 _atom_site_fract_z
 _atom_site_occupancy
 _atom_site_pbe_bader_charge
 _atom_site_pbe_bader_spin_density
 _atom_site_pbe_cm5_charge
 _atom_site_pbe_ddec_charge
 _atom_site_pbe_ddec_spin_density
 _atom_site_pbe_ddec_sum_bond_order
 _atom_site_pbe_magmom
Ni  Ni0  1  0.50000080  0.00000227  0.49999938  1  0.960912  0  0.673098  0.524686  0  2.877107  0
Mo  Mo1  1  0.06784949  0.60903176  0.02161729  1  2.609756  0  1.492818  2.171001  0  4.633319  0
Mo  Mo2  1  0.93214777  0.39096632  0.97837924  1  2.60994  0  1.492792  2.170993  0  4.633391  0
Mo  Mo3  1  0.31797452  0.66390217  0.73728722  1  2.595971  0  1.528765  2.06755  0  4.700451  0
Mo  Mo4  1  0.68202197  0.33609686  0.26271339  1  2.595607  0  1.528808  2.067662  0  4.700452  0
Mo  Mo5  1  0.20784378  0.37634620  0.01553298  1  2.595176  0  1.493339  2.130476  0  4.672318  0
Mo  Mo6  1  0.79215348  0.62365192  0.98446599  1  2.595217  0  1.493333  2.130495  0  4.672233  0
Mo  Mo7  1  0.04975771  0.72184759  0.72845790  1  2.606722  0  1.488446  2.130881  0  4.636201  0
Mo  Mo8  1  0.95023774  0.27815061  0.27154341  1  2.606594  0  1.488488  2.130962  0  4.636053  0
H  H9  1  0.66302254  0.15275626  0.54680515  1  0.167058  0  0.142338  0.109919  0  1.020318  0
H  H10  1  0.33697800  0.84724532  0.45320032  1  0.167085  0  0.142342  0.109875  0  1.020392  0
H  H11  1  0.59786251  0.79525983  0.65788370  1  0.149269  0  0.128085  0.125765  0  1.010706  0
H  H12  1  0.40213284  0.20474354  0.34211751  1  0.149236  0  0.128087  0.125794  0  1.010657  0
H  H13  1  0.77293903  0.84676628  0.73387099  1  0.152924  0  0.131497  0.144132  0  1.011255  0
H  H14  1  0.22705720  0.15323109  0.26613358  1  0.152843  0  0.131517  0.144095  0  1.01131  0
H  H15  1  0.69626555  0.21067754  0.70590530  1  0.073399  0  0.111895  0.118557  0  0.988196  0
H  H16  1  0.30374033  0.78932904  0.29409711  1  0.073223  0  0.111906  0.11858  0  0.988163  0
H  H17  1  0.85620164  0.35419125  0.67083842  1  0.098469  0  0.117252  0.130713  0  0.98271  0
H  H18  1  0.14380747  0.64581254  0.32915546  1  0.098603  0  0.117268  0.130707  0  0.982657  0
H  H19  1  0.12836697  0.12336874  0.57998949  1  0.064081  0  0.107281  0.108804  0  1.028968  0
H  H20  1  0.87163561  0.87662840  0.42001013  1  0.063998  0  0.107313  0.108836  0  1.028916  0
H  H21  1  0.97035556  0.98239316  0.61186696  1  0.110609  0  0.111603  0.127793  0  1.02739  0
H  H22  1  0.02964353  0.01760501  0.38813863  1  0.110561  0  0.111579  0.127785  0  1.027421  0
H  H23  1  0.00045141  0.42505535  0.71527609  1  0.251205  0  0.147988  0.125193  0  1.04888  0
H  H24  1  0.99955628  0.57495101  0.28471502  1  0.251281  0  0.147936  0.125185  0  1.048891  0
H  H25  1  0.20471818  0.54906822  0.61443920  1  0.578252  0  0.309826  0.316037  0  0.984321  0
H  H26  1  0.79529002  0.45093560  0.38555585  1  0.578084  0  0.309842  0.316114  0  0.984211  0
H  H27  1  0.24771575  0.29669297  0.43447951  1  0.150056  0  0.133798  0.136346  0  1.010072  0
H  H28  1  0.75229386  0.70330831  0.56552077  1  0.150013  0  0.133799  0.136414  0  1.009942  0
H  H29  1  0.76211153  0.06945272  0.28560730  1  0.223882  0  0.14179  0.134431  0  1.029867  0
H  H30  1  0.23789054  0.93054696  0.71438838  1  0.223853  0  0.141825  0.134439  0  1.029926  0
H  H31  1  0.51882592  0.76924978  0.43208957  1  0.111459  0  0.123119  0.118851  0  1.02103  0
H  H32  1  0.48116620  0.23075626  0.56791202  1  0.111379  0  0.123104  0.118833  0  1.020983  0
H  H33  1  0.72172843  0.76111043  0.21828425  1  0.192966  0  0.128941  0.156965  0  1.010029  0
H  H34  1  0.27826325  0.23888705  0.78172046  1  0.193339  0  0.128982  0.15705  0  1.00997  0
H  H35  1  0.96142704  0.06947519  0.18023994  1  0.133329  0  0.108607  0.125081  0  1.031097  0
H  H36  1  0.03856955  0.93051869  0.81976240  1  0.133049  0  0.10862  0.125051  0  1.031159  0
H  H37  1  0.84715275  0.86100314  0.01337966  1  0.112548  0  0.111602  0.129622  0  1.018242  0
H  H38  1  0.15284125  0.13899166  0.98662177  1  0.112632  0  0.11162  0.129666  0  1.018288  0
H  H39  1  0.35047289  0.87901750  0.83510071  1  0.151639  0  0.134806  0.09574  0  1.041909  0
H  H40  1  0.64952115  0.12098341  0.16490679  1  0.151649  0  0.134825  0.095752  0  1.041935  0
H  H41  1  0.45246932  0.54803698  0.94252639  1  0.110943  0  0.127111  0.125278  0  1.004447  0
H  H42  1  0.54753016  0.45196354  0.05746348  1  0.110697  0  0.127126  0.125255  0  1.004474  0
H  H43  1  0.52867454  0.67742137  0.05344238  1  0.173862  0  0.122917  0.132786  0  1.052824  0
H  H44  1  0.47132672  0.32257312  0.94655049  1  0.173634  0  0.122882  0.132728  0  1.052889  0
H  H45  1  0.29835958  0.97040491  0.99583938  1  0.08425  0  0.108304  0.116433  0  1.01361  0
H  H46  1  0.70163651  0.02959159  0.00416472  1  0.08428  0  0.108308  0.116432  0  1.013662  0
H  H47  1  0.64563035  0.85363747  0.97678883  1  0.127168  0  0.109647  0.125844  0  1.035949  0
H  H48  1  0.35436678  0.14635988  0.02321619  1  0.127189  0  0.109661  0.125844  0  1.035941  0
H  H49  1  0.37160406  0.47844956  0.43789386  1  0.190061  0  0.134574  0.149181  0  0.986693  0
H  H50  1  0.62840488  0.52154742  0.56210572  1  0.190232  0  0.134568  0.149217  0  0.986602  0
C  C51  1  0.66242886  0.06256139  0.59267863  1  1.003872  0  0.154701  0.117146  0  3.853434  0
C  C52  1  0.33757117  0.93744280  0.40732778  1  1.003754  0  0.154727  0.117208  0  3.853278  0
C  C53  1  0.63818959  0.87697244  0.64575456  1  0.344555  0  0.002996  -0.043358  0  3.953308  0
C  C54  1  0.36180758  0.12303093  0.35424920  1  0.345027  0  0.002935  -0.043548  0  3.953333  0
C  C55  1  0.72358236  0.90152835  0.68462044  1  0.364455  0  0.012972  -0.082605  0  3.855198  0
C  C56  1  0.27641286  0.09847424  0.31538600  1  0.364342  0  0.012971  -0.082481  0  3.855191  0
C  C57  1  0.82442924  0.09037951  0.65512747  1  0.322086  0  0.099855  0.168767  0  4.004938  0
C  C58  1  0.17556921  0.90962039  0.34487697  1  0.322073  0  0.099815  0.168661  0  4.005226  0
C  C59  1  0.79146100  0.19273743  0.67693824  1  -0.003622  0  -0.080907  -0.147703  0  3.977288  0
C  C60  1  0.20854435  0.80726568  0.32306231  1  -0.003546  0  -0.080923  -0.14773  0  3.977504  0
C  C61  1  0.88103911  0.27298773  0.65775060  1  0.078249  0  -0.075927  -0.121388  0  3.945994  0
C  C62  1  0.11896832  0.72701700  0.34224609  1  0.078095  0  -0.075959  -0.121311  0  3.945944  0
C  C63  1  0.00285790  0.24916609  0.61828962  1  0.269328  0  0.099705  0.174266  0  3.980951  0
C  C64  1  0.99714926  0.75083695  0.38170940  1  0.269479  0  0.099734  0.17421  0  3.981182  0
C  C65  1  0.03397613  0.14333449  0.60673906  1  0.004588  0  -0.078118  -0.134753  0  3.960321  0
C  C66  1  0.96602713  0.85666694  0.39326045  1  0.004685  0  -0.078129  -0.134714  0  3.960374  0
C  C67  1  0.94445513  0.06338027  0.62499852  1  0.042133  0  -0.077704  -0.12768  0  3.930779  0
C  C68  1  0.05554527  0.93662040  0.37500322  1  0.042111  0  -0.07769  -0.127654  0  3.930966  0
C  C69  1  0.08419162  0.41685803  0.63878906  1  0.968539  0  0.180786  0.13358  0  3.775923  0
C  C70  1  0.91581631  0.58314407  0.36120506  1  0.968797  0  0.180824  0.133671  0  3.775815  0
C  C71  1  0.21741007  0.34985119  0.49331912  1  0.352862  0  0.023735  -0.072857  0  3.877368  0
C  C72  1  0.78260068  0.65014575  0.50668055  1  0.353119  0  0.023726  -0.072794  0  3.877289  0
C  C73  1  0.72274136  0.98732964  0.29711341  1  0.934181  0  0.142568  0.07842  0  3.838157  0
C  C74  1  0.27725618  0.01267021  0.70288649  1  0.933913  0  0.142592  0.078516  0  3.838259  0
C  C75  1  0.59826010  0.83160833  0.36779943  1  0.39218  0  -3.2e-05  -0.052242  0  3.979767  0
C  C76  1  0.40173407  0.16839340  0.63220528  1  0.392316  0  -8e-05  -0.052308  0  3.979719  0
C  C77  1  0.69970657  0.82537277  0.26416654  1  0.307178  0  0.008278  -0.090917  0  3.865297  0
C  C78  1  0.30028707  0.17462551  0.73583712  1  0.306851  0  0.00826  -0.091014  0  3.865366  0
C  C79  1  0.89120133  0.96124245  0.10938711  1  0.238684  0  0.090369  0.148106  0  4.013572  0
C  C80  1  0.10879412  0.03875573  0.89061257  1  0.239068  0  0.090356  0.148096  0  4.013455  0
C  C81  1  0.97749284  0.03891527  0.10168366  1  -0.011615  0  -0.081636  -0.131625  0  3.947881  0
C  C82  1  0.02250234  0.96108117  0.89831509  1  -0.011715  0  -0.081601  -0.13154  0  3.947906  0
C  C83  1  0.91337966  0.92202895  0.00811328  1  0.043691  0  -0.083901  -0.133143  0  3.943999  0
C  C84  1  0.08661488  0.07796926  0.99188758  1  0.043155  0  -0.083899  -0.1332  0  3.943957  0
C  C85  1  0.38466776  0.80509872  0.88156401  1  0.97307  0  0.149469  0.129147  0  3.889596  0
C  C86  1  0.61532692  0.19490035  0.11843650  1  0.972909  0  0.149444  0.129152  0  3.889626  0
C  C87  1  0.44212370  0.63555617  0.93778224  1  0.467303  0  0.014554  0.019974  0  3.934105  0
C  C88  1  0.55787669  0.36444436  0.06221054  1  0.467163  0  0.014582  0.020098  0  3.93406  0
C  C89  1  0.47842052  0.69736704  0.99427876  1  0.287517  0  0.007938  -0.082328  0  3.849231  0
C  C90  1  0.52158532  0.30263333  0.00571188  1  0.287768  0  0.007929  -0.082375  0  3.84929  0
C  C91  1  0.46962191  0.90230956  0.98195077  1  0.328323  0  0.095761  0.162816  0  4.013341  0
C  C92  1  0.53038208  0.09768499  0.01805082  1  0.328359  0  0.09581  0.162951  0  4.013221  0
C  C93  1  0.38760265  0.98437786  0.99535148  1  -0.012636  0  -0.087608  -0.151898  0  3.98357  0
C  C94  1  0.61239603  0.01561769  0.00465027  1  -0.012626  0  -0.087681  -0.152035  0  3.983799  0
C  C95  1  0.58195044  0.91769948  0.98702515  1  -0.033022  0  -0.08662  -0.146313  0  3.965308  0
C  C96  1  0.41805124  0.08229773  0.01297809  1  -0.032886  0  -0.08665  -0.146316  0  3.965184  0
C  C97  1  0.27662979  0.44131611  0.49378600  1  0.358255  0  0.024656  -0.025239  0  3.89829  0
C  C98  1  0.72338241  0.55868423  0.50621274  1  0.357935  0  0.024582  -0.025432  0  3.898357  0
N  N99  1  0.19173253  0.48092148  0.58449046  1  -1.277391  0  -0.347618  -0.170259  0  3.624288  0
N  N100  1  0.80827462  0.51908150  0.41550367  1  -1.277326  0  -0.347545  -0.17024  0  3.6244  0
N  N101  1  0.60142006  0.97834826  0.58839647  1  -1.176384  0  -0.357615  -0.210562  0  3.669132  0
N  N102  1  0.39858010  0.02165671  0.41160471  1  -1.17636  0  -0.357617  -0.21045  0  3.669088  0
N  N103  1  0.73685578  0.01939159  0.65160795  1  -1.292342  0  -0.22202  0.010141  0  3.78592  0
N  N104  1  0.26314166  0.98061350  0.34839674  1  -1.292624  0  -0.221965  0.010153  0  3.785759  0
N  N105  1  0.09738126  0.33515936  0.58542063  1  -1.251304  0  -0.206878  0.021835  0  3.778526  0
N  N106  1  0.90262966  0.66484444  0.41457743  1  -1.251539  0  -0.206864  0.021685  0  3.778607  0
N  N107  1  0.61337553  0.93320396  0.38596310  1  -1.181462  0  -0.357285  -0.20668  0  3.677341  0
N  N108  1  0.38662332  0.06679845  0.61403703  1  -1.181216  0  -0.357226  -0.206622  0  3.677345  0
N  N109  1  0.77759613  0.92438848  0.22038673  1  -1.278839  0  -0.222208  0.013128  0  3.797123  0
N  N110  1  0.22240218  0.07561048  0.77961235  1  -1.278893  0  -0.222287  0.013051  0  3.797386  0
N  N111  1  0.38499951  0.70386197  0.86727180  1  -1.243339  0  -0.37854  -0.35019  0  3.623327  0
N  N112  1  0.61499557  0.29613964  0.13272603  1  -1.243159  0  -0.378541  -0.350305  0  3.623419  0
N  N113  1  0.44077896  0.80472772  0.95836028  1  -1.249369  0  -0.223199  0.005845  0  3.796048  0
N  N114  1  0.55922312  0.19527198  0.04163703  1  -1.249095  0  -0.223176  0.005902  0  3.796167  0
O  O115  1  0.13890264  0.64134933  0.10562970  1  -0.848233  0  -0.528352  -0.674814  0  1.667994  0
O  O116  1  0.86109956  0.35865118  0.89436400  1  -0.848361  0  -0.528327  -0.674802  0  1.668095  0
O  O117  1  0.91902094  0.64795951  0.08611718  1  -0.932044  0  -0.553457  -0.774779  0  1.837761  0
O  O118  1  0.08097696  0.35203689  0.91388295  1  -0.932027  0  -0.553455  -0.774762  0  1.837756  0
O  O119  1  0.13946328  0.72250078  0.85777814  1  -1.098595  0  -0.605085  -0.952187  0  2.040208  0
O  O120  1  0.86053411  0.27749818  0.14221967  1  -1.098606  0  -0.605034  -0.952152  0  2.040091  0
O  O121  1  0.37491273  0.80586805  0.64571684  1  -0.880062  0  -0.520724  -0.731832  0  1.889837  0
O  O122  1  0.62508131  0.19413274  0.35428251  1  -0.880094  0  -0.520741  -0.731897  0  1.889888  0
O  O123  1  0.43554602  0.58824773  0.67564185  1  -0.835712  0  -0.527983  -0.66373  0  1.597167  0
O  O124  1  0.56445061  0.41175212  0.32435678  1  -0.835438  0  -0.528037  -0.663808  0  1.597188  0
O  O125  1  0.22315137  0.53294803  0.90790373  1  -1.113458  0  -0.622875  -0.97736  0  2.25232  0
O  O126  1  0.77684667  0.46704921  0.09209523  1  -1.113493  0  -0.622821  -0.977295  0  2.252182  0
O  O127  1  0.31220982  0.31495340  0.91243255  1  -0.887477  0  -0.538094  -0.710448  0  1.701811  0
O  O128  1  0.68778718  0.68504303  0.08756793  1  -0.887428  0  -0.538095  -0.710427  0  1.701722  0
O  O129  1  0.28024902  0.39707962  0.10357692  1  -0.812366  0  -0.520958  -0.672018  0  1.669048  0
O  O130  1  0.71974928  0.60291931  0.89642053  1  -0.812341  0  -0.52099  -0.67208  0  1.669071  0
O  O131  1  0.09477936  0.24454257  0.14826676  1  -1.025468  0  -0.593681  -0.86384  0  1.999798  0
O  O132  1  0.90521791  0.75545559  0.85173465  1  -1.025581  0  -0.593644  -0.863817  0  1.999866  0
O  O133  1  0.02772919  0.44392774  0.10061049  1  -1.171116  0  -0.623152  -1.055895  0  2.199044  0
O  O134  1  0.97226885  0.55606953  0.89939011  1  -1.171109  0  -0.623138  -1.055908  0  2.19911  0
O  O135  1  0.99045767  0.67121900  0.64598350  1  -0.82368  0  -0.527136  -0.673869  0  1.65988  0
O  O136  1  0.00953505  0.32877931  0.35402051  1  -0.823656  0  -0.52714  -0.673875  0  1.659793  0
O  O137  1  0.20451666  0.64366208  0.67178999  1  -1.073949  0  -0.590038  -0.877785  0  2.069326  0
O  O138  1  0.79547984  0.35633692  0.32820899  1  -1.073932  0  -0.590076  -0.877837  0  2.069325  0
O  O139  1  0.11174059  0.86122932  0.63424261  1  -0.862869  0  -0.521959  -0.688635  0  1.735191  0
O  O140  1  0.88825409  0.13876976  0.36575871  1  -0.862752  0  -0.521966  -0.688693  0  1.735218  0
