# generated using pymatgen
data_NaH14C10ClO8
_symmetry_space_group_name_H-M   'P 1'
_cell_length_a   9.26392797
_cell_length_b   9.66796336
_cell_length_c   16.73800000
_cell_angle_alpha   90.00000000
_cell_angle_beta   90.00000000
_cell_angle_gamma   115.57982129
_symmetry_Int_Tables_number   1
_chemical_formula_structural   NaH14C10ClO8
_chemical_formula_sum   'Na4 H56 C40 Cl4 O32'
_cell_volume   1352.17490931
_cell_formula_units_Z   4
loop_
 _symmetry_equiv_pos_site_id
 _symmetry_equiv_pos_as_xyz
  1  'x, y, z'
loop_
 _atom_site_type_symbol
 _atom_site_label
 _atom_site_symmetry_multiplicity
 _atom_site_fract_x
 _atom_site_fract_y
 _atom_site_fract_z
 _atom_site_occupancy
 _atom_site_hle17_bader_spin_density
 _atom_site_hle17_ddec_charge
 _atom_site_hle17_ddec_spin_density
 _atom_site_hle17_ddec_sum_bond_order
 _atom_site_hle17_magmom
 _atom_site_hse06_10hf_bader_spin_density
 _atom_site_hse06_10hf_ddec_charge
 _atom_site_hse06_10hf_ddec_spin_density
 _atom_site_hse06_10hf_ddec_sum_bond_order
 _atom_site_hse06_10hf_magmom
 _atom_site_hse06_bader_spin_density
 _atom_site_hse06_ddec_charge
 _atom_site_hse06_ddec_spin_density
 _atom_site_hse06_ddec_sum_bond_order
 _atom_site_hse06_magmom
 _atom_site_pbe_bader_charge
 _atom_site_pbe_bader_spin_density
 _atom_site_pbe_cm5_charge
 _atom_site_pbe_ddec_charge
 _atom_site_pbe_ddec_spin_density
 _atom_site_pbe_ddec_sum_bond_order
 _atom_site_pbe_magmom
Na  Na0  1  0.63556817  0.25566277  0.00751762  1  0  0.889311  0  0.403918  0  0  0.829046  0  0.570979  0  0  0.841016  0  0.550129  0  0.887631  0  0.710669  0.820187  0  0.586482  0
Na  Na1  1  0.36442989  0.24433984  0.50751882  1  0  0.889294  0  0.403935  0  0  0.829033  0  0.570974  0  0  0.841011  0  0.550128  0  0.887642  0  0.710657  0.820181  0  0.58648  0
Na  Na2  1  0.36442468  0.74433327  0.99248178  1  0  0.889298  0  0.403947  0  0  0.829046  0  0.57099  0  0  0.841015  0  0.550149  0  0.887647  0  0.710636  0.820187  0  0.58649  0
Na  Na3  1  0.63557038  0.75566309  0.49248118  1  0  0.889305  0  0.403929  0  0  0.829033  0  0.570977  0  0  0.84101  0  0.550136  0  0.887635  0  0.710648  0.820179  0  0.586483  0
H  H4  1  0.93365895  0.55246607  0.92656470  1  0  0.041495  0  0.917525  0  0  0.047544  0  0.986093  0  0  0.047814  0  0.985013  0  0.072532  0  0.120511  0.046783  0  0.987997  0
H  H5  1  0.06632813  0.94752455  0.42656411  1  0  0.041571  0  0.917439  0  0  0.047574  0  0.986079  0  0  0.047846  0  0.985002  0  0.072074  0  0.120496  0.046815  0  0.987979  0
H  H6  1  0.06632278  0.44751965  0.07343350  1  0  0.04157  0  0.917411  0  0  0.047595  0  0.986089  0  0  0.047863  0  0.985011  0  0.07199  0  0.120543  0.046834  0  0.987994  0
H  H7  1  0.93367908  0.05248181  0.57343350  1  0  0.041536  0  0.917432  0  0  0.047577  0  0.986102  0  0  0.047847  0  0.98502  0  0.071992  0  0.120538  0.046818  0  0.988004  0
H  H8  1  0.15256117  0.89123670  0.04792508  1  0  0.071008  0  0.93025  0  0  0.086809  0  0.992474  0  0  0.086784  0  0.991827  0  0.093585  0  0.111461  0.086998  0  0.992616  0
H  H9  1  0.84742470  0.60876080  0.54792329  1  0  0.070923  0  0.930356  0  0  0.086714  0  0.992612  0  0  0.086689  0  0.991966  0  0.093511  0  0.11141  0.086902  0  0.992756  0
H  H10  1  0.84744093  0.10875590  0.95207731  1  0  0.070985  0  0.930252  0  0  0.086788  0  0.992441  0  0  0.086763  0  0.991794  0  0.093515  0  0.111453  0.086977  0  0.992585  0
H  H11  1  0.15256755  0.39123868  0.45207731  1  0  0.071015  0  0.930366  0  0  0.086808  0  0.992605  0  0  0.086783  0  0.991959  0  0.093599  0  0.111466  0.086999  0  0.992751  0
H  H12  1  0.97417080  0.75762746  0.00339527  1  0  0.05663  0  0.933245  0  0  0.071575  0  0.998174  0  0  0.072126  0  0.996479  0  0.028109  0  0.104576  0.07125  0  0.999324  0
H  H13  1  0.02581882  0.74237120  0.50339527  1  0  0.056582  0  0.933351  0  0  0.071547  0  0.998252  0  0  0.072093  0  0.996559  0  0.028157  0  0.104613  0.071224  0  0.999399  0
H  H14  1  0.02582952  0.24237317  0.99660413  1  0  0.056566  0  0.933348  0  0  0.071494  0  0.998257  0  0  0.072045  0  0.996561  0  0.028233  0  0.104559  0.071171  0  0.99941  0
H  H15  1  0.97417878  0.25763058  0.49660533  1  0  0.056592  0  0.933399  0  0  0.071584  0  0.998267  0  0  0.072132  0  0.996568  0  0.028091  0  0.104595  0.071262  0  0.999421  0
H  H16  1  0.96451014  0.89458978  0.14714363  1  0  0.087943  0  0.955779  0  0  0.10191  0  1.012982  0  0  0.104019  0  1.012745  0  0.034915  0  0.097449  0.100424  0  1.013268  0
H  H17  1  0.03547431  0.60539741  0.64714183  1  0  0.087902  0  0.955626  0  0  0.101891  0  1.012797  0  0  0.104011  0  1.012546  0  0.035024  0  0.097462  0.100379  0  1.013117  0
H  H18  1  0.03548703  0.10540627  0.85285518  1  0  0.088027  0  0.955776  0  0  0.101971  0  1.012995  0  0  0.10408  0  1.012757  0  0.034812  0  0.097479  0.100466  0  1.013301  0
H  H19  1  0.96452333  0.39460208  0.35285876  1  0  0.087895  0  0.955631  0  0  0.101868  0  1.012815  0  0  0.103977  0  1.012579  0  0.035204  0  0.097453  0.100362  0  1.013125  0
H  H20  1  0.82343924  0.67700917  0.23327877  1  0  0.101301  0  0.966155  0  0  0.110217  0  1.032082  0  0  0.112514  0  1.03171  0  0.082782  0  0.099837  0.108613  0  1.032309  0
H  H21  1  0.17655700  0.82298260  0.73327757  1  0  0.101331  0  0.965981  0  0  0.110241  0  1.031923  0  0  0.112537  0  1.031547  0  0.082899  0  0.099851  0.108638  0  1.03215  0
H  H22  1  0.17655573  0.32298916  0.76672243  1  0  0.10139  0  0.966248  0  0  0.110322  0  1.032133  0  0  0.112617  0  1.031759  0  0.082781  0  0.099873  0.108717  0  1.032361  0
H  H23  1  0.82344759  0.17702033  0.26672064  1  0  0.101339  0  0.965975  0  0  0.110252  0  1.031907  0  0  0.112548  0  1.031533  0  0.082959  0  0.099856  0.108647  0  1.032136  0
H  H24  1  0.73354821  0.42094963  0.18072948  1  0  0.090115  0  0.92975  0  0  0.101771  0  0.993437  0  0  0.103119  0  0.991393  0  0.119525  0  0.114821  0.100699  0  0.995131  0
H  H25  1  0.26644962  0.07903807  0.68072589  1  0  0.090071  0  0.929798  0  0  0.101766  0  0.993435  0  0  0.103114  0  0.991392  0  0.119602  0  0.114799  0.100694  0  0.995133  0
H  H26  1  0.26644681  0.57904641  0.81927291  1  0  0.089945  0  0.929713  0  0  0.101642  0  0.993383  0  0  0.102988  0  0.991338  0  0.119611  0  0.114757  0.10057  0  0.995079  0
H  H27  1  0.73355075  0.92096027  0.31927112  1  0  0.090003  0  0.929759  0  0  0.101707  0  0.9934  0  0  0.103054  0  0.991355  0  0.119578  0  0.114788  0.100636  0  0.995099  0
H  H28  1  0.94019194  0.46884791  0.19088302  1  0  0.059611  0  0.909453  0  0  0.077454  0  0.968885  0  0  0.077432  0  0.968511  0  0.063267  0  0.106397  0.077468  0  0.969075  0
H  H29  1  0.05981114  0.03114667  0.69088123  1  0  0.059621  0  0.909505  0  0  0.077446  0  0.968952  0  0  0.077423  0  0.968584  0  0.063328  0  0.106398  0.077465  0  0.969146  0
H  H30  1  0.05980260  0.53114469  0.80911339  1  0  0.059511  0  0.909457  0  0  0.077347  0  0.96892  0  0  0.077321  0  0.968549  0  0.06306  0  0.106333  0.077364  0  0.96911  0
H  H31  1  0.94019509  0.96885511  0.30911459  1  0  0.059524  0  0.909446  0  0  0.077344  0  0.968926  0  0  0.077318  0  0.968557  0  0.063082  0  0.106353  0.077361  0  0.969118  0
H  H32  1  0.62891619  0.57934113  0.06522942  1  0  0.046523  0  0.921086  0  0  0.052436  0  0.988907  0  0  0.052575  0  0.988238  0  0.099594  0  0.121189  0.051751  0  0.990803  0
H  H33  1  0.37108146  0.92066097  0.56523002  1  0  0.04654  0  0.921043  0  0  0.052467  0  0.98887  0  0  0.052607  0  0.988199  0  0.099583  0  0.121214  0.051784  0  0.990762  0
H  H34  1  0.37107817  0.42066065  0.93476998  1  0  0.046485  0  0.921093  0  0  0.052401  0  0.988911  0  0  0.052538  0  0.988242  0  0.099523  0  0.121201  0.051717  0  0.990804  0
H  H35  1  0.62892628  0.07934654  0.43477357  1  0  0.046548  0  0.92103  0  0  0.052431  0  0.98889  0  0  0.052573  0  0.988203  0  0.099494  0  0.121199  0.051737  0  0.990798  0
H  H36  1  0.68137219  0.86402680  0.90609332  1  0  0.070849  0  0.933896  0  0  0.086905  0  0.995273  0  0  0.087006  0  0.994248  0  0.104089  0  0.110884  0.086702  0  0.996261  0
H  H37  1  0.31863508  0.63597988  0.40609691  1  0  0.070819  0  0.933938  0  0  0.086925  0  0.995264  0  0  0.087029  0  0.994236  0  0.103844  0  0.110872  0.086721  0  0.996249  0
H  H38  1  0.31864282  0.13596810  0.09390608  1  0  0.070938  0  0.933867  0  0  0.087032  0  0.995199  0  0  0.087144  0  0.994162  0  0.104085  0  0.11093  0.086832  0  0.996187  0
H  H39  1  0.68135745  0.36403222  0.59390967  1  0  0.070931  0  0.933878  0  0  0.087029  0  0.995188  0  0  0.087139  0  0.994145  0  0.104074  0  0.110903  0.086825  0  0.996173  0
H  H40  1  0.75627779  0.75692909  0.96411459  1  0  0.060361  0  0.939304  0  0  0.07628  0  1.003334  0  0  0.076574  0  1.001974  0  0.060456  0  0.103911  0.075994  0  1.004505  0
H  H41  1  0.24372784  0.74307874  0.46411817  1  0  0.060364  0  0.939245  0  0  0.076269  0  1.00332  0  0  0.076542  0  1.00199  0  0.060466  0  0.103899  0.075977  0  1.004487  0
H  H42  1  0.24373454  0.24306466  0.03588302  1  0  0.060441  0  0.939251  0  0  0.07635  0  1.003295  0  0  0.076634  0  1.00196  0  0.060574  0  0.103908  0.076066  0  1.004468  0
H  H43  1  0.75626624  0.25693680  0.53588601  1  0  0.060484  0  0.93924  0  0  0.076377  0  1.003277  0  0  0.076647  0  1.001951  0  0.060638  0  0.103932  0.07609  0  1.004448  0
H  H44  1  0.84665496  0.82723701  0.80564106  1  0  0.084315  0  0.961525  0  0  0.097716  0  1.021185  0  0  0.099374  0  1.022011  0  0.080487  0  0.097049  0.096385  0  1.020983  0
H  H45  1  0.15334277  0.67276049  0.30564345  1  0  0.084363  0  0.961448  0  0  0.097789  0  1.021082  0  0  0.099447  0  1.021908  0  0.080556  0  0.097072  0.096457  0  1.02088  0
H  H46  1  0.15333873  0.17274412  0.19435416  1  0  0.084257  0  0.961321  0  0  0.09771  0  1.020953  0  0  0.099367  0  1.021778  0  0.080314  0  0.097051  0.096378  0  1.020752  0
H  H47  1  0.84666266  0.32725390  0.69435596  1  0  0.084265  0  0.961361  0  0  0.097681  0  1.021042  0  0  0.099334  0  1.021871  0  0.080401  0  0.097042  0.096349  0  1.02084  0
H  H48  1  0.77756010  0.58121605  0.74619907  1  0  0.089139  0  0.961574  0  0  0.100438  0  1.024945  0  0  0.101954  0  1.025841  0  0.089495  0  0.098409  0.099144  0  1.024863  0
H  H49  1  0.22243970  0.91878604  0.24619907  1  0  0.089086  0  0.961476  0  0  0.100419  0  1.02482  0  0  0.101945  0  1.025708  0  0.089564  0  0.098418  0.099123  0  1.024742  0
H  H50  1  0.22242064  0.41876509  0.25380093  1  0  0.08919  0  0.961455  0  0  0.100546  0  1.024767  0  0  0.10206  0  1.025666  0  0.089494  0  0.098431  0.09925  0  1.024688  0
H  H51  1  0.77758240  0.08123179  0.75380153  1  0  0.089135  0  0.961506  0  0  0.100477  0  1.02484  0  0  0.102002  0  1.025729  0  0.089445  0  0.098399  0.099181  0  1.024759  0
H  H52  1  0.64990749  0.34877940  0.82644043  1  0  0.074654  0  0.922496  0  0  0.08535  0  0.988816  0  0  0.086064  0  0.987704  0  0.096343  0  0.110633  0.084669  0  0.98997  0
H  H53  1  0.35010408  0.15122206  0.32643924  1  0  0.074717  0  0.92241  0  0  0.085361  0  0.988798  0  0  0.086075  0  0.987685  0  0.096453  0  0.110634  0.08468  0  0.989953  0
H  H54  1  0.35007752  0.65120403  0.17356016  1  0  0.074707  0  0.922457  0  0  0.085302  0  0.98892  0  0  0.086018  0  0.98781  0  0.096765  0  0.110621  0.084621  0  0.990076  0
H  H55  1  0.64991374  0.84879348  0.67356195  1  0  0.074754  0  0.922431  0  0  0.08534  0  0.988861  0  0  0.086057  0  0.987749  0  0.096736  0  0.11061  0.084661  0  0.990017  0
H  H56  1  0.48774362  0.39792648  0.81461465  1  0  0.078103  0  0.909552  0  0  0.092724  0  0.970171  0  0  0.093237  0  0.969347  0  0.087774  0  0.110906  0.092361  0  0.970786  0
H  H57  1  0.51226321  0.10206925  0.31461764  1  0  0.078076  0  0.909479  0  0  0.0927  0  0.970144  0  0  0.093214  0  0.969318  0  0.087676  0  0.110912  0.092338  0  0.970758  0
H  H58  1  0.51224514  0.60205809  0.18538475  1  0  0.078222  0  0.909478  0  0  0.092834  0  0.970127  0  0  0.093351  0  0.969301  0  0.08781  0  0.110935  0.092468  0  0.970749  0
H  H59  1  0.48775189  0.89794744  0.68538655  1  0  0.078178  0  0.909496  0  0  0.092779  0  0.97012  0  0  0.093295  0  0.969293  0  0.087721  0  0.110913  0.092414  0  0.970744  0
C  C60  1  0.98998582  0.48452159  0.95471801  1  0  0.27266  0  3.687619  0  0  0.221064  0  3.966962  0  0  0.234112  0  3.967659  0  0.977603  0  0.079595  0.212019  0  3.966968  0
C  C61  1  0.01000750  0.01547529  0.45471801  1  0  0.27261  0  3.687805  0  0  0.22094  0  3.967265  0  0  0.233971  0  3.967998  0  0.978052  0  0.079628  0.211894  0  3.967266  0
C  C62  1  0.00999694  0.51546643  0.04528020  1  0  0.272924  0  3.687387  0  0  0.221051  0  3.967006  0  0  0.2341  0  3.967702  0  0.94686  0  0.079556  0.211998  0  3.967015  0
C  C63  1  0.98999385  0.98452764  0.54527960  1  0  0.272919  0  3.687514  0  0  0.221026  0  3.967219  0  0  0.234086  0  3.967911  0  0.946914  0  0.079527  0.211972  0  3.967225  0
C  C64  1  0.04968378  0.77990866  0.05723085  1  0  0.104625  0  3.644309  0  0  0.046065  0  3.908982  0  0  0.055326  0  3.91283  0  0.401488  0  -0.067433  0.039924  0  3.9059  0
C  C65  1  0.95030429  0.72008655  0.55722786  1  0  0.104828  0  3.644032  0  0  0.04626  0  3.908704  0  0  0.055531  0  3.912556  0  0.401383  0  -0.067359  0.040122  0  3.905613  0
C  C66  1  0.95032043  0.22008624  0.94277214  1  0  0.104659  0  3.644329  0  0  0.046234  0  3.908872  0  0  0.055497  0  3.912726  0  0.401275  0  -0.067348  0.040091  0  3.905787  0
C  C67  1  0.04969059  0.27991637  0.44277512  1  0  0.104555  0  3.644374  0  0  0.045941  0  3.909034  0  0  0.055213  0  3.912877  0  0.401465  0  -0.067476  0.039788  0  3.905966  0
C  C68  1  0.96091794  0.78336494  0.13168658  1  0  -0.116627  0  3.729115  0  0  -0.134438  0  3.994013  0  0  -0.137885  0  4.014665  0  0.005248  0  -0.10671  -0.132159  0  3.980337  0
C  C69  1  0.03908116  0.71664518  0.63169375  1  0  -0.116515  0  3.729894  0  0  -0.134283  0  3.994702  0  0  -0.137733  0  4.015343  0  0.005131  0  -0.106723  -0.131984  0  3.981041  0
C  C70  1  0.03907988  0.21662537  0.86831760  1  0  -0.116589  0  3.728787  0  0  -0.134404  0  3.993664  0  0  -0.137845  0  4.014305  0  0.005266  0  -0.106769  -0.132107  0  3.979997  0
C  C71  1  0.96091911  0.28335775  0.36831043  1  0  -0.116339  0  3.729608  0  0  -0.134089  0  3.994403  0  0  -0.137526  0  4.015045  0  0.004939  0  -0.106636  -0.131788  0  3.980737  0
C  C72  1  0.88034815  0.66250862  0.17883021  1  0  -0.11087  0  3.711414  0  0  -0.132581  0  3.979703  0  0  -0.134878  0  3.999981  0  -0.113312  0  -0.103566  -0.131009  0  3.966003  0
C  C73  1  0.11963029  0.83745563  0.67882363  1  0  -0.111022  0  3.712156  0  0  -0.132773  0  3.98049  0  0  -0.135066  0  4.000766  0  -0.113405  0  -0.103665  -0.131195  0  3.966787  0
C  C74  1  0.11965165  0.33749087  0.82116621  1  0  -0.111227  0  3.711204  0  0  -0.132966  0  3.979567  0  0  -0.135252  0  3.999819  0  -0.112976  0  -0.103697  -0.131391  0  3.965863  0
C  C75  1  0.88036857  0.16253697  0.32117577  1  0  -0.111234  0  3.711981  0  0  -0.132971  0  3.980336  0  0  -0.13527  0  4.000609  0  -0.113361  0  -0.103748  -0.131392  0  3.966626  0
C  C76  1  0.85313516  0.50117229  0.16060820  1  0  0.100209  0  3.627062  0  0  0.042194  0  3.89144  0  0  0.050544  0  3.895602  0  0.404938  0  -0.065207  0.036645  0  3.888465  0
C  C77  1  0.14686150  0.99882522  0.66060700  1  0  0.100213  0  3.626461  0  0  0.04218  0  3.890817  0  0  0.050528  0  3.894983  0  0.404954  0  -0.065203  0.036614  0  3.88787  0
C  C78  1  0.14685666  0.49882146  0.83939180  1  0  0.100608  0  3.62667  0  0  0.042529  0  3.89111  0  0  0.050888  0  3.895255  0  0.404859  0  -0.065054  0.036981  0  3.888143  0
C  C79  1  0.85314037  0.00117885  0.33939180  1  0  0.100622  0  3.62631  0  0  0.042546  0  3.890766  0  0  0.050906  0  3.89491  0  0.405156  0  -0.065009  0.03699  0  3.88781  0
C  C80  1  0.50624353  0.50189359  0.04614649  1  0  0.273665  0  3.666371  0  0  0.223652  0  3.942496  0  0  0.236615  0  3.943575  0  0.908693  0  0.079895  0.214546  0  3.942575  0
C  C81  1  0.49375468  0.99810736  0.54614829  1  0  0.273695  0  3.66617  0  0  0.2236  0  3.942428  0  0  0.236564  0  3.943508  0  0.96719  0  0.079894  0.214495  0  3.942503  0
C  C82  1  0.49375313  0.49810131  0.95385231  1  0  0.273814  0  3.666368  0  0  0.2238  0  3.942478  0  0  0.23677  0  3.943567  0  0.967691  0  0.079865  0.214688  0  3.94256  0
C  C83  1  0.50624977  0.00190245  0.45385530  1  0  0.273677  0  3.666498  0  0  0.223669  0  3.942545  0  0  0.236644  0  3.943631  0  0.909159  0  0.079788  0.214563  0  3.942624  0
C  C84  1  0.68613350  0.75274119  0.91025391  1  0  0.102083  0  3.646866  0  0  0.043546  0  3.910753  0  0  0.052989  0  3.914371  0  0.381406  0  -0.069487  0.037234  0  3.90801  0
C  C85  1  0.31387325  0.74726435  0.41025391  1  0  0.102169  0  3.646751  0  0  0.043522  0  3.910748  0  0  0.052966  0  3.914386  0  0.38158  0  -0.069476  0.037224  0  3.907994  0
C  C86  1  0.31387292  0.24725142  0.08974549  1  0  0.101899  0  3.646805  0  0  0.04327  0  3.910735  0  0  0.052698  0  3.91438  0  0.38132  0  -0.06954  0.036952  0  3.908  0
C  C87  1  0.68612575  0.25274775  0.58974967  1  0  0.101677  0  3.647  0  0  0.043107  0  3.910834  0  0  0.052555  0  3.914462  0  0.381172  0  -0.069595  0.036808  0  3.908074  0
C  C88  1  0.75952134  0.72479164  0.83569722  1  0  -0.12184  0  3.729551  0  0  -0.139175  0  3.992957  0  0  -0.143316  0  4.014284  0  -0.13434  0  -0.10831  -0.136307  0  3.978516  0
C  C89  1  0.24048316  0.77521848  0.33569901  1  0  -0.121901  0  3.729924  0  0  -0.13926  0  3.993375  0  0  -0.143395  0  4.014704  0  -0.134308  0  -0.108288  -0.136394  0  3.978927  0
C  C90  1  0.24048222  0.27520900  0.16430338  1  0  -0.121785  0  3.729934  0  0  -0.139157  0  3.993385  0  0  -0.143291  0  4.014716  0  -0.134474  0  -0.108322  -0.136287  0  3.978943  0
C  C91  1  0.75951918  0.22478903  0.66430517  1  0  -0.121605  0  3.730059  0  0  -0.138973  0  3.99348  0  0  -0.143108  0  4.014808  0  -0.134594  0  -0.108234  -0.136107  0  3.979031  0
C  C92  1  0.72257826  0.58752657  0.80295973  1  0  -0.094667  0  3.72526  0  0  -0.117331  0  3.993317  0  0  -0.118961  0  4.013647  0  -0.046254  0  -0.101628  -0.116372  0  3.979725  0
C  C93  1  0.27742281  0.91246635  0.30296690  1  0  -0.094573  0  3.725497  0  0  -0.117229  0  3.993533  0  0  -0.11887  0  4.013862  0  -0.046031  0  -0.101627  -0.116268  0  3.97994  0
C  C94  1  0.27740595  0.41244310  0.19703370  1  0  -0.094695  0  3.725755  0  0  -0.117365  0  3.993746  0  0  -0.118993  0  4.014079  0  -0.045967  0  -0.101665  -0.116401  0  3.980152  0
C  C95  1  0.72259108  0.08755722  0.69703609  1  0  -0.094722  0  3.725842  0  0  -0.117408  0  3.99381  0  0  -0.119047  0  4.01414  0  -0.045792  0  -0.101686  -0.116442  0  3.980218  0
C  C96  1  0.60982637  0.43811407  0.83898614  1  0  0.099116  0  3.618044  0  0  0.043342  0  3.880251  0  0  0.051727  0  3.884126  0  0.387516  0  -0.064763  0.037897  0  3.87752  0
C  C97  1  0.39018089  0.06188739  0.33898494  1  0  0.099169  0  3.617718  0  0  0.043349  0  3.880063  0  0  0.051736  0  3.883939  0  0.387057  0  -0.064754  0.037908  0  3.87733  0
C  C98  1  0.39015869  0.56186707  0.16101506  1  0  0.098934  0  3.61796  0  0  0.043217  0  3.880284  0  0  0.051585  0  3.884164  0  0.386878  0  -0.064698  0.037774  0  3.877556  0
C  C99  1  0.60983581  0.93813044  0.66101745  1  0  0.098921  0  3.61787  0  0  0.043292  0  3.880054  0  0  0.051663  0  3.883937  0  0.386978  0  -0.064667  0.037841  0  3.877339  0
Cl  Cl100  1  0.60858414  0.97894300  0.12180906  1  0  1.379079  0  6.247788  0  0  1.325906  0  6.802406  0  0  1.377692  0  6.778502  0  3.013289  0  0.717689  1.290275  0  6.817464  0
Cl  Cl101  1  0.39142369  0.52106253  0.62181264  1  0  1.378944  0  6.247556  0  0  1.325801  0  6.802121  0  0  1.377595  0  6.778215  0  3.013387  0  0.717677  1.290169  0  6.817185  0
Cl  Cl102  1  0.39141181  0.02105992  0.87818796  1  0  1.379219  0  6.247693  0  0  1.326059  0  6.802279  0  0  1.377853  0  6.778364  0  3.013815  0  0.71779  1.290435  0  6.817341  0
Cl  Cl103  1  0.60858681  0.47894154  0.37818676  1  0  1.379131  0  6.247734  0  0  1.32599  0  6.802279  0  0  1.377786  0  6.778373  0  3.013904  0  0.717749  1.290359  0  6.817339  0
O  O104  1  0.59602689  0.92769164  0.20385829  1  0  -0.511066  0  1.880198  0  0  -0.479742  0  2.115012  0  0  -0.497392  0  2.104855  0  -0.99154  0  -0.28939  -0.467403  0  2.12159  0
O  O105  1  0.40398498  0.57232765  0.70386008  1  0  -0.51114  0  1.880201  0  0  -0.479791  0  2.115014  0  0  -0.497444  0  2.104854  0  -0.99165  0  -0.289392  -0.467453  0  2.121597  0
O  O106  1  0.40397010  0.07231357  0.79613992  1  0  -0.511171  0  1.880219  0  0  -0.479849  0  2.115046  0  0  -0.497498  0  2.104888  0  -0.991544  0  -0.289429  -0.467512  0  2.121627  0
O  O107  1  0.59602280  0.42767757  0.29613932  1  0  -0.511215  0  1.880173  0  0  -0.479866  0  2.11497  0  0  -0.497519  0  2.10481  0  -0.991648  0  -0.28941  -0.467529  0  2.121552  0
O  O108  1  0.71433847  0.14379117  0.11704863  1  0  -0.583466  0  1.849118  0  0  -0.558361  0  2.095762  0  0  -0.572898  0  2.080585  0  -0.970691  0  -0.366452  -0.548347  0  2.106144  0
O  O109  1  0.28567095  0.35621029  0.61705879  1  0  -0.583407  0  1.848887  0  0  -0.558358  0  2.095586  0  0  -0.572887  0  2.080383  0  -0.970555  0  -0.366473  -0.548346  0  2.105968  0
O  O110  1  0.28565645  0.85620946  0.88294778  1  0  -0.583435  0  1.8491  0  0  -0.558347  0  2.095748  0  0  -0.572884  0  2.080571  0  -0.970668  0  -0.366433  -0.548336  0  2.106128  0
O  O111  1  0.71433795  0.64379264  0.38294061  1  0  -0.583355  0  1.849085  0  0  -0.558308  0  2.095787  0  0  -0.572829  0  2.080563  0  -0.970677  0  -0.366424  -0.548299  0  2.10618  0
O  O112  1  0.44908008  0.95324680  0.09158860  1  0  -0.612315  0  1.846961  0  0  -0.591953  0  2.101476  0  0  -0.606195  0  2.085813  0  -0.978943  0  -0.36586  -0.581871  0  2.112425  0
O  O113  1  0.55092568  0.54675415  0.59159278  1  0  -0.612188  0  1.846957  0  0  -0.591804  0  2.101412  0  0  -0.606053  0  2.085755  0  -0.978977  0  -0.365797  -0.581724  0  2.112361  0
O  O114  1  0.55091263  0.04675613  0.90840781  1  0  -0.612359  0  1.846985  0  0  -0.592004  0  2.101505  0  0  -0.606248  0  2.08584  0  -0.978747  0  -0.36589  -0.581925  0  2.112454  0
O  O115  1  0.44908707  0.45324534  0.40840781  1  0  -0.612339  0  1.847015  0  0  -0.591983  0  2.101516  0  0  -0.606231  0  2.085855  0  -0.978826  0  -0.365877  -0.581903  0  2.112469  0
O  O116  1  0.67131719  0.89468840  0.07101804  1  0  -0.5611  0  1.869741  0  0  -0.540477  0  2.122253  0  0  -0.55643  0  2.109947  0  -1.002267  0  -0.316082  -0.52925  0  2.130286  0
O  O117  1  0.32868965  0.60531255  0.57101745  1  0  -0.561093  0  1.869691  0  0  -0.540477  0  2.12219  0  0  -0.556432  0  2.10988  0  -1.002307  0  -0.316089  -0.529248  0  2.130222  0
O  O118  1  0.32867824  0.10531338  0.92897837  1  0  -0.561133  0  1.869725  0  0  -0.54052  0  2.122238  0  0  -0.556478  0  2.109934  0  -1.002938  0  -0.316133  -0.529293  0  2.130266  0
O  O119  1  0.67132569  0.39469267  0.42897837  1  0  -0.561081  0  1.869688  0  0  -0.540484  0  2.122211  0  0  -0.556441  0  2.109903  0  -1.002886  0  -0.316116  -0.529256  0  2.130242  0
O  O120  1  0.14355750  0.52407273  0.92443422  1  0  -0.368664  0  2.306499  0  0  -0.305166  0  2.562647  0  0  -0.321313  0  2.56234  0  -1.08642  0  -0.250482  -0.293401  0  2.563687  0
O  O121  1  0.85644272  0.97593510  0.42443542  1  0  -0.368754  0  2.306584  0  0  -0.305224  0  2.562734  0  0  -0.321367  0  2.562428  0  -1.086479  0  -0.250579  -0.293452  0  2.563772  0
O  O122  1  0.85643314  0.47592561  0.07556578  1  0  -0.368725  0  2.306534  0  0  -0.305237  0  2.562796  0  0  -0.321383  0  2.562493  0  -1.086567  0  -0.250487  -0.293457  0  2.563827  0
O  O123  1  0.14356088  0.02406324  0.57556100  1  0  -0.368658  0  2.306253  0  0  -0.305163  0  2.562595  0  0  -0.321312  0  2.562293  0  -1.086537  0  -0.25044  -0.293377  0  2.56363  0
O  O124  1  0.88228878  0.32947170  0.93755407  1  0  -0.385663  0  2.241438  0  0  -0.32283  0  2.491991  0  0  -0.338171  0  2.489971  0  -1.04388  0  -0.277382  -0.312239  0  2.493816  0
O  O125  1  0.11770951  0.17051944  0.43755646  1  0  -0.385747  0  2.241724  0  0  -0.322732  0  2.492237  0  0  -0.338072  0  2.49023  0  -1.044088  0  -0.277369  -0.312141  0  2.494068  0
O  O126  1  0.11770318  0.67051517  0.06244414  1  0  -0.385924  0  2.24171  0  0  -0.322852  0  2.492215  0  0  -0.338183  0  2.490196  0  -1.043838  0  -0.277427  -0.312263  0  2.494039  0
O  O127  1  0.88228968  0.82948348  0.56244414  1  0  -0.385922  0  2.241696  0  0  -0.322888  0  2.492271  0  0  -0.33824  0  2.49026  0  -1.043952  0  -0.277424  -0.312299  0  2.494097  0
O  O128  1  0.39451541  0.55236860  0.07445991  1  0  -0.385365  0  2.297718  0  0  -0.324894  0  2.558434  0  0  -0.340987  0  2.557681  0  -1.089785  0  -0.265832  -0.313256  0  2.559944  0
O  O129  1  0.60548176  0.94763005  0.57446230  1  0  -0.385357  0  2.297631  0  0  -0.324872  0  2.558294  0  0  -0.340977  0  2.557554  0  -1.089754  0  -0.265839  -0.313234  0  2.559812  0
O  O130  1  0.60547003  0.44762056  0.92553830  1  0  -0.385512  0  2.297831  0  0  -0.324878  0  2.558332  0  0  -0.340989  0  2.557575  0  -1.090391  0  -0.265772  -0.313237  0  2.559844  0
O  O131  1  0.39453071  0.05238319  0.42554128  1  0  -0.3856  0  2.297856  0  0  -0.324912  0  2.558319  0  0  -0.341025  0  2.557561  0  -1.090287  0  -0.265793  -0.313275  0  2.559839  0
O  O132  1  0.47967122  0.35613231  0.07855837  1  0  -0.38109  0  2.220538  0  0  -0.316921  0  2.46766  0  0  -0.332114  0  2.464965  0  -1.036703  0  -0.277287  -0.306284  0  2.469903  0
O  O133  1  0.52032628  0.14387144  0.57856016  1  0  -0.381078  0  2.220432  0  0  -0.3169  0  2.467535  0  0  -0.332102  0  2.464845  0  -1.036712  0  -0.277286  -0.30627  0  2.469773  0
O  O134  1  0.52033773  0.64386832  0.92144521  1  0  -0.381071  0  2.220553  0  0  -0.317024  0  2.467726  0  0  -0.332221  0  2.465027  0  -1.036696  0  -0.27726  -0.306386  0  2.469966  0
O  O135  1  0.47967010  0.85613721  0.42144521  1  0  -0.381075  0  2.220509  0  0  -0.316911  0  2.467617  0  0  -0.332108  0  2.464923  0  -1.036624  0  -0.277219  -0.306277  0  2.469853  0
