# generated using pymatgen
data_BaH21C30O7
_symmetry_space_group_name_H-M   'P 1'
_cell_length_a   5.12082831
_cell_length_b   14.23299578
_cell_length_c   17.64900000
_cell_angle_alpha   70.30099366
_cell_angle_beta   84.18191500
_cell_angle_gamma   88.09697045
_symmetry_Int_Tables_number   1
_chemical_formula_structural   BaH21C30O7
_chemical_formula_sum   'Ba2 H42 C60 O14'
_cell_volume   1204.82205048
_cell_formula_units_Z   2
loop_
 _symmetry_equiv_pos_site_id
 _symmetry_equiv_pos_as_xyz
  1  'x, y, z'
loop_
 _atom_site_type_symbol
 _atom_site_label
 _atom_site_symmetry_multiplicity
 _atom_site_fract_x
 _atom_site_fract_y
 _atom_site_fract_z
 _atom_site_occupancy
 _atom_site_hle17_bader_spin_density
 _atom_site_hle17_ddec_charge
 _atom_site_hle17_ddec_spin_density
 _atom_site_hle17_ddec_sum_bond_order
 _atom_site_hle17_magmom
 _atom_site_hse06_10hf_bader_spin_density
 _atom_site_hse06_10hf_ddec_charge
 _atom_site_hse06_10hf_ddec_spin_density
 _atom_site_hse06_10hf_ddec_sum_bond_order
 _atom_site_hse06_10hf_magmom
 _atom_site_hse06_bader_spin_density
 _atom_site_hse06_ddec_charge
 _atom_site_hse06_ddec_spin_density
 _atom_site_hse06_ddec_sum_bond_order
 _atom_site_hse06_magmom
 _atom_site_pbe_bader_charge
 _atom_site_pbe_bader_spin_density
 _atom_site_pbe_cm5_charge
 _atom_site_pbe_ddec_charge
 _atom_site_pbe_ddec_spin_density
 _atom_site_pbe_ddec_sum_bond_order
 _atom_site_pbe_magmom
Ba  Ba0  1  0.76888608  0.39764187  0.61879526  1  0  1.636041  0  1.132942  0  0  1.486059  0  1.533032  0  0  1.527491  0  1.489141  0  1.691336  0  0.936323  1.455508  0  1.564233  0
Ba  Ba1  1  0.23111197  0.60235795  0.38120525  1  0  1.636048  0  1.132935  0  0  1.486072  0  1.533016  0  0  1.527505  0  1.489126  0  1.691333  0  0.936339  1.455522  0  1.564219  0
H  H2  1  0.95456395  0.15756093  0.00113348  1  0  0.090046  0  0.97926  0  0  0.099804  0  1.044352  0  0  0.101977  0  1.044791  0  0.094831  0  0.099894  0.098279  0  1.044102  0
H  H3  1  0.04543607  0.84243889  0.99886640  1  0  0.090019  0  0.979258  0  0  0.099774  0  1.044362  0  0  0.101947  0  1.044801  0  0.094832  0  0.099888  0.098249  0  1.044112  0
H  H4  1  0.89525451  0.52537673  0.77209606  1  0  0.133347  0  0.950948  0  0  0.140075  0  1.014121  0  0  0.145124  0  1.010811  0  0.098199  0  0.115258  0.136508  0  1.016567  0
H  H5  1  0.10474354  0.47462309  0.22790444  1  0  0.133331  0  0.95098  0  0  0.140063  0  1.014147  0  0  0.145112  0  1.010837  0  0.098203  0  0.115254  0.136495  0  1.016591  0
H  H6  1  0.49650625  0.05567826  0.79006738  1  0  0.090796  0  0.977746  0  0  0.103117  0  1.035927  0  0  0.105415  0  1.036072  0  0.074105  0  0.100793  0.101481  0  1.035954  0
H  H7  1  0.50349377  0.94432155  0.20993250  1  0  0.090808  0  0.977735  0  0  0.103128  0  1.035917  0  0  0.105425  0  1.036062  0  0.07411  0  0.100796  0.101491  0  1.035943  0
H  H8  1  0.01211053  0.72867938  0.51347668  1  0  0.127895  0  0.980515  0  0  0.134999  0  1.042776  0  0  0.139491  0  1.040168  0  0.130294  0  0.114861  0.131783  0  1.044754  0
H  H9  1  0.98788949  0.27132119  0.48652300  1  0  0.127887  0  0.98051  0  0  0.134997  0  1.042762  0  0  0.13949  0  1.04015  0  0.1303  0  0.114866  0.131782  0  1.04474  0
H  H10  1  0.84620064  0.14146917  0.14294910  1  0  0.0845  0  0.96399  0  0  0.094073  0  1.028433  0  0  0.096252  0  1.028632  0  0.061091  0  0.097031  0.092509  0  1.0284  0
H  H11  1  0.15379938  0.85853140  0.85705057  1  0  0.084506  0  0.963987  0  0  0.094079  0  1.028428  0  0  0.096258  0  1.028628  0  0.061323  0  0.097035  0.092514  0  1.028397  0
H  H12  1  0.48961371  0.84248590  0.49021332  1  0  0.101472  0  0.944536  0  0  0.110829  0  1.008815  0  0  0.113418  0  1.00772  0  0.118721  0  0.108454  0.108906  0  1.009756  0
H  H13  1  0.51038630  0.15751317  0.50978733  1  0  0.101481  0  0.944542  0  0  0.110853  0  1.0088  0  0  0.113443  0  1.007706  0  0.11871  0  0.108466  0.108928  0  1.009743  0
H  H14  1  0.52352951  0.21691829  0.79926507  1  0  0.129762  0  0.98915  0  0  0.137453  0  1.051306  0  0  0.142284  0  1.048122  0  0.14942  0  0.109676  0.134052  0  1.053653  0
H  H15  1  0.47647051  0.78308227  0.20073460  1  0  0.129767  0  0.989149  0  0  0.137459  0  1.051303  0  0  0.14229  0  1.048119  0  0.14942  0  0.109676  0.134058  0  1.05365  0
H  H16  1  0.98873855  0.13654305  0.88950258  1  0  0.091819  0  0.964551  0  0  0.100425  0  1.032488  0  0  0.103066  0  1.031378  0  0.056593  0  0.102779  0.098443  0  1.033479  0
H  H17  1  0.01126147  0.86345676  0.11049673  1  0  0.091815  0  0.964556  0  0  0.100421  0  1.032496  0  0  0.103061  0  1.031387  0  0.056595  0  0.102771  0.09844  0  1.033486  0
H  H18  1  0.54572295  0.95772601  0.37714929  1  0  0.095685  0  0.969348  0  0  0.105611  0  1.033211  0  0  0.109112  0  1.031078  0  0.079115  0  0.099437  0.103126  0  1.034757  0
H  H19  1  0.45427511  0.04227381  0.62285122  1  0  0.095674  0  0.96935  0  0  0.105598  0  1.033219  0  0  0.1091  0  1.031087  0  0.079122  0  0.099439  0.103112  0  1.034767  0
H  H20  1  0.51681078  0.11748115  0.26744750  1  0  0.084092  0  0.961923  0  0  0.09595  0  1.022816  0  0  0.098293  0  1.022565  0  0.065588  0  0.098515  0.094195  0  1.023153  0
H  H21  1  0.48318924  0.88251867  0.73255295  1  0  0.084086  0  0.961929  0  0  0.095942  0  1.022824  0  0  0.098286  0  1.022573  0  0.065578  0  0.098513  0.094187  0  1.023162  0
H  H22  1  0.44189640  0.51156258  0.83312748  1  0  0.085965  0  0.963073  0  0  0.095453  0  1.029884  0  0  0.097895  0  1.027878  0  0.085562  0  0.107761  0.093661  0  1.031407  0
H  H23  1  0.55809969  0.48843799  0.16687287  1  0  0.085978  0  0.963023  0  0  0.095472  0  1.029836  0  0  0.097913  0  1.027832  0  0.08555  0  0.107769  0.09368  0  1.031359  0
H  H24  1  0.87019802  0.96149839  0.75188703  1  0  0.083035  0  0.975563  0  0  0.092558  0  1.039078  0  0  0.095114  0  1.038762  0  0.070459  0  0.095023  0.090742  0  1.039358  0
H  H25  1  0.12980004  0.03850143  0.24811291  1  0  0.083055  0  0.975538  0  0  0.092576  0  1.039053  0  0  0.095133  0  1.038739  0  0.070451  0  0.095035  0.09076  0  1.039335  0
H  H26  1  0.87858519  0.36759491  0.86887854  1  0  0.102291  0  0.987561  0  0  0.109804  0  1.052635  0  0  0.11233  0  1.052813  0  0.120171  0  0.101946  0.107988  0  1.052597  0
H  H27  1  0.12141483  0.63240491  0.13112191  1  0  0.102278  0  0.987566  0  0  0.109792  0  1.052637  0  0  0.112319  0  1.052814  0  0.120162  0  0.101942  0.107976  0  1.0526  0
H  H28  1  0.51295012  0.25716823  0.93938559  1  0  0.090203  0  0.966658  0  0  0.099663  0  1.03029  0  0  0.101479  0  1.031085  0  0.06385  0  0.099336  0.098339  0  1.029846  0
H  H29  1  0.48705186  0.74283234  0.06061460  1  0  0.090172  0  0.96668  0  0  0.099634  0  1.030313  0  0  0.101449  0  1.03111  0  0.063851  0  0.099344  0.09831  0  1.029869  0
H  H30  1  0.49931271  0.63907132  0.85831099  1  0  0.087738  0  0.964545  0  0  0.101268  0  1.021034  0  0  0.103939  0  1.01996  0  0.05082  0  0.099444  0.099411  0  1.021786  0
H  H31  1  0.50068731  0.36092850  0.14168945  1  0  0.087702  0  0.964579  0  0  0.101256  0  1.02104  0  0  0.103928  0  1.019967  0  0.050995  0  0.099432  0.099399  0  1.021793  0
H  H32  1  0.80107275  0.26125479  0.25889886  1  0  0.083976  0  0.961907  0  0  0.094844  0  1.022135  0  0  0.097098  0  1.022257  0  0.066584  0  0.095994  0.093203  0  1.02214  0
H  H33  1  0.19892923  0.73874429  0.74110117  1  0  0.083964  0  0.96192  0  0  0.094835  0  1.022142  0  0  0.097089  0  1.022264  0  0.066579  0  0.095974  0.093183  0  1.02216  0
H  H34  1  0.09413160  0.24627421  0.36387390  1  0  0.100725  0  0.965678  0  0  0.112109  0  1.023354  0  0  0.11461  0  1.02325  0  0.086505  0  0.102774  0.110276  0  1.023572  0
H  H35  1  0.90587038  0.75372486  0.63612669  1  0  0.100745  0  0.965705  0  0  0.112105  0  1.023408  0  0  0.114644  0  1.023259  0  0.086495  0  0.102784  0.110269  0  1.023627  0
H  H36  1  0.67903914  0.74643084  0.92362129  1  0  0.084132  0  0.979718  0  0  0.095016  0  1.040696  0  0  0.097014  0  1.041194  0  0.08708  0  0.094876  0.093599  0  1.040345  0
H  H37  1  0.32096088  0.25356898  0.07637916  1  0  0.084153  0  0.979699  0  0  0.095041  0  1.040671  0  0  0.097039  0  1.041169  0  0.087083  0  0.094883  0.093624  0  1.040319  0
H  H38  1  0.94715708  0.16091167  0.62150230  1  0  0.401276  0  0.874045  0  0  0.376727  0  0.947068  0  0  0.383686  0  0.937221  0  0.600454  0  0.303491  0.371837  0  0.953796  0
H  H39  1  0.05284098  0.83908889  0.37849687  1  0  0.401296  0  0.874007  0  0  0.376746  0  0.947038  0  0  0.383704  0  0.937192  0  0.600453  0  0.303499  0.371857  0  0.953755  0
H  H40  1  0.83773323  0.15405870  0.70851119  1  0  0.41067  0  0.859051  0  0  0.385718  0  0.932177  0  0  0.393252  0  0.923918  0  0.611182  0  0.308413  0.380374  0  0.938036  0
H  H41  1  0.16226482  0.84594037  0.29148838  1  0  0.41063  0  0.859084  0  0  0.385676  0  0.932215  0  0  0.393209  0  0.923958  0  0.611184  0  0.308383  0.380332  0  0.938073  0
H  H42  1  0.24396045  0.59188632  0.58118652  1  0  0.404292  0  0.889541  0  0  0.371725  0  0.971648  0  0  0.384468  0  0.957686  0  0.661658  0  0.320071  0.362787  0  0.981336  0
H  H43  1  0.75603761  0.40811350  0.41881399  1  0  0.404302  0  0.889535  0  0  0.371746  0  0.971632  0  0  0.384489  0  0.957668  0  0.661654  0  0.320069  0.362807  0  0.981321  0
C  C44  1  0.65573447  0.65598995  0.50244788  1  0  0.723178  0  3.902233  0  0  0.673434  0  4.194926  0  0  0.709695  0  4.182966  0  1.525769  0  0.226212  0.648836  0  4.202261  0
C  C45  1  0.34426555  0.34400987  0.49755200  1  0  0.723157  0  3.902334  0  0  0.673397  0  4.195042  0  0  0.70966  0  4.183079  0  1.525725  0  0.226193  0.648799  0  4.202377  0
C  C46  1  0.14913525  0.27849282  0.75276020  1  0  0.675296  0  3.977912  0  0  0.636168  0  4.259948  0  0  0.67078  0  4.251248  0  1.555191  0  0.191114  0.612779  0  4.264879  0
C  C47  1  0.85086477  0.72150700  0.24723968  1  0  0.675293  0  3.977922  0  0  0.636167  0  4.259957  0  0  0.670778  0  4.251256  0  1.555184  0  0.191114  0.612778  0  4.264888  0
C  C48  1  0.26750255  0.53694537  0.69704727  1  0  0.701201  0  3.832648  0  0  0.65482  0  4.125089  0  0  0.690179  0  4.115772  0  1.447106  0  0.23748  0.630765  0  4.130849  0
C  C49  1  0.73249551  0.46305519  0.30295303  1  0  0.701212  0  3.832725  0  0  0.654841  0  4.125155  0  0  0.690199  0  4.115839  0  1.446834  0  0.237486  0.630789  0  4.130911  0
C  C50  1  0.28435556  0.05415140  0.02199852  1  0  0.015254  0  3.747463  0  0  0.024699  0  3.979486  0  0  0.023896  0  4.00352  0  -0.00215  0  -0.004126  0.025281  0  3.9632  0
C  C51  1  0.71564446  0.94584916  0.97800115  1  0  0.015242  0  3.747489  0  0  0.024679  0  3.979503  0  0  0.023876  0  4.003538  0  -0.002148  0  -0.004122  0.025261  0  3.963218  0
C  C52  1  0.56377706  0.01118132  0.91679525  1  0  0.021808  0  3.742515  0  0  0.032409  0  3.973007  0  0  0.031711  0  3.997264  0  -0.008144  0  -0.003624  0.032893  0  3.956539  0
C  C53  1  0.43622296  0.98881849  0.08320520  1  0  0.02184  0  3.742461  0  0  0.032415  0  3.972987  0  0  0.031717  0  3.997244  0  -0.008108  0  -0.00361  0.032899  0  3.956519  0
C  C54  1  0.35191120  0.06641705  0.93919472  1  0  0.006957  0  3.728723  0  0  0.014062  0  3.970084  0  0  0.013103  0  3.992813  0  -0.003823  0  -0.001229  0.014685  0  3.954653  0
C  C55  1  0.64808882  0.93358277  0.06080516  1  0  0.006991  0  3.728717  0  0  0.014107  0  3.970079  0  0  0.013146  0  3.992809  0  -0.003827  0  -0.001216  0.014729  0  3.954648  0
C  C56  1  0.21171696  0.56551547  0.95918162  1  0  0.02261  0  3.755809  0  0  0.030454  0  3.989706  0  0  0.030006  0  4.015237  0  -0.027287  0  -0.003246  0.03074  0  3.972315  0
C  C57  1  0.78828306  0.43448435  0.04081883  1  0  0.022613  0  3.755739  0  0  0.030491  0  3.989585  0  0  0.030046  0  4.015111  0  -0.027224  0  -0.003224  0.030776  0  3.972196  0
C  C58  1  0.82815397  0.00935670  0.43926654  1  0  0.010807  0  3.762818  0  0  0.018932  0  3.998782  0  0  0.018243  0  4.02369  0  -0.014875  0  -0.008852  0.019398  0  3.981885  0
C  C59  1  0.17184605  0.99064237  0.56073411  1  0  0.010739  0  3.76286  0  0  0.018921  0  3.998756  0  0  0.018232  0  4.023662  0  -0.014772  0  -0.008818  0.019387  0  3.981861  0
C  C60  1  0.84847186  0.91623653  0.50198156  1  0  -0.002821  0  3.729131  0  0  0.004118  0  3.972299  0  0  0.002675  0  3.995685  0  -0.028005  0  -0.004912  0.005132  0  3.956352  0
C  C61  1  0.15152816  0.08376329  0.49801889  1  0  -0.002838  0  3.729117  0  0  0.004076  0  3.972289  0  0  0.002633  0  3.995674  0  -0.02841  0  -0.00495  0.00509  0  3.956341  0
C  C62  1  0.10669667  0.50370214  0.92105732  1  0  0.000229  0  3.731538  0  0  0.008648  0  3.971334  0  0  0.005681  0  3.995127  0  -0.009639  0  -0.000648  0.010746  0  3.955052  0
C  C63  1  0.89330335  0.49629842  0.07894235  1  0  0.000296  0  3.731467  0  0  0.008727  0  3.971235  0  0  0.005761  0  3.995026  0  -0.009627  0  -0.000592  0.010825  0  3.954953  0
C  C64  1  0.07096260  0.10795057  0.04655363  1  0  -0.101571  0  3.7283  0  0  -0.119644  0  3.974943  0  0  -0.122124  0  3.995909  0  -0.013125  0  -0.08772  -0.117958  0  3.960752  0
C  C65  1  0.92903742  0.89204925  0.95344625  1  0  -0.101498  0  3.728232  0  0  -0.119567  0  3.974873  0  0  -0.122047  0  3.995838  0  -0.013127  0  -0.087702  -0.117881  0  3.960682  0
C  C66  1  0.10750659  0.52085958  0.77414160  1  0  -0.257493  0  3.667687  0  0  -0.271549  0  3.923615  0  0  -0.284052  0  3.937814  0  0.126026  0  -0.092023  -0.263343  0  3.914164  0
C  C67  1  0.89249343  0.47914024  0.22585942  1  0  -0.257456  0  3.667653  0  0  -0.271519  0  3.923606  0  0  -0.28402  0  3.937803  0  0.126016  0  -0.09202  -0.263311  0  3.914153  0
C  C68  1  0.62306356  0.01278804  0.83545783  1  0  -0.119198  0  3.763657  0  0  -0.136578  0  4.009389  0  0  -0.139166  0  4.030856  0  -0.109357  0  -0.092677  -0.134803  0  3.994822  0
C  C69  1  0.37693646  0.98721253  0.16454184  1  0  -0.119243  0  3.763673  0  0  -0.136616  0  4.009411  0  0  -0.139203  0  4.030878  0  -0.109363  0  -0.092697  -0.134841  0  3.994844  0
C  C70  1  0.80320977  0.74141742  0.50684729  1  0  -0.258336  0  3.674128  0  0  -0.267104  0  3.921976  0  0  -0.276897  0  3.934798  0  0.016323  0  -0.08986  -0.260678  0  3.913431  0
C  C71  1  0.19679222  0.25858315  0.49315177  1  0  -0.258317  0  3.674105  0  0  -0.267086  0  3.921975  0  0  -0.276879  0  3.934795  0  0.016326  0  -0.089861  -0.260657  0  3.913421  0
C  C72  1  0.01710670  0.90620818  0.56351219  1  0  0.022021  0  3.741098  0  0  0.032067  0  3.975723  0  0  0.031219  0  4.000516  0  -0.029743  0  -0.003385  0.032639  0  3.958869  0
C  C73  1  0.98289331  0.09379163  0.43648826  1  0  0.021988  0  3.741047  0  0  0.032051  0  3.975692  0  0  0.031205  0  4.000476  0  -0.029736  0  -0.003387  0.032624  0  3.958838  0
C  C74  1  0.01147240  0.09996924  0.12611695  1  0  -0.065388  0  3.780703  0  0  -0.078394  0  4.029959  0  0  -0.079684  0  4.050045  0  -0.099783  0  -0.093398  -0.077464  0  4.016233  0
C  C75  1  0.98852762  0.90003133  0.87388273  1  0  -0.065392  0  3.780749  0  0  -0.078395  0  4.029997  0  0  -0.079686  0  4.050083  0  -0.100014  0  -0.093386  -0.077466  0  4.016272  0
C  C76  1  0.69708397  0.83135010  0.50041321  1  0  -0.027507  0  3.720236  0  0  -0.049964  0  3.971334  0  0  -0.046704  0  3.988953  0  -0.179707  0  -0.06455  -0.052037  0  3.959348  0
C  C77  1  0.30291801  0.16864972  0.49958718  1  0  -0.027488  0  3.720232  0  0  -0.049958  0  3.971342  0  0  -0.046699  0  3.988959  0  -0.179288  0  -0.064544  -0.05203  0  3.959358  0
C  C78  1  0.31118058  0.20812950  0.81193014  1  0  -0.2421  0  3.66052  0  0  -0.252876  0  3.906092  0  0  -0.262323  0  3.919043  0  -0.113463  0  -0.096119  -0.246702  0  3.897364  0
C  C79  1  0.68881944  0.79187032  0.18807030  1  0  -0.242127  0  3.660456  0  0  -0.252907  0  3.906037  0  0  -0.262354  0  3.918987  0  -0.113453  0  -0.096139  -0.246733  0  3.897311  0
C  C80  1  0.20272742  0.13769305  0.87872073  1  0  -0.038603  0  3.746955  0  0  -0.063528  0  4.004287  0  0  -0.060791  0  4.02294  0  -0.02594  0  -0.075183  -0.065122  0  3.991555  0
C  C81  1  0.79727260  0.86230751  0.12127838  1  0  -0.038593  0  3.746889  0  0  -0.063521  0  4.004227  0  0  -0.060783  0  4.02288  0  -0.025931  0  -0.075149  -0.065116  0  3.991495  0
C  C82  1  0.89602624  0.43755225  0.96116569  1  0  0.026699  0  3.748874  0  0  0.035698  0  3.981464  0  0  0.035331  0  4.006367  0  -0.019295  0  -0.000703  0.03582  0  3.964512  0
C  C83  1  0.10397378  0.56244757  0.03883532  1  0  0.026732  0  3.748939  0  0  0.035732  0  3.981536  0  0  0.035366  0  4.006438  0  -0.019274  0  -0.000712  0.035853  0  3.964584  0
C  C84  1  0.66206919  0.02094325  0.37625484  1  0  -0.12424  0  3.748484  0  0  -0.142863  0  3.998764  0  0  -0.146369  0  4.020255  0  -0.067765  0  -0.095302  -0.140439  0  3.984153  0
C  C85  1  0.33792887  0.97905657  0.62374566  1  0  -0.124174  0  3.748507  0  0  -0.142808  0  3.998769  0  0  -0.146313  0  4.02026  0  -0.067833  0  -0.095311  -0.140384  0  3.984159  0
C  C86  1  0.64731727  0.11012220  0.31424050  1  0  -0.060156  0  3.783933  0  0  -0.073446  0  4.032639  0  0  -0.074593  0  4.054005  0  -0.072578  0  -0.091449  -0.072527  0  4.018015  0
C  C87  1  0.35268275  0.88987761  0.68575995  1  0  -0.060178  0  3.78398  0  0  -0.07347  0  4.032688  0  0  -0.074617  0  4.054052  0  -0.072602  0  -0.091457  -0.072551  0  4.01806  0
C  C88  1  0.22740655  0.51027153  0.84108350  1  0  0.001972  0  3.724005  0  0  -0.023896  0  3.977982  0  0  -0.017225  0  3.994419  0  -0.187125  0  -0.055825  -0.028288  0  3.966802  0
C  C89  1  0.77259347  0.48972903  0.15891675  1  0  0.001849  0  3.723814  0  0  -0.024047  0  3.97784  0  0  -0.017377  0  3.994277  0  -0.187085  0  -0.055896  -0.02844  0  3.96666  0
C  C90  1  0.82980172  0.95954466  0.81431057  1  0  -0.092809  0  3.80788  0  0  -0.105615  0  4.058428  0  0  -0.107286  0  4.07885  0  -0.058901  0  -0.100195  -0.104299  0  4.04444  0
C  C91  1  0.17019829  0.04045441  0.18568951  1  0  -0.092786  0  3.807787  0  0  -0.105585  0  4.05833  0  0  -0.107256  0  4.078751  0  -0.058889  0  -0.100166  -0.10427  0  4.044344  0
C  C92  1  0.79337228  0.37029490  0.92714135  1  0  -0.111969  0  3.71234  0  0  -0.129055  0  3.958639  0  0  -0.132256  0  3.979617  0  -0.050917  0  -0.088768  -0.126684  0  3.944337  0
C  C93  1  0.20662774  0.62970566  0.07285889  1  0  -0.112015  0  3.712376  0  0  -0.129099  0  3.958678  0  0  -0.1323  0  3.979655  0  -0.050813  0  -0.088761  -0.126727  0  3.944377  0
C  C94  1  0.58965945  0.30672038  0.96734846  1  0  -0.05412  0  3.743918  0  0  -0.067596  0  3.994077  0  0  -0.069041  0  4.014494  0  -0.095085  0  -0.088493  -0.066649  0  3.980158  0
C  C95  1  0.41034253  0.69327869  0.03265100  1  0  -0.054049  0  3.743985  0  0  -0.067524  0  3.994141  0  0  -0.06897  0  4.01456  0  -0.09507  0  -0.088551  -0.066576  0  3.980221  0
C  C96  1  0.41870086  0.63449073  0.91896438  1  0  -0.12386  0  3.761948  0  0  -0.142223  0  4.012446  0  0  -0.146259  0  4.03485  0  -0.046876  0  -0.09478  -0.139421  0  3.997042  0
C  C97  1  0.58129916  0.36550834  0.08103513  1  0  -0.123805  0  3.762009  0  0  -0.142195  0  4.012498  0  0  -0.146233  0  4.034903  0  -0.046936  0  -0.094767  -0.139394  0  3.997094  0
C  C98  1  0.80616938  0.19181759  0.30986147  1  0  -0.068744  0  3.775432  0  0  -0.079905  0  4.021489  0  0  -0.082085  0  4.042998  0  0.006623  0  -0.093705  -0.078311  0  4.006694  0
C  C99  1  0.19383064  0.80818298  0.69013933  1  0  -0.068751  0  3.775488  0  0  -0.079912  0  4.021526  0  0  -0.082093  0  4.043046  0  0.006622  0  -0.093704  -0.078306  0  4.006734  0
C  C100  1  0.97000965  0.18353327  0.36882718  1  0  -0.1037  0  3.73063  0  0  -0.123764  0  3.978619  0  0  -0.126216  0  4.000441  0  -0.077318  0  -0.088953  -0.12198  0  3.963738  0
C  C101  1  0.02999037  0.81646580  0.63117290  1  0  -0.10371  0  3.730672  0  0  -0.123759  0  3.978674  0  0  -0.126242  0  4.000481  0  -0.07731  0  -0.088948  -0.121972  0  3.963791  0
C  C102  1  0.51859949  0.69543391  0.95497656  1  0  -0.057367  0  3.775879  0  0  -0.072567  0  4.027202  0  0  -0.073467  0  4.048635  0  -0.013788  0  -0.091818  -0.071703  0  4.012347  0
C  C103  1  0.48140249  0.30456665  0.04502305  1  0  -0.0574  0  3.775918  0  0  -0.072609  0  4.027257  0  0  -0.07351  0  4.048692  0  -0.013838  0  -0.091881  -0.071745  0  4.012402  0
O  O104  1  0.78919418  0.58140873  0.49591976  1  0  -0.740805  0  1.981867  0  0  -0.678379  0  2.236995  0  0  -0.704267  0  2.224092  0  -1.223154  0  -0.385842  -0.660198  0  2.245415  0
O  O105  1  0.21080780  0.41859109  0.50407950  1  0  -0.740807  0  1.981949  0  0  -0.678379  0  2.237093  0  0  -0.704267  0  2.224188  0  -1.22314  0  -0.385839  -0.660199  0  2.245512  0
O  O106  1  0.40417162  0.66003621  0.50461026  1  0  -0.708679  0  2.030393  0  0  -0.643085  0  2.26912  0  0  -0.66936  0  2.25706  0  -1.201317  0  -0.356642  -0.624681  0  2.276893  0
O  O107  1  0.59582841  0.33996436  0.49538942  1  0  -0.70867  0  2.030414  0  0  -0.643072  0  2.269137  0  0  -0.669348  0  2.257077  0  -1.201287  0  -0.356624  -0.624669  0  2.27691  0
O  O108  1  0.26655135  0.33230318  0.68480487  1  0  -0.753436  0  1.964845  0  0  -0.688317  0  2.199511  0  0  -0.717051  0  2.191905  0  -1.227227  0  -0.401967  -0.667871  0  2.203927  0
O  O109  1  0.73344671  0.66769664  0.31519506  1  0  -0.753439  0  1.964843  0  0  -0.688321  0  2.199505  0  0  -0.717055  0  2.1919  0  -1.227226  0  -0.401974  -0.667874  0  2.203922  0
O  O110  1  0.51080796  0.53092896  0.68924596  1  0  -0.624901  0  1.943859  0  0  -0.572886  0  2.169864  0  0  -0.596413  0  2.161158  0  -1.150556  0  -0.32688  -0.556671  0  2.175513  0
O  O111  1  0.48919206  0.46907086  0.31075448  1  0  -0.624904  0  1.943871  0  0  -0.572891  0  2.16987  0  0  -0.596418  0  2.161163  0  -1.15031  0  -0.326888  -0.556677  0  2.175516  0
O  O112  1  0.12332923  0.56211175  0.63391401  1  0  -0.58248  0  2.110169  0  0  -0.523286  0  2.337815  0  0  -0.547222  0  2.323696  0  -1.185845  0  -0.320238  -0.506446  0  2.346941  0
O  O113  1  0.87667079  0.43788882  0.36608567  1  0  -0.58247  0  2.110161  0  0  -0.523289  0  2.337786  0  0  -0.547227  0  2.32367  0  -1.185838  0  -0.32022  -0.50645  0  2.346911  0
O  O114  1  0.90188243  0.28231893  0.76992053  1  0  -0.698607  0  1.950695  0  0  -0.638995  0  2.178494  0  0  -0.664673  0  2.169488  0  -1.23416  0  -0.37787  -0.620934  0  2.184075  0
O  O115  1  0.09811759  0.71768089  0.23007935  1  0  -0.698602  0  1.950689  0  0  -0.638987  0  2.178481  0  0  -0.664667  0  2.169482  0  -1.234162  0  -0.37787  -0.620925  0  2.184063  0
O  O116  1  0.79549734  0.17814149  0.65240059  1  0  -0.808931  0  1.791189  0  0  -0.763328  0  1.969824  0  0  -0.779858  0  1.948815  0  -1.223876  0  -0.585978  -0.751564  0  1.984263  0
O  O117  1  0.20450268  0.82185907  0.34759852  1  0  -0.808911  0  1.791173  0  0  -0.763302  0  1.969823  0  0  -0.779831  0  1.948818  0  -1.223882  0  -0.585958  -0.751538  0  1.984252  0
