# generated using pymatgen
data_Zn2H13C32Br8N7O8
_symmetry_space_group_name_H-M   'P 1'
_cell_length_a   10.92649078
_cell_length_b   16.24237458
_cell_length_c   17.25008840
_cell_angle_alpha   96.79611997
_cell_angle_beta   92.50839150
_cell_angle_gamma   93.21983283
_symmetry_Int_Tables_number   1
_chemical_formula_structural   Zn2H13C32Br8N7O8
_chemical_formula_sum   'Zn2 H13 C32 Br8 N7 O8'
_cell_volume   3031.17421167
_cell_formula_units_Z   1
loop_
 _symmetry_equiv_pos_site_id
 _symmetry_equiv_pos_as_xyz
  1  'x, y, z'
loop_
 _atom_site_type_symbol
 _atom_site_label
 _atom_site_symmetry_multiplicity
 _atom_site_fract_x
 _atom_site_fract_y
 _atom_site_fract_z
 _atom_site_occupancy
 _atom_site_pbe_bader_charge
 _atom_site_pbe_bader_spin_density
 _atom_site_pbe_cm5_charge
 _atom_site_pbe_ddec_charge
 _atom_site_pbe_ddec_spin_density
 _atom_site_pbe_ddec_sum_bond_order
 _atom_site_pbe_magmom
Zn  Zn0  1  0.49833883  0.41076156  0.50337732  1  1.318818  0  0.666695  0.88881  0  2.296901  0
Zn  Zn1  1  0.51735830  0.59004217  0.50667765  1  1.304511  0  0.668504  0.857735  0  2.348514  0
H  H2  1  0.37864688  0.70804039  0.43808141  1  0.141635  0  0.133555  0.11197  0  0.978998  0
H  H3  1  0.36078966  0.86247290  0.43539256  1  0.102353  0  0.123375  0.136835  0  0.982302  0
H  H4  1  0.33778205  0.10709762  0.38370438  1  0.126385  0  0.122375  0.147508  0  0.979755  0
H  H5  1  0.62039780  0.11521183  0.56773304  1  0.154848  0  0.112868  0.133803  0  1.027897  0
H  H6  1  0.41620462  0.60327363  0.25945849  1  0.093344  0  0.108329  0.115699  0  0.986648  0
H  H7  1  0.40607985  0.59014846  0.11244586  1  0.111867  0  0.110021  0.113636  0  1.00509  0
H  H8  1  0.53831773  0.65639207  0.91495621  1  0.114549  0  0.110443  0.127664  0  0.996622  0
H  H9  1  0.41253080  0.39877248  0.88260473  1  0.123962  0  0.110858  0.130511  0  1.005944  0
H  H10  1  0.89107968  0.35354494  0.49960230  1  0.083714  0  0.092133  0.099989  0  1.028783  0
H  H11  1  0.88480439  0.61598628  0.48939443  1  0.080785  0  0.091553  0.104692  0  1.044238  0
H  H12  1  0.12169311  0.36677197  0.50394873  1  0.096424  0  0.092832  0.09674  0  1.031565  0
H  H13  1  0.21564078  0.65108563  0.49885837  1  0.480697  0  0.288757  0.293328  0  1.023385  0
H  H14  1  0.07428936  0.69687115  0.50334611  1  0.433646  0  0.301608  0.294742  0  0.957108  0
C  C15  1  0.50538120  0.50359277  0.35328609  1  1.627683  0  0.210238  0.607387  0  4.159081  0
C  C16  1  0.26992084  0.50007298  0.50134231  1  1.509848  0  0.213945  0.614309  0  4.121497  0
C  C17  1  0.49854597  0.52361683  0.65551844  1  1.637986  0  0.209643  0.616287  0  4.156753  0
C  C18  1  0.73841617  0.48144136  0.49752124  1  1.575788  0  0.216884  0.60662  0  4.125338  0
C  C19  1  0.44517368  0.75394775  0.46962385  1  0.513994  0  0.061627  0.119913  0  3.897429  0
C  C20  1  0.43612966  0.83835897  0.46751775  1  0.024761  0  -0.07257  -0.184238  0  3.92325  0
C  C21  1  0.52594249  0.89340902  0.50923728  1  0.373983  0  0.103868  0.167735  0  4.039298  0
C  C22  1  0.62331472  0.86104139  0.54951716  1  -0.005214  0  -0.009796  -0.037197  0  3.908606  0
C  C23  1  0.62511713  0.77437494  0.54819311  1  0.519404  0  0.115293  0.192577  0  3.97438  0
C  C24  1  0.40031017  0.14119505  0.42853929  1  0.10103  0  -0.079634  -0.24187  0  3.907203  0
C  C25  1  0.47737948  0.09994986  0.47539635  1  0.288631  0  0.104909  0.236111  0  4.015326  0
C  C26  1  0.55812505  0.14604217  0.53146279  1  0.132003  0  -0.085068  -0.244914  0  3.917184  0
C  C27  1  0.55758068  0.23210707  0.53867118  1  0.391969  0  0.122836  0.268562  0  3.951578  0
C  C28  1  0.40545023  0.22787345  0.44125795  1  0.420314  0  0.12437  0.264613  0  3.959065  0
C  C29  1  0.50771997  0.49085648  0.26533582  1  -0.034071  0  -0.011189  -0.046216  0  3.908476  0
C  C30  1  0.45377493  0.55089579  0.22499896  1  0.037238  0  -0.084286  -0.082043  0  3.994138  0
C  C31  1  0.44821186  0.54407987  0.14424800  1  -0.059344  0  -0.084371  -0.137514  0  3.985085  0
C  C32  1  0.49726416  0.47615793  0.10088200  1  0.405924  0  0.081865  0.130168  0  4.042184  0
C  C33  1  0.55201220  0.41519663  0.14024239  1  -0.062936  0  -0.015874  0.004938  0  3.896755  0
C  C34  1  0.55836409  0.42286991  0.22238679  1  -0.028578  0  -0.016893  0.047534  0  3.915747  0
C  C35  1  0.51228420  0.60016475  0.87557558  1  0.050088  0  -0.089558  -0.204261  0  3.953596  0
C  C36  1  0.48125420  0.52699045  0.90717752  1  0.318126  0  0.091609  0.205986  0  4.05166  0
C  C37  1  0.44199113  0.45465236  0.85767081  1  0.023657  0  -0.0925  -0.210893  0  3.941153  0
C  C38  1  0.44040260  0.45633139  0.77734909  1  -0.02886  0  -0.000313  0.12994  0  3.903237  0
C  C39  1  0.48153763  0.52736141  0.74251161  1  0.01508  0  -0.014193  -0.108102  0  3.841808  0
C  C40  1  0.51273019  0.59986035  0.79490221  1  -0.1036  0  -0.005236  0.124819  0  3.913937  0
C  C41  1  0.13361473  0.49749012  0.49745787  1  0.014734  0  -0.032423  -0.156942  0  3.908523  0
C  C42  1  0.87538579  0.48507038  0.49523231  1  -0.048301  0  -0.0181  -0.000363  0  3.994493  0
C  C43  1  0.06686005  0.56984831  0.49279084  1  0.375437  0  0.105448  0.308563  0  4.058721  0
C  C44  1  0.94086075  0.41322620  0.49792051  1  -0.033961  0  -0.109824  -0.142277  0  4.021383  0
C  C45  1  0.93784897  0.56146104  0.49233596  1  0.043527  0  -0.105719  -0.221005  0  3.932605  0
C  C46  1  0.06802340  0.42073798  0.49981457  1  -0.053716  0  -0.092064  -0.077158  0  4.026996  0
Br  Br47  1  0.75411678  0.72860924  0.60064987  1  0.058124  0  0.104192  0.024238  0  1.620336  0
Br  Br48  1  0.74920617  0.93425347  0.60059252  1  0.024467  0  0.06245  -0.011535  0  1.463906  0
Br  Br49  1  0.29733228  0.28119253  0.37846934  1  0.054799  0  0.105819  0.022361  0  1.47142  0
Br  Br50  1  0.66805035  0.29049660  0.61546913  1  0.052508  0  0.09925  0.019616  0  1.504691  0
Br  Br51  1  0.64319947  0.34464115  0.27407477  1  -0.012556  0  0.023214  -0.034112  0  1.513333  0
Br  Br52  1  0.62254220  0.32676338  0.07961023  1  -0.025105  0  0.012187  -0.067603  0  1.449067  0
Br  Br53  1  0.56144911  0.70483368  0.76310472  1  -0.046256  0  0.003479  -0.080794  0  1.482916  0
Br  Br54  1  0.36886160  0.35805247  0.71649143  1  -0.044251  0  0.012482  -0.065317  0  1.427667  0
N  N55  1  0.53678118  0.72259236  0.51007121  1  -1.207127  0  -0.301521  -0.217251  0  3.456097  0
N  N56  1  0.52189145  0.98036561  0.51804439  1  -0.45105  0  -0.123902  -0.081549  0  3.298673  0
N  N57  1  0.47435664  0.01167718  0.46127426  1  -0.423257  0  -0.120754  -0.10008  0  3.157046  0
N  N58  1  0.48263229  0.27398927  0.49479250  1  -1.173819  0  -0.298982  -0.285027  0  3.379981  0
N  N59  1  0.49139244  0.46598447  0.01836168  1  -0.481528  0  -0.142464  -0.100693  0  3.274314  0
N  N60  1  0.49136570  0.53416290  0.98958273  1  -0.444499  0  -0.142864  -0.128004  0  3.257518  0
N  N61  1  0.12303261  0.64679673  0.48817167  1  -1.261075  0  -0.60336  -0.626352  0  3.353532  0
O  O62  1  0.48241765  0.44034206  0.38776769  1  -1.172803  0  -0.31825  -0.572922  0  2.434197  0
O  O63  1  0.52294492  0.57846143  0.38524540  1  -1.152996  0  -0.322864  -0.548839  0  2.270319  0
O  O64  1  0.32906594  0.56778920  0.48938781  1  -1.1756  0  -0.316883  -0.555442  0  2.348847  0
O  O65  1  0.32068345  0.43449560  0.51671065  1  -1.172861  0  -0.325594  -0.56902  0  2.400118  0
O  O66  1  0.48202150  0.58881304  0.62331072  1  -1.152915  0  -0.318323  -0.544427  0  2.370874  0
O  O67  1  0.53196738  0.45549396  0.62194773  1  -1.168443  0  -0.320186  -0.56482  0  2.421025  0
O  O68  1  0.68102137  0.41025560  0.48779166  1  -1.161271  0  -0.319716  -0.548789  0  2.381604  0
O  O69  1  0.68902654  0.55080313  0.51024823  1  -1.172648  0  -0.324236  -0.568369  0  2.421942  0
