# generated using pymatgen
data_LaZnH16C12(NO4)3
_symmetry_space_group_name_H-M   'P 1'
_cell_length_a   8.56756352
_cell_length_b   9.69506147
_cell_length_c   12.91713220
_cell_angle_alpha   67.94152827
_cell_angle_beta   81.14872262
_cell_angle_gamma   65.83197004
_symmetry_Int_Tables_number   1
_chemical_formula_structural   LaZnH16C12(NO4)3
_chemical_formula_sum   'La2 Zn2 H32 C24 N6 O24'
_cell_volume   907.23832820
_cell_formula_units_Z   2
loop_
 _symmetry_equiv_pos_site_id
 _symmetry_equiv_pos_as_xyz
  1  'x, y, z'
loop_
 _atom_site_type_symbol
 _atom_site_label
 _atom_site_symmetry_multiplicity
 _atom_site_fract_x
 _atom_site_fract_y
 _atom_site_fract_z
 _atom_site_occupancy
 _atom_site_pbe_bader_spin_density
 _atom_site_pbe_cm5_charge
 _atom_site_pbe_ddec_charge
 _atom_site_pbe_ddec_spin_density
 _atom_site_pbe_ddec_sum_bond_order
 _atom_site_pbe_magmom
La  La0  1  0.25003366  0.99303009  0.01385206  1  0  1.402374  1.933611  0  2.322301  0
La  La1  1  0.74996799  0.00697402  0.98614565  1  0  1.402399  1.933644  0  2.322239  0
Zn  Zn2  1  0.25000800  0.83177617  0.33645807  1  0  0.678508  0.779518  0  2.301752  0
Zn  Zn3  1  0.74999208  0.16822076  0.66354201  1  0  0.678506  0.779542  0  2.301724  0
H  H4  1  0.69758451  0.20994936  0.19299654  1  0  0.126483  0.132959  0  0.986909  0
H  H5  1  0.19746823  0.40316958  0.80697493  1  0  0.125884  0.131108  0  0.988982  0
H  H6  1  0.30241812  0.79005060  0.80700292  1  0  0.126477  0.13297  0  0.986908  0
H  H7  1  0.80253037  0.59683088  0.19302524  1  0  0.125871  0.131081  0  0.988997  0
H  H8  1  0.64432550  0.38354189  0.07205349  1  0  0.129826  0.141417  0  0.965479  0
H  H9  1  0.14418975  0.45574522  0.92793179  1  0  0.130029  0.141109  0  0.966899  0
H  H10  1  0.35567595  0.61645665  0.92794741  1  0  0.129817  0.141399  0  0.965468  0
H  H11  1  0.85581051  0.54425421  0.07206821  1  0  0.130036  0.141115  0  0.966877  0
H  H12  1  0.07899625  0.68490753  0.49858028  1  0  0.28579  0.243412  0  1.030578  0
H  H13  1  0.57906443  0.18339858  0.50145609  1  0  0.286141  0.243202  0  1.031267  0
H  H14  1  0.92100185  0.31509385  0.50142017  1  0  0.285777  0.243422  0  1.030526  0
H  H15  1  0.42093869  0.81660046  0.49854308  1  0  0.286143  0.243147  0  1.03134  0
H  H16  1  0.20762451  0.42165846  0.43473325  1  0  0.105315  0.095978  0  1.00887  0
H  H17  1  0.70772046  0.85622024  0.56545054  1  0  0.105066  0.095901  0  1.007547  0
H  H18  1  0.79237310  0.57834307  0.56526826  1  0  0.105308  0.095983  0  1.008836  0
H  H19  1  0.29228080  0.14377812  0.43454811  1  0  0.105058  0.095889  0  1.007571  0
H  H20  1  0.85465600  0.33221690  0.25914053  1  0  0.30643  0.267372  0  0.971315  0
H  H21  1  0.35475043  0.59147711  0.74093345  1  0  0.306331  0.267657  0  0.97058  0
H  H22  1  0.14534378  0.66778344  0.74085975  1  0  0.306437  0.267355  0  0.971325  0
H  H23  1  0.64524934  0.40852246  0.25906761  1  0  0.306309  0.26762  0  0.97064  0
H  H24  1  0.87335264  0.79491913  0.37365515  1  0  0.116899  0.107658  0  1.010027  0
H  H25  1  0.37342197  0.16845679  0.62644933  1  0  0.11703  0.107764  0  1.01073  0
H  H26  1  0.12664546  0.20508302  0.62634453  1  0  0.116909  0.107672  0  1.010006  0
H  H27  1  0.62658116  0.83154302  0.37354907  1  0  0.117016  0.107737  0  1.010759  0
H  H28  1  0.29566033  0.45195998  0.53732087  1  0  0.116333  0.120046  0  0.99334  0
H  H29  1  0.79572445  0.98915397  0.46277088  1  0  0.116093  0.119399  0  0.994097  0
H  H30  1  0.70433590  0.54803840  0.46268138  1  0  0.116348  0.12007  0  0.993349  0
H  H31  1  0.20427749  0.01084442  0.53722895  1  0  0.1161  0.119428  0  0.994064  0
H  H32  1  0.95874815  0.59876306  0.36516140  1  0  0.110098  0.106383  0  0.994121  0
H  H33  1  0.45872783  0.96382760  0.63491453  1  0  0.110342  0.107109  0  0.992971  0
H  H34  1  0.04125280  0.40123794  0.63483823  1  0  0.110105  0.1064  0  0.994112  0
H  H35  1  0.54127412  0.03617156  0.36508453  1  0  0.110356  0.107154  0  0.992944  0
C  C36  1  0.01523019  0.78077158  0.22741515  1  0  0.237539  0.655327  0  4.097194  0
C  C37  1  0.51532287  0.00798890  0.77266904  1  0  0.237053  0.656385  0  4.092443  0
C  C38  1  0.98476977  0.21923049  0.77258583  1  0  0.237471  0.655211  0  4.097461  0
C  C39  1  0.48467907  0.99200872  0.22733156  1  0  0.237083  0.656391  0  4.092469  0
C  C40  1  0.98844080  0.70427218  0.35259848  1  0  -0.06907  -0.188698  0  3.896464  0
C  C41  1  0.48847293  0.05673512  0.64749683  1  0  -0.069829  -0.190573  0  3.897141  0
C  C42  1  0.01155966  0.29572974  0.64740143  1  0  -0.069078  -0.188711  0  3.896378  0
C  C43  1  0.51152970  0.94326483  0.35250263  1  0  -0.069823  -0.190598  0  3.897121  0
C  C44  1  0.42372840  0.49102976  0.38254081  1  0  0.208979  0.607216  0  4.156038  0
C  C45  1  0.92381337  0.87357882  0.61746349  1  0  0.209328  0.60732  0  4.160776  0
C  C46  1  0.57627354  0.50896786  0.61745980  1  0  0.209023  0.607238  0  4.155992  0
C  C47  1  0.07618876  0.12642129  0.38253704  1  0  0.209324  0.607343  0  4.16064  0
C  C48  1  0.25775908  0.50103785  0.44895447  1  0  -0.076752  -0.198213  0  3.909076  0
C  C49  1  0.75781829  0.94988925  0.55114228  1  0  -0.076116  -0.196349  0  3.907331  0
C  C50  1  0.74224020  0.49896264  0.55104688  1  0  -0.076712  -0.198179  0  3.909144  0
C  C51  1  0.24218365  0.05010913  0.44885755  1  0  -0.076149  -0.196423  0  3.907306  0
C  C52  1  0.91022113  0.22473529  0.08670522  1  0  0.222051  0.637087  0  4.157474  0
C  C53  1  0.41014720  0.31154236  0.91324976  1  0  0.222172  0.636961  0  4.157551  0
C  C54  1  0.08977560  0.77526526  0.91329364  1  0  0.222073  0.636996  0  4.157682  0
C  C55  1  0.58984668  0.68845857  0.08674991  1  0  0.222114  0.63687  0  4.157693  0
C  C56  1  0.74148941  0.30487965  0.13780782  1  0  -0.054156  -0.192361  0  3.789775  0
C  C57  1  0.24139851  0.44281513  0.86218938  1  0  -0.053341  -0.188938  0  3.790363  0
C  C58  1  0.25850918  0.69512158  0.86219156  1  0  -0.054152  -0.19238  0  3.789868  0
C  C59  1  0.75860077  0.55718690  0.13781041  1  0  -0.053282  -0.188832  0  3.790234  0
N  N60  1  0.12801164  0.66526568  0.42473891  1  0  -0.485328  -0.293523  0  3.540634  0
N  N61  1  0.62805278  0.08990890  0.57531488  1  0  -0.485421  -0.293688  0  3.542749  0
N  N62  1  0.87198645  0.33473570  0.57526153  1  0  -0.485326  -0.293567  0  3.540671  0
N  N63  1  0.37194916  0.91008948  0.42468496  1  0  -0.485389  -0.293575  0  3.54272  0
N  N64  1  0.75000766  0.39830617  0.20323217  1  0  -0.475377  -0.166144  0  3.594948  0
N  N65  1  0.24999162  0.60169510  0.79676840  1  0  -0.475366  -0.166089  0  3.594987  0
O  O66  1  0.13519402  0.83429591  0.19863207  1  0  -0.340893  -0.580477  0  2.377332  0
O  O67  1  0.63522172  0.03285230  0.80138674  1  0  -0.340804  -0.580676  0  2.375785  0
O  O68  1  0.86480830  0.16570515  0.80136992  1  0  -0.340865  -0.580443  0  2.377394  0
O  O69  1  0.36477954  0.96714605  0.19861191  1  0  -0.340867  -0.580724  0  2.375852  0
O  O70  1  0.91193719  0.79018279  0.16338619  1  0  -0.348809  -0.592919  0  2.267607  0
O  O71  1  0.41212719  0.95318238  0.83674354  1  0  -0.348112  -0.592939  0  2.265895  0
O  O72  1  0.08806109  0.20982031  0.83661495  1  0  -0.3488  -0.59285  0  2.267709  0
O  O73  1  0.58787072  0.04681805  0.16325544  1  0  -0.348109  -0.592937  0  2.265937  0
O  O74  1  0.46239023  0.61451626  0.34527374  1  0  -0.317105  -0.54064  0  2.257183  0
O  O75  1  0.96242677  0.95982101  0.65470213  1  0  -0.317147  -0.540836  0  2.260939  0
O  O76  1  0.53760954  0.38548331  0.65472732  1  0  -0.317112  -0.540654  0  2.257184  0
O  O77  1  0.03757586  0.04017741  0.34529889  1  0  -0.317134  -0.54082  0  2.260834  0
O  O78  1  0.51727803  0.35588108  0.37249885  1  0  -0.325397  -0.551873  0  2.159093  0
O  O79  1  0.01738653  0.72839268  0.62751925  1  0  -0.325731  -0.552556  0  2.161888  0
O  O80  1  0.48272391  0.64411730  0.62750098  1  0  -0.325439  -0.551889  0  2.159001  0
O  O81  1  0.98261020  0.27160787  0.37247961  1  0  -0.325742  -0.55259  0  2.161846  0
O  O82  1  0.04215728  0.25083944  0.08644008  1  0  -0.321761  -0.560476  0  2.109324  0
O  O83  1  0.54200850  0.33744677  0.91360052  1  0  -0.32105  -0.560067  0  2.108652  0
O  O84  1  0.95783796  0.74916078  0.91356274  1  0  -0.321793  -0.560454  0  2.109374  0
O  O85  1  0.45798774  0.66255547  0.08639785  1  0  -0.321019  -0.560018  0  2.108763  0
O  O86  1  0.90837498  0.12403003  0.04489956  1  0  -0.429843  -0.690019  0  2.409662  0
O  O87  1  0.40832139  0.16898944  0.95495024  1  0  -0.430078  -0.689982  0  2.410438  0
O  O88  1  0.09162460  0.87596859  0.95510003  1  0  -0.429823  -0.68994  0  2.409707  0
O  O89  1  0.59167671  0.83101194  0.04505021  1  0  -0.430056  -0.689955  0  2.410365  0
