# generated using pymatgen
data_HgH8C6(SN3)2
_symmetry_space_group_name_H-M   'P 1'
_cell_length_a   8.22355513
_cell_length_b   10.06315252
_cell_length_c   13.27337004
_cell_angle_alpha   90.00016364
_cell_angle_beta   89.99993344
_cell_angle_gamma   90.00001564
_symmetry_Int_Tables_number   1
_chemical_formula_structural   HgH8C6(SN3)2
_chemical_formula_sum   'Hg4 H32 C24 S8 N24'
_cell_volume   1098.43627143
_cell_formula_units_Z   4
loop_
 _symmetry_equiv_pos_site_id
 _symmetry_equiv_pos_as_xyz
  1  'x, y, z'
loop_
 _atom_site_type_symbol
 _atom_site_label
 _atom_site_symmetry_multiplicity
 _atom_site_fract_x
 _atom_site_fract_y
 _atom_site_fract_z
 _atom_site_occupancy
 _atom_site_hle17_bader_spin_density
 _atom_site_hle17_ddec_charge
 _atom_site_hle17_ddec_spin_density
 _atom_site_hle17_ddec_sum_bond_order
 _atom_site_hle17_magmom
 _atom_site_hse06_10hf_bader_spin_density
 _atom_site_hse06_10hf_ddec_charge
 _atom_site_hse06_10hf_ddec_spin_density
 _atom_site_hse06_10hf_ddec_sum_bond_order
 _atom_site_hse06_10hf_magmom
 _atom_site_hse06_bader_spin_density
 _atom_site_hse06_ddec_charge
 _atom_site_hse06_ddec_spin_density
 _atom_site_hse06_ddec_sum_bond_order
 _atom_site_hse06_magmom
 _atom_site_pbe_bader_spin_density
 _atom_site_pbe_cm5_charge
 _atom_site_pbe_ddec_charge
 _atom_site_pbe_ddec_spin_density
 _atom_site_pbe_ddec_sum_bond_order
 _atom_site_pbe_magmom
Hg  Hg0  1  0.75000007  0.57245782  0.50000072  1  0  0.603126  0  2.178144  0  0  0.444476  0  2.681914  0  0  0.485525  0  2.655742  0  0  0.487357  0.4174  0  2.699435  0
Hg  Hg1  1  0.24999909  0.92754534  0.00000016  1  0  0.603065  0  2.178133  0  0  0.44441  0  2.681892  0  0  0.485454  0  2.655728  0  0  0.487329  0.417332  0  2.699414  0
Hg  Hg2  1  0.25000097  0.42754194  0.50000075  1  0  0.603099  0  2.178095  0  0  0.444446  0  2.681861  0  0  0.485491  0  2.655692  0  0  0.487349  0.417368  0  2.699383  0
Hg  Hg3  1  0.75000046  0.07245849  0.00000056  1  0  0.6031  0  2.178155  0  0  0.444448  0  2.681919  0  0  0.485495  0  2.655752  0  0  0.487359  0.417369  0  2.699441  0
H  H4  1  0.63423969  0.31401631  0.70139245  1  0  0.108296  0  0.967615  0  0  0.122344  0  1.040954  0  0  0.124058  0  1.040138  0  0  0.09537  0.121137  0  1.041454  0
H  H5  1  0.13424901  0.18598201  0.79861196  1  0  0.108312  0  0.967618  0  0  0.122376  0  1.040911  0  0  0.124087  0  1.040098  0  0  0.095394  0.121169  0  1.041408  0
H  H6  1  0.86576159  0.31401756  0.29860844  1  0  0.108291  0  0.96762  0  0  0.122343  0  1.040937  0  0  0.124052  0  1.040128  0  0  0.095388  0.121137  0  1.041433  0
H  H7  1  0.36575406  0.18598488  0.20138826  1  0  0.108257  0  0.967544  0  0  0.122339  0  1.040859  0  0  0.124049  0  1.040047  0  0  0.095358  0.121132  0  1.041359  0
H  H8  1  0.36575892  0.68598146  0.29860903  1  0  0.108289  0  0.967633  0  0  0.12234  0  1.040947  0  0  0.124054  0  1.04013  0  0  0.095367  0.121133  0  1.041442  0
H  H9  1  0.86574960  0.81401378  0.20138725  1  0  0.108324  0  0.967505  0  0  0.122378  0  1.040832  0  0  0.12409  0  1.040018  0  0  0.095388  0.121171  0  1.04133  0
H  H10  1  0.13424067  0.68598517  0.70139152  1  0  0.108286  0  0.967641  0  0  0.122336  0  1.040965  0  0  0.124045  0  1.040156  0  0  0.09539  0.121129  0  1.041461  0
H  H11  1  0.63424941  0.81401487  0.79861321  1  0  0.108278  0  0.967525  0  0  0.122359  0  1.040833  0  0  0.124071  0  1.040017  0  0  0.095371  0.121151  0  1.041332  0
H  H12  1  0.66410870  0.14551154  0.74322865  1  0  0.103566  0  0.974062  0  0  0.119912  0  1.044771  0  0  0.12044  0  1.045095  0  0  0.092922  0.119455  0  1.044598  0
H  H13  1  0.16411086  0.35448479  0.75677347  1  0  0.103508  0  0.974101  0  0  0.119751  0  1.044929  0  0  0.120275  0  1.045261  0  0  0.09286  0.119295  0  1.044752  0
H  H14  1  0.83589252  0.14551263  0.25677263  1  0  0.103502  0  0.974037  0  0  0.119831  0  1.04478  0  0  0.120355  0  1.045112  0  0  0.092908  0.119374  0  1.044604  0
H  H15  1  0.33588863  0.35448881  0.24322636  1  0  0.103581  0  0.974058  0  0  0.119908  0  1.044786  0  0  0.12043  0  1.045121  0  0  0.092924  0.11945  0  1.044613  0
H  H16  1  0.33589235  0.85448623  0.25677207  1  0  0.103534  0  0.97404  0  0  0.119845  0  1.044794  0  0  0.120374  0  1.045117  0  0  0.092903  0.119389  0  1.044617  0
H  H17  1  0.83588289  0.64551000  0.24322348  1  0  0.103622  0  0.974052  0  0  0.119894  0  1.044825  0  0  0.120416  0  1.04516  0  0  0.092904  0.119437  0  1.04465  0
H  H18  1  0.16411217  0.85449011  0.74322659  1  0  0.103485  0  0.973999  0  0  0.119834  0  1.044724  0  0  0.120359  0  1.045053  0  0  0.09291  0.119377  0  1.044548  0
H  H19  1  0.66411485  0.64550995  0.75677511  1  0  0.103578  0  0.974029  0  0  0.119864  0  1.044806  0  0  0.120386  0  1.045141  0  0  0.092885  0.119406  0  1.044632  0
H  H20  1  0.56904166  0.17757879  0.62448344  1  0  0.111326  0  0.945031  0  0  0.131285  0  1.006294  0  0  0.1315  0  1.007304  0  0  0.105412  0.131147  0  1.005538  0
H  H21  1  0.06903872  0.32241752  0.87551799  1  0  0.11135  0  0.944995  0  0  0.131307  0  1.006238  0  0  0.131522  0  1.007243  0  0  0.105427  0.131143  0  1.005509  0
H  H22  1  0.93095957  0.17758035  0.37551715  1  0  0.111344  0  0.944959  0  0  0.131299  0  1.006218  0  0  0.131521  0  1.007217  0  0  0.105438  0.131134  0  1.005489  0
H  H23  1  0.43095953  0.32242111  0.12448177  1  0  0.11139  0  0.944899  0  0  0.131335  0  1.006188  0  0  0.13155  0  1.007193  0  0  0.105421  0.131196  0  1.005433  0
H  H24  1  0.43095817  0.82241898  0.37551803  1  0  0.11134  0  0.945018  0  0  0.131301  0  1.006259  0  0  0.131521  0  1.00726  0  0  0.105428  0.131136  0  1.00553  0
H  H25  1  0.93095503  0.67757727  0.12447971  1  0  0.11136  0  0.945007  0  0  0.131346  0  1.006219  0  0  0.13156  0  1.007225  0  0  0.105431  0.13119  0  1.005481  0
H  H26  1  0.06904147  0.82242239  0.62448206  1  0  0.111343  0  0.944937  0  0  0.131279  0  1.006217  0  0  0.131497  0  1.007221  0  0  0.105428  0.131115  0  1.005488  0
H  H27  1  0.56904273  0.67757765  0.87551895  1  0  0.111345  0  0.944988  0  0  0.13133  0  1.006215  0  0  0.131546  0  1.00722  0  0  0.105428  0.131188  0  1.005463  0
H  H28  1  0.84759516  0.00443420  0.58732605  1  0  0.106436  0  0.955858  0  0  0.105408  0  1.036987  0  0  0.109305  0  1.032147  0  0  0.133912  0.102843  0  1.039913  0
H  H29  1  0.34759829  0.49556813  0.91268121  1  0  0.106441  0  0.955807  0  0  0.1054  0  1.036954  0  0  0.109299  0  1.032111  0  0  0.133908  0.102835  0  1.039881  0
H  H30  1  0.65240602  0.00443485  0.41267417  1  0  0.106425  0  0.95589  0  0  0.1054  0  1.037  0  0  0.109299  0  1.032157  0  0  0.133916  0.102835  0  1.039925  0
H  H31  1  0.15240003  0.49556954  0.08731892  1  0  0.106456  0  0.955716  0  0  0.10538  0  1.036907  0  0  0.109277  0  1.032067  0  0  0.133907  0.102815  0  1.039833  0
H  H32  1  0.15240589  0.99556555  0.41267467  1  0  0.106416  0  0.955875  0  0  0.105392  0  1.036996  0  0  0.10929  0  1.032155  0  0  0.133912  0.102827  0  1.039921  0
H  H33  1  0.65239181  0.50443063  0.08731574  1  0  0.106443  0  0.955714  0  0  0.105394  0  1.036904  0  0  0.10929  0  1.032067  0  0  0.133896  0.102827  0  1.039834  0
H  H34  1  0.34759624  0.99556590  0.58732128  1  0  0.106432  0  0.955821  0  0  0.105402  0  1.036954  0  0  0.109302  0  1.032109  0  0  0.133887  0.102836  0  1.039885  0
H  H35  1  0.84760223  0.50443121  0.91268104  1  0  0.106444  0  0.955774  0  0  0.105388  0  1.036944  0  0  0.109285  0  1.032104  0  0  0.133908  0.102824  0  1.039869  0
C  C36  1  0.66150892  0.21205021  0.67787531  1  0  -0.160761  0  3.606063  0  0  -0.26083  0  3.843465  0  0  -0.257409  0  3.852235  0  0  -0.138537  -0.263077  0  3.837606  0
C  C37  1  0.16150972  0.28794910  0.82212756  1  0  -0.160785  0  3.605903  0  0  -0.260756  0  3.843284  0  0  -0.257337  0  3.852066  0  0  -0.13854  -0.262981  0  3.837442  0
C  C38  1  0.83849232  0.21205154  0.32212535  1  0  -0.160696  0  3.605928  0  0  -0.26073  0  3.843298  0  0  -0.257313  0  3.852068  0  0  -0.138566  -0.262955  0  3.837458  0
C  C39  1  0.33849096  0.28795387  0.17787212  1  0  -0.160794  0  3.605739  0  0  -0.26087  0  3.843196  0  0  -0.257445  0  3.851966  0  0  -0.138535  -0.263116  0  3.837338  0
C  C40  1  0.33849091  0.78794756  0.32212540  1  0  -0.16074  0  3.606049  0  0  -0.26075  0  3.84337  0  0  -0.25734  0  3.852147  0  0  -0.138532  -0.262974  0  3.837528  0
C  C41  1  0.83848768  0.71204668  0.17787165  1  0  -0.160784  0  3.605837  0  0  -0.260811  0  3.843238  0  0  -0.25739  0  3.852014  0  0  -0.138521  -0.263043  0  3.837393  0
C  C42  1  0.16150872  0.78795020  0.67787386  1  0  -0.160714  0  3.605884  0  0  -0.260749  0  3.843259  0  0  -0.257327  0  3.852029  0  0  -0.138583  -0.262972  0  3.837416  0
C  C43  1  0.66151131  0.71204588  0.82212859  1  0  -0.160731  0  3.60573  0  0  -0.260792  0  3.843139  0  0  -0.25737  0  3.851909  0  0  -0.138497  -0.263035  0  3.837283  0
C  C44  1  0.92163008  0.31862010  0.61349530  1  0  0.261728  0  3.815497  0  0  0.23033  0  4.095644  0  0  0.247067  0  4.111595  0  0  0.198926  0.219171  0  4.084561  0
C  C45  1  0.42163315  0.18138225  0.88650739  1  0  0.261767  0  3.815387  0  0  0.230326  0  4.095604  0  0  0.247064  0  4.111557  0  0  0.198935  0.219168  0  4.084522  0
C  C46  1  0.57837120  0.31862162  0.38650484  1  0  0.261712  0  3.815498  0  0  0.230289  0  4.095681  0  0  0.247026  0  4.111635  0  0  0.198903  0.219132  0  4.084599  0
C  C47  1  0.07836749  0.18138573  0.11349282  1  0  0.26186  0  3.815326  0  0  0.230411  0  4.095559  0  0  0.247148  0  4.11151  0  0  0.198976  0.219252  0  4.084478  0
C  C48  1  0.07836975  0.68137966  0.38650542  1  0  0.26172  0  3.815457  0  0  0.230312  0  4.095626  0  0  0.247049  0  4.111576  0  0  0.198895  0.219155  0  4.084542  0
C  C49  1  0.57836789  0.81861651  0.11349333  1  0  0.261782  0  3.815401  0  0  0.230346  0  4.0956  0  0  0.247086  0  4.111543  0  0  0.198916  0.219189  0  4.084518  0
C  C50  1  0.42163106  0.68137913  0.61349512  1  0  0.261735  0  3.815526  0  0  0.230318  0  4.095703  0  0  0.247058  0  4.111654  0  0  0.198927  0.21916  0  4.08462  0
C  C51  1  0.92163234  0.81861403  0.88650790  1  0  0.261874  0  3.815307  0  0  0.230407  0  4.095561  0  0  0.247146  0  4.111504  0  0  0.198958  0.21925  0  4.084477  0
C  C52  1  0.89876647  0.10379870  0.58986656  1  0  0.134857  0  3.675307  0  0  0.075637  0  3.958145  0  0  0.086562  0  3.970184  0  0  0.144853  0.068469  0  3.949489  0
C  C53  1  0.39876714  0.39620265  0.91013614  1  0  0.134765  0  3.675174  0  0  0.075567  0  3.958021  0  0  0.086494  0  3.970058  0  0  0.144813  0.068399  0  3.949366  0
C  C54  1  0.60123595  0.10379833  0.41013312  1  0  0.134911  0  3.675229  0  0  0.075699  0  3.958074  0  0  0.086625  0  3.970114  0  0  0.144865  0.068529  0  3.949422  0
C  C55  1  0.10123114  0.39620505  0.08986453  1  0  0.134837  0  3.675128  0  0  0.075674  0  3.957966  0  0  0.086598  0  3.970003  0  0  0.14485  0.068505  0  3.949312  0
C  C56  1  0.10123701  0.89620205  0.41013415  1  0  0.134897  0  3.675216  0  0  0.07568  0  3.958051  0  0  0.086606  0  3.970089  0  0  0.144833  0.068511  0  3.949397  0
C  C57  1  0.60122904  0.60380009  0.08986382  1  0  0.134876  0  3.675201  0  0  0.075661  0  3.958033  0  0  0.086586  0  3.970074  0  0  0.144865  0.068493  0  3.949379  0
C  C58  1  0.39876631  0.89620441  0.58986233  1  0  0.134883  0  3.675179  0  0  0.07567  0  3.958016  0  0  0.086596  0  3.970053  0  0  0.144935  0.068502  0  3.949361  0
C  C59  1  0.89876991  0.60379670  0.91013694  1  0  0.134758  0  3.675091  0  0  0.075566  0  3.957942  0  0  0.086492  0  3.969979  0  0  0.144796  0.068397  0  3.949287  0
S  S60  1  0.88790256  0.48016000  0.65171035  1  0  -0.370553  0  2.197485  0  0  -0.339314  0  2.572207  0  0  -0.354784  0  2.564691  0  0  -0.169795  -0.328687  0  2.576647  0
S  S61  1  0.38790201  0.01984632  0.84829010  1  0  -0.370561  0  2.197459  0  0  -0.339325  0  2.572237  0  0  -0.354796  0  2.564725  0  0  -0.169803  -0.328697  0  2.576679  0
S  S62  1  0.61209877  0.48016039  0.34829014  1  0  -0.370593  0  2.197543  0  0  -0.339353  0  2.572281  0  0  -0.354821  0  2.564764  0  0  -0.169818  -0.328726  0  2.576722  0
S  S63  1  0.11209980  0.01984796  0.15170976  1  0  -0.370616  0  2.197416  0  0  -0.339386  0  2.572214  0  0  -0.354853  0  2.564698  0  0  -0.169831  -0.328757  0  2.576656  0
S  S64  1  0.11209727  0.51983975  0.34829037  1  0  -0.370599  0  2.19749  0  0  -0.33937  0  2.572235  0  0  -0.354838  0  2.564716  0  0  -0.169813  -0.328743  0  2.576677  0
S  S65  1  0.61209904  0.98015543  0.15171137  1  0  -0.37056  0  2.197409  0  0  -0.33932  0  2.57216  0  0  -0.354788  0  2.564648  0  0  -0.169813  -0.328691  0  2.576602  0
S  S66  1  0.38790106  0.51984036  0.65171133  1  0  -0.370539  0  2.197439  0  0  -0.339296  0  2.572177  0  0  -0.354765  0  2.564659  0  0  -0.169797  -0.328669  0  2.576617  0
S  S67  1  0.88790246  0.98015180  0.84829247  1  0  -0.370647  0  2.19748  0  0  -0.339421  0  2.572306  0  0  -0.354892  0  2.564789  0  0  -0.169833  -0.328793  0  2.576748  0
N  N68  1  0.82010461  0.21163674  0.62921994  1  0  -0.081407  0  3.51934  0  0  0.021216  0  3.732803  0  0  0.004312  0  3.757279  0  0  -0.238576  0.032404  0  3.716125  0
N  N69  1  0.32010653  0.28836757  0.87078207  1  0  -0.081274  0  3.519076  0  0  0.021333  0  3.732526  0  0  0.004429  0  3.756999  0  0  -0.238516  0.032523  0  3.715839  0
N  N70  1  0.67989663  0.21163823  0.37078073  1  0  -0.081406  0  3.519243  0  0  0.021209  0  3.732704  0  0  0.004305  0  3.757181  0  0  -0.238581  0.032399  0  3.716019  0
N  N71  1  0.17989414  0.28836715  0.12921837  1  0  -0.081407  0  3.519172  0  0  0.021217  0  3.732657  0  0  0.004314  0  3.757127  0  0  -0.238561  0.032404  0  3.71598  0
N  N72  1  0.17989522  0.78836301  0.37078153  1  0  -0.081372  0  3.51935  0  0  0.021234  0  3.732798  0  0  0.004328  0  3.757277  0  0  -0.238544  0.032421  0  3.716112  0
N  N73  1  0.67988843  0.71163218  0.12921639  1  0  -0.081479  0  3.519371  0  0  0.021147  0  3.732833  0  0  0.004245  0  3.757306  0  0  -0.238529  0.032336  0  3.71615  0
N  N74  1  0.32010320  0.78836153  0.62921849  1  0  -0.081346  0  3.519055  0  0  0.021262  0  3.732513  0  0  0.004356  0  3.756989  0  0  -0.238578  0.032452  0  3.715826  0
N  N75  1  0.82010812  0.71163161  0.87078310  1  0  -0.081391  0  3.519121  0  0  0.021232  0  3.732606  0  0  0.004331  0  3.757076  0  0  -0.238528  0.032419  0  3.715928  0
N  N76  1  0.05525299  0.27313516  0.56724507  1  0  -0.283218  0  3.178283  0  0  -0.216809  0  3.466958  0  0  -0.234927  0  3.484463  0  0  -0.236156  -0.204924  0  3.454998  0
N  N77  1  0.55525416  0.22687009  0.93275789  1  0  -0.283236  0  3.178342  0  0  -0.216799  0  3.467013  0  0  -0.234916  0  3.484521  0  0  -0.23616  -0.204914  0  3.455056  0
N  N78  1  0.44474890  0.27313495  0.43275534  1  0  -0.283241  0  3.17828  0  0  -0.216826  0  3.466963  0  0  -0.234944  0  3.48447  0  0  -0.236166  -0.204941  0  3.455005  0
N  N79  1  0.94474588  0.22687049  0.06724206  1  0  -0.283235  0  3.178291  0  0  -0.216801  0  3.46698  0  0  -0.234919  0  3.484485  0  0  -0.236166  -0.204915  0  3.45502  0
N  N80  1  0.94474684  0.72686559  0.43275565  1  0  -0.283279  0  3.178292  0  0  -0.216876  0  3.466984  0  0  -0.234993  0  3.484488  0  0  -0.236189  -0.204991  0  3.455024  0
N  N81  1  0.44474446  0.77313265  0.06724208  1  0  -0.283217  0  3.178195  0  0  -0.216783  0  3.466852  0  0  -0.234898  0  3.48436  0  0  -0.236164  -0.204898  0  3.454894  0
N  N82  1  0.55525215  0.72686580  0.56724387  1  0  -0.283333  0  3.178462  0  0  -0.216926  0  3.467165  0  0  -0.235045  0  3.484669  0  0  -0.23621  -0.20504  0  3.455206  0
N  N83  1  0.05525638  0.77313026  0.93275941  1  0  -0.283249  0  3.178196  0  0  -0.216805  0  3.46688  0  0  -0.234922  0  3.484386  0  0  -0.236178  -0.20492  0  3.45492  0
N  N84  1  0.04115567  0.13872994  0.55198655  1  0  -0.231809  0  2.968322  0  0  -0.211378  0  3.256303  0  0  -0.218845  0  3.270894  0  0  -0.231994  -0.206598  0  3.24589  0
N  N85  1  0.54115929  0.36127531  0.94801641  1  0  -0.231844  0  2.968208  0  0  -0.211407  0  3.256168  0  0  -0.218876  0  3.270758  0  0  -0.231988  -0.206627  0  3.24576  0
N  N86  1  0.45884495  0.13872979  0.44801432  1  0  -0.231823  0  2.968249  0  0  -0.211396  0  3.256222  0  0  -0.218864  0  3.270813  0  0  -0.23197  -0.206616  0  3.245815  0
N  N87  1  0.95884201  0.36127566  0.05198458  1  0  -0.231869  0  2.9683  0  0  -0.211432  0  3.256249  0  0  -0.218897  0  3.270836  0  0  -0.232019  -0.206651  0  3.245837  0
N  N88  1  0.95884415  0.86127081  0.44801416  1  0  -0.231787  0  2.968209  0  0  -0.21135  0  3.256175  0  0  -0.218819  0  3.270765  0  0  -0.231944  -0.206569  0  3.245762  0
N  N89  1  0.45883933  0.63872842  0.05198356  1  0  -0.231872  0  2.968152  0  0  -0.211441  0  3.256117  0  0  -0.21891  0  3.270706  0  0  -0.232031  -0.206661  0  3.245708  0
N  N90  1  0.54115123  0.86127096  0.55198414  1  0  -0.231771  0  2.968461  0  0  -0.211338  0  3.256429  0  0  -0.218805  0  3.271018  0  0  -0.231979  -0.206558  0  3.246017  0
N  N91  1  0.04116147  0.63872608  0.94801689  1  0  -0.231813  0  2.968098  0  0  -0.211381  0  3.256056  0  0  -0.218848  0  3.270645  0  0  -0.231996  -0.206601  0  3.245645  0
