# generated using pymatgen
data_CoH10(C3N7)2
_symmetry_space_group_name_H-M   'P 1'
_cell_length_a   6.19650533
_cell_length_b   9.53571710
_cell_length_c   10.64539645
_cell_angle_alpha   94.14318793
_cell_angle_beta   88.85720407
_cell_angle_gamma   90.95937980
_symmetry_Int_Tables_number   1
_chemical_formula_structural   CoH10(C3N7)2
_chemical_formula_sum   'Co2 H20 C12 N28'
_cell_volume   627.17396696
_cell_formula_units_Z   2
loop_
 _symmetry_equiv_pos_site_id
 _symmetry_equiv_pos_as_xyz
  1  'x, y, z'
loop_
 _atom_site_type_symbol
 _atom_site_label
 _atom_site_symmetry_multiplicity
 _atom_site_fract_x
 _atom_site_fract_y
 _atom_site_fract_z
 _atom_site_occupancy
 _atom_site_pbe_cm5_charge
 _atom_site_pbe_ddec_charge
 _atom_site_pbe_ddec_spin_density
 _atom_site_pbe_ddec_sum_bond_order
 _atom_site_pbe_magmom
Co  Co0  1  0.00000108  0.49999820  0.50000139  1  0.665311  0.648021  2.488459  2.950255  2.221
Co  Co1  1  0.50000099  0.00000314  0.49999998  1  0.710472  0.566054  -0.680681  3.288881  -0.573
H  H2  1  0.47722426  0.49397963  0.64051775  1  0.147691  0.129136  -0.000288  1.031456  0.0
H  H3  1  0.97979722  0.00388336  0.36786913  1  0.15061  0.131842  0.000665  1.033831  0.0
H  H4  1  0.52277779  0.50601466  0.35948501  1  0.147713  0.129152  -0.000288  1.031441  0.0
H  H5  1  0.02020826  0.99612468  0.63213193  1  0.150618  0.131823  0.000665  1.033951  0.0
H  H6  1  0.56932198  0.73440432  0.94458024  1  0.115124  0.093155  0.000101  1.009589  0.0
H  H7  1  0.06149781  0.76833144  0.06165640  1  0.115731  0.094254  1.4e-05  1.00429  0.0
H  H8  1  0.43068326  0.26559097  0.05542540  1  0.11512  0.093131  0.000101  1.009596  0.0
H  H9  1  0.93848355  0.23167555  0.93833908  1  0.115727  0.094285  1.4e-05  1.004179  0.0
H  H10  1  0.72655590  0.65051156  0.81975114  1  0.114439  0.09502  -5.7e-05  1.04518  0.0
H  H11  1  0.21754818  0.85834139  0.18216250  1  0.115662  0.095933  7.8e-05  1.040148  0.0
H  H12  1  0.27344282  0.34947842  0.18025504  1  0.114423  0.094925  -5.7e-05  1.045245  0.0
H  H13  1  0.78243970  0.14165950  0.81782491  1  0.115658  0.095901  7.8e-05  1.04013  0.0
H  H14  1  0.74730392  0.51795317  0.00694652  1  0.095103  0.092813  -1e-06  0.989066  0.0
H  H15  1  0.24705823  0.98347159  0.99082943  1  0.095018  0.091983  2e-06  0.994478  0.0
H  H16  1  0.25269974  0.48203905  0.99305511  1  0.095121  0.092778  -1e-06  0.989114  0.0
H  H17  1  0.75293443  0.01653132  0.00916283  1  0.09502  0.091937  2e-06  0.994461  0.0
H  H18  1  0.61011011  0.41477273  0.88835730  1  0.094605  0.093835  -0.000121  1.003772  0.0
H  H19  1  0.10851893  0.08941174  0.10858995  1  0.095231  0.094214  0.000165  1.008375  0.0
H  H20  1  0.38988555  0.58522576  0.11164491  1  0.094584  0.093804  -0.000121  1.003826  0.0
H  H21  1  0.89147204  0.91059314  0.89140812  1  0.09527  0.094221  0.000165  1.008358  0.0
C  C22  1  0.35893331  0.55996536  0.69170337  1  0.18014  0.082489  -0.003832  3.830188  -0.003
C  C23  1  0.85574911  0.94272232  0.31705632  1  0.186802  0.084512  0.002479  3.798996  0.003
C  C24  1  0.64107520  0.44002999  0.30830038  1  0.180188  0.082486  -0.003832  3.830282  -0.003
C  C25  1  0.14424832  0.05727845  0.68293855  1  0.186812  0.084551  0.00248  3.799096  0.003
C  C26  1  0.58330469  0.63939213  0.88078638  1  -0.052117  -0.099919  0.000385  3.869213  0.0
C  C27  1  0.07626807  0.86563036  0.12250028  1  -0.048511  -0.093502  8.5e-05  3.8597  0.0
C  C28  1  0.41670051  0.36060207  0.11922105  1  -0.052065  -0.099745  0.000385  3.869032  0.0
C  C29  1  0.92374410  0.13437491  0.87748548  1  -0.048558  -0.093546  8.5e-05  3.859495  0.0
C  C30  1  0.59569800  0.50843790  0.95464162  1  -0.163954  -0.171328  -9.9e-05  3.948146  0.0
C  C31  1  0.09397219  0.99390094  0.04461701  1  -0.164171  -0.173403  0.000128  3.943517  0.0
C  C32  1  0.40430075  0.49155731  0.04536593  1  -0.163934  -0.171209  -9.9e-05  3.948214  0.0
C  C33  1  0.90603162  0.00610078  0.95538354  1  -0.164258  -0.173503  0.000128  3.943347  0.0
N  N34  1  0.76346399  0.64444606  0.52146655  1  -0.254619  -0.444184  0.002309  3.063167  0.001
N  N35  1  0.26314410  0.86401272  0.48075907  1  -0.262946  -0.429346  0.030232  3.137666  0.044
N  N36  1  0.23654140  0.35555046  0.47853168  1  -0.254595  -0.444047  0.002298  3.063435  0.001
N  N37  1  0.73685810  0.13599005  0.51924157  1  -0.262964  -0.429308  0.030233  3.137826  0.044
N  N38  1  0.72913857  0.75682389  0.57223048  1  0.081569  0.407499  -0.005648  4.465361  -0.009
N  N39  1  0.23961420  0.74891588  0.43166333  1  0.086451  0.409191  0.005724  4.460998  0.007
N  N40  1  0.27085884  0.24318202  0.42776951  1  0.081829  0.407648  -0.005653  4.465285  -0.009
N  N41  1  0.76038637  0.25107961  0.56833296  1  0.086464  0.409198  0.005725  4.460941  0.007
N  N42  1  0.68360526  0.86833730  0.62219858  1  -0.235179  -0.440473  0.027969  2.852125  0.042
N  N43  1  0.19519364  0.63579419  0.38526077  1  -0.234991  -0.441891  0.011661  2.905994  0.015
N  N44  1  0.31639372  0.13165926  0.37779687  1  -0.235498  -0.440812  0.027973  2.85192  0.042
N  N45  1  0.80481344  0.36420762  0.61473695  1  -0.234994  -0.441917  0.011666  2.905875  0.015
N  N46  1  0.15733978  0.58353517  0.65869282  1  -0.219953  -0.186559  0.023115  3.55195  0.035
N  N47  1  0.64968721  0.92310243  0.35158103  1  -0.228428  -0.140488  0.001342  3.616343  0.002
N  N48  1  0.84267039  0.41646025  0.34130811  1  -0.21995  -0.186457  0.023114  3.551816  0.035
N  N49  1  0.35031340  0.07690037  0.64841775  1  -0.228429  -0.140534  0.001341  3.616211  0.002
N  N50  1  0.07086319  0.67345429  0.75014199  1  -0.067882  -0.041163  -0.00332  3.245307  -0.005
N  N51  1  0.55600614  0.83913463  0.25862488  1  -0.060218  -0.035336  0.001516  3.230489  0.002
N  N52  1  0.92914374  0.32654110  0.24985989  1  -0.06793  -0.041324  -0.00332  3.245337  -0.005
N  N53  1  0.44398476  0.16087533  0.74138112  1  -0.060339  -0.035394  0.001517  3.230213  0.002
N  N54  1  0.21192840  0.70464489  0.83709987  1  -0.072362  -0.126541  0.000246  3.1315  0.001
N  N55  1  0.69700601  0.80774134  0.16964433  1  -0.066462  -0.118251  0.000607  3.131986  0.001
N  N56  1  0.78807042  0.29535041  0.16290393  1  -0.072297  -0.126459  0.000245  3.131499  0.001
N  N57  1  0.30298334  0.19226870  0.83035793  1  -0.066335  -0.118155  0.000606  3.131999  0.001
N  N58  1  0.39385739  0.63483529  0.80125657  1  -0.11695  0.168716  0.000656  3.708671  0.001
N  N59  1  0.88528434  0.87120129  0.20518864  1  -0.113308  0.170776  2e-06  3.702207  0.0
N  N60  1  0.60614461  0.36516202  0.19875207  1  -0.117045  0.168691  0.000656  3.708672  0.001
N  N61  1  0.11471957  0.12880784  0.79481064  1  -0.113266  0.170827  2e-06  3.702437  0.0
