# generated using pymatgen
data_ZnH18C22N3O5
_symmetry_space_group_name_H-M   'P 1'
_cell_length_a   8.68204635
_cell_length_b   10.76959227
_cell_length_c   12.45029216
_cell_angle_alpha   113.64092337
_cell_angle_beta   92.54445125
_cell_angle_gamma   112.30797646
_symmetry_Int_Tables_number   1
_chemical_formula_structural   ZnH18C22N3O5
_chemical_formula_sum   'Zn2 H36 C44 N6 O10'
_cell_volume   959.70063364
_cell_formula_units_Z   2
loop_
 _symmetry_equiv_pos_site_id
 _symmetry_equiv_pos_as_xyz
  1  'x, y, z'
loop_
 _atom_site_type_symbol
 _atom_site_label
 _atom_site_symmetry_multiplicity
 _atom_site_fract_x
 _atom_site_fract_y
 _atom_site_fract_z
 _atom_site_occupancy
 _atom_site_hle17_bader_spin_density
 _atom_site_hle17_ddec_charge
 _atom_site_hle17_ddec_spin_density
 _atom_site_hle17_ddec_sum_bond_order
 _atom_site_hle17_magmom
 _atom_site_hse06_10hf_bader_spin_density
 _atom_site_hse06_10hf_ddec_charge
 _atom_site_hse06_10hf_ddec_spin_density
 _atom_site_hse06_10hf_ddec_sum_bond_order
 _atom_site_hse06_10hf_magmom
 _atom_site_hse06_bader_spin_density
 _atom_site_hse06_ddec_charge
 _atom_site_hse06_ddec_spin_density
 _atom_site_hse06_ddec_sum_bond_order
 _atom_site_hse06_magmom
 _atom_site_pbe_bader_spin_density
 _atom_site_pbe_cm5_charge
 _atom_site_pbe_ddec_charge
 _atom_site_pbe_ddec_spin_density
 _atom_site_pbe_ddec_sum_bond_order
 _atom_site_pbe_magmom
Zn  Zn0  1  0.51375371  0.40165348  0.72382722  1  0  1.061566  0  1.763649  0  0  0.878963  0  2.224266  0  0  0.929016  0  2.166396  0  0  0.683308  0.843814  0  2.264093  0
Zn  Zn1  1  0.48624700  0.59834662  0.27617232  1  0  1.061578  0  1.763634  0  0  0.878968  0  2.224247  0  0  0.929021  0  2.166378  0  0  0.683317  0.843816  0  2.264072  0
H  H2  1  0.20267341  0.39615414  0.41473878  1  0  0.099971  0  0.956114  0  0  0.108981  0  1.021875  0  0  0.112752  0  1.018574  0  0  0.102611  0.106097  0  1.024672  0
H  H3  1  0.79732553  0.60384708  0.58526190  1  0  0.09997  0  0.956071  0  0  0.108964  0  1.021854  0  0  0.112747  0  1.018538  0  0  0.102612  0.10608  0  1.024652  0
H  H4  1  0.97989323  0.55926564  0.71161861  1  0  0.09815  0  0.951424  0  0  0.106513  0  1.016361  0  0  0.110109  0  1.01391  0  0  0.100676  0.103878  0  1.018267  0
H  H5  1  0.02010857  0.44073670  0.28838256  1  0  0.098145  0  0.9514  0  0  0.106526  0  1.016318  0  0  0.110105  0  1.013894  0  0  0.100692  0.103888  0  1.018223  0
H  H6  1  0.94728072  0.81135178  0.78785602  1  0  0.103124  0  0.959329  0  0  0.111507  0  1.023747  0  0  0.114754  0  1.022243  0  0  0.105222  0.109092  0  1.025109  0
H  H7  1  0.05271939  0.18864944  0.21214390  1  0  0.103118  0  0.959325  0  0  0.111495  0  1.023755  0  0  0.114743  0  1.022247  0  0  0.105214  0.109079  0  1.025115  0
H  H8  1  0.81016095  0.93104004  0.12948300  1  0  0.091416  0  0.984864  0  0  0.101045  0  1.048237  0  0  0.10461  0  1.04578  0  0  0.101075  0.098528  0  1.050025  0
H  H9  1  0.18983916  0.06896118  0.87051691  1  0  0.091419  0  0.984868  0  0  0.101048  0  1.048236  0  0  0.104614  0  1.045777  0  0  0.101068  0.098507  0  1.050051  0
H  H10  1  0.43829622  0.33349979  0.41522959  1  0  0.125753  0  0.944056  0  0  0.134346  0  1.005861  0  0  0.138117  0  1.002712  0  0  0.110607  0.131531  0  1.008316  0
H  H11  1  0.56170619  0.66650144  0.58477040  1  0  0.125762  0  0.944064  0  0  0.134351  0  1.005873  0  0  0.138122  0  1.002727  0  0  0.110609  0.131536  0  1.008329  0
H  H12  1  0.43137437  0.20281319  0.19769319  1  0  0.089754  0  0.984204  0  0  0.09989  0  1.044949  0  0  0.101699  0  1.045409  0  0  0.096558  0.098548  0  1.044759  0
H  H13  1  0.56862577  0.79718578  0.80230674  1  0  0.0898  0  0.984173  0  0  0.09993  0  1.044914  0  0  0.101738  0  1.045374  0  0  0.096586  0.098589  0  1.044722  0
H  H14  1  0.55656038  0.02078283  0.12300326  1  0  0.086333  0  0.946777  0  0  0.101205  0  0.999956  0  0  0.103498  0  0.999822  0  0  0.10021  0.099518  0  1.000154  0
H  H15  1  0.44343806  0.97921501  0.87699622  1  0  0.08633  0  0.946771  0  0  0.101191  0  0.999964  0  0  0.10349  0  0.99982  0  0  0.100198  0.099505  0  1.000163  0
H  H16  1  0.69344899  0.96167338  0.26592858  1  0  0.108387  0  0.970574  0  0  0.119754  0  1.031983  0  0  0.122503  0  1.030309  0  0  0.10404  0.117614  0  1.033496  0
H  H17  1  0.30654774  0.03832333  0.73407044  1  0  0.108383  0  0.970546  0  0  0.119761  0  1.031951  0  0  0.122498  0  1.030294  0  0  0.104036  0.117622  0  1.033468  0
H  H18  1  0.90868531  0.14334711  0.73383482  1  0  0.105724  0  0.967631  0  0  0.118973  0  1.023622  0  0  0.121904  0  1.022388  0  0  0.110973  0.116805  0  1.024683  0
H  H19  1  0.09131428  0.85665073  0.26616469  1  0  0.105741  0  0.967635  0  0  0.118986  0  1.02363  0  0  0.121918  0  1.022392  0  0  0.110974  0.116814  0  1.024689  0
H  H20  1  0.96134607  0.21264398  0.95045616  1  0  0.085433  0  0.993623  0  0  0.097406  0  1.050647  0  0  0.098519  0  1.051772  0  0  0.101987  0.096369  0  1.050223  0
H  H21  1  0.03865288  0.78735724  0.04954372  1  0  0.085412  0  0.993578  0  0  0.097385  0  1.050609  0  0  0.098498  0  1.051734  0  0  0.101975  0.096347  0  1.050186  0
H  H22  1  0.82304497  0.36604612  0.08432919  1  0  0.124718  0  0.962795  0  0  0.132411  0  1.021595  0  0  0.136626  0  1.019176  0  0  0.109901  0.129298  0  1.023548  0
H  H23  1  0.17695513  0.63395511  0.91567073  1  0  0.124723  0  0.962812  0  0  0.132417  0  1.021614  0  0  0.136631  0  1.019196  0  0  0.109905  0.129306  0  1.023568  0
H  H24  1  0.63492225  0.43800402  0.98867315  1  0  0.0903  0  0.968276  0  0  0.09711  0  1.033761  0  0  0.100066  0  1.03064  0  0  0.117542  0.094865  0  1.036145  0
H  H25  1  0.36507787  0.56199721  0.01132597  1  0  0.090294  0  0.968285  0  0  0.097064  0  1.033796  0  0  0.100044  0  1.030648  0  0  0.117534  0.094823  0  1.036182  0
H  H26  1  0.71089780  0.90619041  0.42112844  1  0  0.077526  0  0.948027  0  0  0.09179  0  1.017485  0  0  0.092587  0  1.016439  0  0  0.111866  0.091181  0  1.018121  0
H  H27  1  0.28910348  0.09380855  0.57887233  1  0  0.077505  0  0.948033  0  0  0.091804  0  1.017476  0  0  0.0926  0  1.016428  0  0  0.111868  0.091193  0  1.01811  0
H  H28  1  0.75132258  0.96854455  0.57756911  1  0  0.070778  0  0.955037  0  0  0.085421  0  1.019398  0  0  0.085528  0  1.020693  0  0  0.109996  0.085305  0  1.018466  0
H  H29  1  0.24867811  0.03145553  0.42243203  1  0  0.070755  0  0.955047  0  0  0.085402  0  1.019415  0  0  0.085508  0  1.020711  0  0  0.109989  0.085286  0  1.018484  0
H  H30  1  0.04739732  0.16042075  0.59774349  1  0  0.079736  0  0.96126  0  0  0.096262  0  1.02455  0  0  0.097019  0  1.025151  0  0  0.095025  0.095628  0  1.024293  0
H  H31  1  0.95260448  0.83958158  0.40225848  1  0  0.079685  0  0.961273  0  0  0.096234  0  1.024532  0  0  0.09699  0  1.025134  0  0  0.095004  0.0956  0  1.024273  0
H  H32  1  0.99871620  0.10153781  0.44127869  1  0  0.079065  0  0.91554  0  0  0.101696  0  0.967104  0  0  0.102043  0  0.968383  0  0  0.097366  0.101176  0  0.966722  0
H  H33  1  0.00128334  0.89846228  0.55872161  1  0  0.079076  0  0.915532  0  0  0.101696  0  0.967104  0  0  0.102044  0  0.968383  0  0  0.097363  0.101176  0  0.966723  0
H  H34  1  0.24453427  0.36392844  0.78576622  1  0  0.409724  0  0.911995  0  0  0.376309  0  0.980424  0  0  0.388863  0  0.962526  0  0  0.279738  0.367504  0  0.992922  0
H  H35  1  0.75546643  0.63607165  0.21423412  1  0  0.409701  0  0.912013  0  0  0.376282  0  0.980452  0  0  0.388836  0  0.962554  0  0  0.279728  0.367476  0  0.992952  0
H  H36  1  0.33073084  0.31608235  0.87436189  1  0  0.431411  0  0.868761  0  0  0.400912  0  0.932635  0  0  0.411787  0  0.916753  0  0  0.290383  0.39324  0  0.9438  0
H  H37  1  0.66927042  0.68391887  0.12563807  1  0  0.431405  0  0.868773  0  0  0.400902  0  0.932655  0  0  0.411778  0  0.91677  0  0  0.290376  0.393229  0  0.94382  0
C  C38  1  0.20910613  0.44520505  0.64939518  1  0  0.64368  0  3.892429  0  0  0.592159  0  4.188662  0  0  0.62667  0  4.181451  0  0  0.208424  0.56879  0  4.19261  0
C  C39  1  0.79089399  0.55479618  0.35060394  1  0  0.643629  0  3.892563  0  0  0.592114  0  4.188793  0  0  0.626626  0  4.181581  0  0  0.208388  0.568745  0  4.192738  0
C  C40  1  0.10319662  0.47447591  0.57169981  1  0  -0.06131  0  3.740131  0  0  -0.040407  0  3.976743  0  0  -0.047007  0  3.999499  0  0  -0.019048  -0.035948  0  3.96136  0
C  C41  1  0.89680464  0.52552531  0.42830015  1  0  -0.06136  0  3.740091  0  0  -0.040459  0  3.976712  0  0  -0.047059  0  3.999469  0  0  -0.019087  -0.035998  0  3.961325  0
C  C42  1  0.11275498  0.44041756  0.45178039  1  0  -0.077477  0  3.736465  0  0  -0.10259  0  3.992556  0  0  -0.103085  0  4.011997  0  0  -0.089071  -0.102062  0  3.97972  0
C  C43  1  0.88724683  0.55958479  0.54821998  1  0  -0.077441  0  3.736448  0  0  -0.102535  0  3.992528  0  0  -0.103041  0  4.011972  0  0  -0.089051  -0.102008  0  3.979695  0
C  C44  1  0.98920762  0.53432067  0.61895592  1  0  -0.072407  0  3.725989  0  0  -0.098773  0  3.983346  0  0  -0.09949  0  4.003429  0  0  -0.08947  -0.098174  0  3.969602  0
C  C45  1  0.01079419  0.46568168  0.38104445  1  0  -0.072316  0  3.725865  0  0  -0.098696  0  3.983231  0  0  -0.099405  0  4.003315  0  0  -0.089436  -0.098095  0  3.96948  0
C  C46  1  0.71970427  0.70010405  0.90731014  1  0  0.640136  0  3.920485  0  0  0.588526  0  4.218043  0  0  0.623123  0  4.209264  0  0  0.207965  0.564975  0  4.22336  0
C  C47  1  0.28029638  0.29989829  0.09269099  1  0  0.640235  0  3.920529  0  0  0.588632  0  4.218081  0  0  0.623232  0  4.209298  0  0  0.208023  0.56508  0  4.223398  0
C  C48  1  0.86285494  0.85596236  0.95377467  1  0  -0.066234  0  3.761788  0  0  -0.043181  0  3.993676  0  0  -0.049216  0  4.014428  0  0  -0.016855  -0.039032  0  3.979525  0
C  C49  1  0.13714459  0.14403772  0.04622644  1  0  -0.066185  0  3.761738  0  0  -0.043148  0  3.993635  0  0  -0.049184  0  4.014388  0  0  -0.016836  -0.039001  0  3.979482  0
C  C50  1  0.97066089  0.89459734  0.88044498  1  0  -0.068637  0  3.722605  0  0  -0.090833  0  3.969071  0  0  -0.09126  0  3.988384  0  0  -0.081473  -0.090537  0  3.956039  0
C  C51  1  0.02933865  0.10540274  0.11955533  1  0  -0.068641  0  3.722623  0  0  -0.09083  0  3.969094  0  0  -0.091257  0  3.988406  0  0  -0.081476  -0.090533  0  3.956066  0
C  C52  1  0.89361920  0.96277566  0.07323184  1  0  -0.081421  0  3.7495  0  0  -0.103149  0  3.995931  0  0  -0.104111  0  4.015185  0  0  -0.086083  -0.102214  0  3.982585  0
C  C53  1  0.10638090  0.03722555  0.92676888  1  0  -0.0814  0  3.749498  0  0  -0.103116  0  3.995915  0  0  -0.104078  0  4.01517  0  0  -0.086048  -0.102162  0  3.982583  0
C  C54  1  0.57342234  0.22291309  0.46290657  1  0  0.159839  0  3.824323  0  0  0.155952  0  4.071773  0  0  0.159285  0  4.095316  0  0  0.093131  0.15366  0  4.055812  0
C  C55  1  0.42657780  0.77708588  0.53709336  1  0  0.159839  0  3.824342  0  0  0.155963  0  4.071793  0  0  0.159296  0  4.095336  0  0  0.093133  0.153671  0  4.055834  0
C  C56  1  0.49304916  0.25327806  0.38283237  1  0  -0.125642  0  3.702969  0  0  -0.145161  0  3.955175  0  0  -0.146936  0  3.973779  0  0  -0.084947  -0.143871  0  3.942636  0
C  C57  1  0.50695099  0.74672092  0.61716676  1  0  -0.125621  0  3.702952  0  0  -0.145139  0  3.955163  0  0  -0.146915  0  3.973767  0  0  -0.084943  -0.143847  0  3.942625  0
C  C58  1  0.49042907  0.17932995  0.26142595  1  0  -0.073391  0  3.770981  0  0  -0.090007  0  4.025933  0  0  -0.093408  0  4.050451  0  0  -0.096836  -0.087762  0  4.009388  0
C  C59  1  0.50956991  0.82066901  0.73857394  1  0  -0.073503  0  3.770951  0  0  -0.090108  0  4.025911  0  0  -0.09351  0  4.050432  0  0  -0.096873  -0.087864  0  4.009369  0
C  C60  1  0.56262345  0.07636867  0.21912144  1  0  -0.063639  0  3.785465  0  0  -0.079926  0  4.03947  0  0  -0.082434  0  4.064171  0  0  -0.094131  -0.078065  0  4.022625  0
C  C61  1  0.43737499  0.92362917  0.78087803  1  0  -0.06364  0  3.785484  0  0  -0.079924  0  4.0395  0  0  -0.082435  0  4.064196  0  0  -0.094145  -0.078062  0  4.022659  0
C  C62  1  0.64109048  0.04378074  0.29743214  1  0  -0.156023  0  3.768073  0  0  -0.17691  0  4.026474  0  0  -0.181008  0  4.049044  0  0  -0.100498  -0.174067  0  4.011283  0
C  C63  1  0.35890624  0.95621597  0.70256768  1  0  -0.155967  0  3.767974  0  0  -0.176853  0  4.026364  0  0  -0.180944  0  4.048942  0  0  -0.100457  -0.174011  0  4.011173  0
C  C64  1  0.64634668  0.12008481  0.41927721  1  0  0.104939  0  3.780266  0  0  0.092136  0  4.028546  0  0  0.09552  0  4.051995  0  0  0.093606  0.089918  0  4.012767  0
C  C65  1  0.35365175  0.87991302  0.58072307  1  0  0.104907  0  3.780267  0  0  0.092094  0  4.028556  0  0  0.095477  0  4.052003  0  0  0.093575  0.089876  0  4.012781  0
C  C66  1  0.68508586  0.21122934  0.61793284  1  0  0.2781  0  3.71263  0  0  0.234469  0  3.989466  0  0  0.252426  0  4.000973  0  0  0.234019  0.222812  0  3.981266  0
C  C67  1  0.31491369  0.78877075  0.38206746  1  0  0.278103  0  3.712639  0  0  0.234487  0  3.989457  0  0  0.252449  0  4.000963  0  0  0.234026  0.222832  0  3.981253  0
C  C68  1  0.73522191  0.24756829  0.74441172  1  0  0.15268  0  3.791433  0  0  0.152066  0  4.038816  0  0  0.156034  0  4.058078  0  0  0.121764  0.149162  0  4.02589  0
C  C69  1  0.26478049  0.75243292  0.25558907  1  0  0.152731  0  3.79154  0  0  0.152118  0  4.038911  0  0  0.156072  0  4.058197  0  0  0.121788  0.149213  0  4.02598  0
C  C70  1  0.84527261  0.20483716  0.79060570  1  0  -0.114006  0  3.68806  0  0  -0.138276  0  3.939092  0  0  -0.141723  0  3.957081  0  0  -0.074461  -0.135975  0  3.927093  0
C  C71  1  0.15472637  0.79516180  0.20939499  1  0  -0.114045  0  3.688023  0  0  -0.138323  0  3.939066  0  0  -0.141765  0  3.957056  0  0  -0.074438  -0.136017  0  3.92706  0
C  C72  1  0.87709236  0.24619824  0.91354482  1  0  3.8e-05  0  3.725179  0  0  -0.0162  0  3.970568  0  0  -0.013989  0  3.990073  0  0  -0.066046  -0.017412  0  3.95742  0
C  C73  1  0.12290834  0.75380185  0.08645552  1  0  9.8e-05  0  3.725028  0  0  -0.016138  0  3.970422  0  0  -0.013926  0  3.989925  0  0  -0.066031  -0.017348  0  3.957271  0
C  C74  1  0.80118224  0.32969418  0.98750594  1  0  -0.110924  0  3.692324  0  0  -0.122608  0  3.938416  0  0  -0.128054  0  3.95712  0  0  -0.07814  -0.119189  0  3.925979  0
C  C75  1  0.19881847  0.67030593  0.01249280  1  0  -0.110961  0  3.692313  0  0  -0.122661  0  3.938396  0  0  -0.128108  0  3.957105  0  0  -0.078168  -0.119245  0  3.925964  0
C  C76  1  0.69677849  0.37178162  0.93523620  1  0  0.153024  0  3.674792  0  0  0.121416  0  3.924288  0  0  0.12834  0  3.941521  0  0  0.055586  0.116901  0  3.912693  0
C  C77  1  0.30322161  0.62821960  0.06476372  1  0  0.153017  0  3.674804  0  0  0.121476  0  3.924249  0  0  0.128383  0  3.941471  0  0  0.055616  0.116954  0  3.91266  0
C  C78  1  0.78254423  0.00535131  0.50778065  1  0  0.008508  0  3.637758  0  0  -0.055361  0  3.897665  0  0  -0.050433  0  3.908417  0  0  -0.055409  -0.058366  0  3.889849  0
C  C79  1  0.21745646  0.99464878  0.49221970  1  0  0.008593  0  3.637674  0  0  -0.055333  0  3.897624  0  0  -0.050411  0  3.908393  0  0  -0.055411  -0.058333  0  3.889803  0
C  C80  1  0.97249942  0.06263145  0.51085062  1  0  -0.127335  0  3.671692  0  0  -0.167445  0  3.930735  0  0  -0.169064  0  3.943925  0  0  -0.165695  -0.166218  0  3.92186  0
C  C81  1  0.02750127  0.93736864  0.48915052  1  0  -0.127343  0  3.67163  0  0  -0.167439  0  3.930662  0  0  -0.16906  0  3.943853  0  0  -0.165675  -0.166212  0  3.921787  0
N  N82  1  0.59824034  0.27614352  0.58661098  1  0  -0.463028  0  3.193474  0  0  -0.39766  0  3.486682  0  0  -0.419187  0  3.497359  0  0  -0.342674  -0.383125  0  3.47911  0
N  N83  1  0.40176092  0.72385771  0.41338897  1  0  -0.463043  0  3.193481  0  0  -0.39767  0  3.486641  0  0  -0.419197  0  3.497316  0  0  -0.342685  -0.383134  0  3.479064  0
N  N84  1  0.71414786  0.11361319  0.51891058  1  0  -0.140843  0  3.458429  0  0  -0.054297  0  3.682098  0  0  -0.071076  0  3.705473  0  0  -0.23119  -0.043339  0  3.666244  0
N  N85  1  0.28585227  0.88638576  0.48109015  1  0  -0.140841  0  3.458403  0  0  -0.054288  0  3.682083  0  0  -0.071067  0  3.705454  0  0  -0.231141  -0.043331  0  3.666229  0
N  N86  1  0.66464886  0.33203651  0.81723752  1  0  -0.357439  0  3.235135  0  0  -0.286369  0  3.491704  0  0  -0.304382  0  3.509577  0  0  -0.313705  -0.274078  0  3.479637  0
N  N87  1  0.33535241  0.66796473  0.18276164  1  0  -0.357479  0  3.235232  0  0  -0.286421  0  3.491774  0  0  -0.304431  0  3.509658  0  0  -0.313783  -0.274129  0  3.479708  0
O  O88  1  0.33171481  0.41402159  0.61255189  1  0  -0.642762  0  1.9895  0  0  -0.572825  0  2.248919  0  0  -0.601361  0  2.236745  0  0  -0.321774  -0.552731  0  2.256329  0
O  O89  1  0.66828588  0.58597850  0.38744846  1  0  -0.64277  0  1.989507  0  0  -0.572838  0  2.248917  0  0  -0.601374  0  2.236745  0  0  -0.321784  -0.552746  0  2.256327  0
O  O90  1  0.16612064  0.44905533  0.74681003  1  0  -0.631731  0  1.996755  0  0  -0.576784  0  2.221579  0  0  -0.602285  0  2.212714  0  0  -0.320461  -0.5588  0  2.227016  0
O  O91  1  0.83387721  0.55094364  0.25318902  1  0  -0.631682  0  1.996901  0  0  -0.576733  0  2.221716  0  0  -0.602233  0  2.212849  0  0  -0.320439  -0.55875  0  2.227152  0
O  O92  1  0.68613690  0.61632156  0.79288855  1  0  -0.631692  0  2.052402  0  0  -0.559351  0  2.324012  0  0  -0.588403  0  2.309647  0  0  -0.318244  -0.53891  0  2.33317  0
O  O93  1  0.31386319  0.38367964  0.20711296  1  0  -0.631716  0  2.052374  0  0  -0.559362  0  2.323974  0  0  -0.588416  0  2.309606  0  0  -0.318244  -0.538922  0  2.33313  0
O  O94  1  0.64202240  0.65957088  0.97901893  1  0  -0.634618  0  1.99502  0  0  -0.583099  0  2.227341  0  0  -0.607222  0  2.216563  0  0  -0.313212  -0.566201  0  2.234324  0
O  O95  1  0.35797884  0.34043033  0.02098263  1  0  -0.634713  0  1.995149  0  0  -0.583202  0  2.227476  0  0  -0.607325  0  2.216693  0  0  -0.313272  -0.566304  0  2.234454  0
O  O96  1  0.31036239  0.30349796  0.79046527  1  0  -0.859289  0  1.912337  0  0  -0.796062  0  2.134719  0  0  -0.818313  0  2.09587  0  0  -0.584179  -0.780184  0  2.161329  0
O  O97  1  0.68963772  0.69650326  0.20953464  1  0  -0.85925  0  1.912331  0  0  -0.796018  0  2.134704  0  0  -0.818269  0  2.095856  0  0  -0.584153  -0.780143  0  2.16132  0
