# generated using pymatgen
data_AgH6C7SN3(OF)3
_symmetry_space_group_name_H-M   'P 1'
_cell_length_a   7.17610328
_cell_length_b   8.74408600
_cell_length_c   10.34455982
_cell_angle_alpha   99.37554168
_cell_angle_beta   105.77595951
_cell_angle_gamma   110.72561255
_symmetry_Int_Tables_number   1
_chemical_formula_structural   AgH6C7SN3(OF)3
_chemical_formula_sum   'Ag2 H12 C14 S2 N6 O6 F6'
_cell_volume   559.49601111
_cell_formula_units_Z   2
loop_
 _symmetry_equiv_pos_site_id
 _symmetry_equiv_pos_as_xyz
  1  'x, y, z'
loop_
 _atom_site_type_symbol
 _atom_site_label
 _atom_site_symmetry_multiplicity
 _atom_site_fract_x
 _atom_site_fract_y
 _atom_site_fract_z
 _atom_site_occupancy
 _atom_site_hle17_bader_spin_density
 _atom_site_hle17_ddec_charge
 _atom_site_hle17_ddec_spin_density
 _atom_site_hle17_ddec_sum_bond_order
 _atom_site_hle17_magmom
 _atom_site_hse06_10hf_bader_spin_density
 _atom_site_hse06_10hf_ddec_charge
 _atom_site_hse06_10hf_ddec_spin_density
 _atom_site_hse06_10hf_ddec_sum_bond_order
 _atom_site_hse06_10hf_magmom
 _atom_site_hse06_bader_spin_density
 _atom_site_hse06_ddec_charge
 _atom_site_hse06_ddec_spin_density
 _atom_site_hse06_ddec_sum_bond_order
 _atom_site_hse06_magmom
 _atom_site_pbe_bader_spin_density
 _atom_site_pbe_cm5_charge
 _atom_site_pbe_ddec_charge
 _atom_site_pbe_ddec_spin_density
 _atom_site_pbe_ddec_sum_bond_order
 _atom_site_pbe_magmom
Ag  Ag0  1  0.17403106  0.23771550  0.11714774  1  0  0.522068  0  1.416068  0  0  0.373236  0  1.85649  0  0  0.398129  0  1.812071  0  0  0.483911  0.357753  0  1.886367  0
Ag  Ag1  1  0.82596816  0.76228364  0.88284880  1  0  0.521993  0  1.416117  0  0  0.373175  0  1.856548  0  0  0.398074  0  1.812124  0  0  0.483909  0.357698  0  1.886423  0
H  H2  1  0.18182416  0.23747830  0.43965324  1  0  0.097073  0  0.935236  0  0  0.105299  0  0.998591  0  0  0.10749  0  0.99736  0  0  0.118602  0.103726  0  0.999601  0
H  H3  1  0.81817676  0.76251073  0.56035395  1  0  0.097072  0  0.935253  0  0  0.105193  0  0.99871  0  0  0.107381  0  0.997487  0  0  0.118571  0.103626  0  0.999722  0
H  H4  1  0.38053493  0.42231260  0.68783194  1  0  0.087613  0  0.954465  0  0  0.094348  0  1.022177  0  0  0.096703  0  1.020546  0  0  0.112499  0.092578  0  1.023705  0
H  H5  1  0.61946309  0.57767645  0.31217564  1  0  0.087608  0  0.954375  0  0  0.094309  0  1.022167  0  0  0.096666  0  1.020533  0  0  0.112495  0.092537  0  1.023692  0
H  H6  1  0.83736187  0.35105185  0.94309721  1  0  0.096935  0  0.950014  0  0  0.104638  0  1.014024  0  0  0.107317  0  1.01168  0  0  0.120086  0.102466  0  1.016125  0
H  H7  1  0.16264861  0.64895495  0.05690445  1  0  0.096883  0  0.950114  0  0  0.104636  0  1.014037  0  0  0.10732  0  1.011698  0  0  0.120043  0.102459  0  1.016146  0
H  H8  1  0.47929304  0.34597775  0.93515351  1  0  0.097692  0  0.942172  0  0  0.106749  0  1.004465  0  0  0.109183  0  1.002755  0  0  0.121962  0.104587  0  1.006376  0
H  H9  1  0.52071719  0.65403668  0.06484521  1  0  0.097738  0  0.942118  0  0  0.106797  0  1.004402  0  0  0.109227  0  1.002689  0  0  0.121975  0.104629  0  1.006314  0
H  H10  1  0.47333437  0.08045270  0.23354446  1  0  0.109011  0  0.951624  0  0  0.116761  0  1.015369  0  0  0.119572  0  1.013317  0  0  0.119974  0.114667  0  1.016936  0
H  H11  1  0.52666462  0.91955406  0.76644722  1  0  0.109099  0  0.951624  0  0  0.116917  0  1.015295  0  0  0.119729  0  1.01324  0  0  0.120034  0.11482  0  1.016872  0
H  H12  1  0.82658056  0.08177720  0.24014755  1  0  0.099807  0  0.965837  0  0  0.106671  0  1.032541  0  0  0.109309  0  1.030666  0  0  0.119073  0.104593  0  1.034185  0
H  H13  1  0.17341578  0.91822194  0.75984747  1  0  0.0999  0  0.965942  0  0  0.106743  0  1.03264  0  0  0.109383  0  1.030764  0  0  0.119137  0.104664  0  1.034285  0
C  C14  1  0.18033566  0.77426155  0.38781178  1  0  0.593344  0  3.673545  0  0  0.5269  0  4.035167  0  0  0.554532  0  4.0089  0  0  0.285616  0.506851  0  4.054516  0
C  C15  1  0.81965793  0.22573254  0.61218688  1  0  0.593353  0  3.673368  0  0  0.526905  0  4.035  0  0  0.554523  0  4.008764  0  0  0.285653  0.506854  0  4.054356  0
C  C16  1  0.32293288  0.35581540  0.46585802  1  0  0.089521  0  3.662461  0  0  0.060491  0  3.915995  0  0  0.062419  0  3.934632  0  0  0.051265  0.059125  0  3.903259  0
C  C17  1  0.67706448  0.64417236  0.53414831  1  0  0.089461  0  3.66269  0  0  0.060504  0  3.916248  0  0  0.062428  0  3.934891  0  0  0.051268  0.059126  0  3.903523  0
C  C18  1  0.43454887  0.45857355  0.60410913  1  0  0.079975  0  3.693232  0  0  0.050106  0  3.949779  0  0  0.051995  0  3.968516  0  0  0.045992  0.048784  0  3.937147  0
C  C19  1  0.56544982  0.54141679  0.39589972  1  0  0.080013  0  3.693373  0  0  0.050143  0  3.949939  0  0  0.052032  0  3.968678  0  0  0.045914  0.048826  0  3.937301  0
C  C20  1  0.75609007  0.29163227  0.00858684  1  0  0.097859  0  3.642072  0  0  0.070648  0  3.885405  0  0  0.073659  0  3.902706  0  0  0.0583  0.068318  0  3.874378  0
C  C21  1  0.24391540  0.70837327  0.99141367  1  0  0.097906  0  3.642239  0  0  0.070694  0  3.885494  0  0  0.073695  0  3.902807  0  0  0.058415  0.068365  0  3.874465  0
C  C22  1  0.55940848  0.28926640  0.00460275  1  0  0.08678  0  3.646483  0  0  0.060162  0  3.890095  0  0  0.062528  0  3.908269  0  0  0.057546  0.058243  0  3.878767  0
C  C23  1  0.44059505  0.71073520  0.99538722  1  0  0.086696  0  3.646421  0  0  0.060084  0  3.890032  0  0  0.062456  0  3.908202  0  0  0.057435  0.058172  0  3.878695  0
C  C24  1  0.55631287  0.14220626  0.16958183  1  0  0.073646  0  3.655168  0  0  0.041264  0  3.9062  0  0  0.043295  0  3.925306  0  0  0.047467  0.039545  0  3.894076  0
C  C25  1  0.44368822  0.85780179  0.83041236  1  0  0.073463  0  3.655118  0  0  0.041008  0  3.906193  0  0  0.043034  0  3.92531  0  0  0.047417  0.039289  0  3.894074  0
C  C26  1  0.75204621  0.14412206  0.17336642  1  0  0.072357  0  3.656031  0  0  0.040998  0  3.906977  0  0  0.043462  0  3.925303  0  0  0.048288  0.038931  0  3.895495  0
C  C27  1  0.24794930  0.85588090  0.82662602  1  0  0.07218  0  3.656117  0  0  0.040814  0  3.907177  0  0  0.043275  0  3.925504  0  0  0.048128  0.038747  0  3.895699  0
S  S28  1  0.99162388  0.82378183  0.25573517  1  0  1.112509  0  5.848798  0  0  1.014259  0  6.386549  0  0  1.057848  0  6.366083  0  0  0.479506  0.984342  0  6.399551  0
S  S29  1  0.00838012  0.17622373  0.74426700  1  0  1.112618  0  5.848789  0  0  1.014423  0  6.386493  0  0  1.058014  0  6.366027  0  0  0.479616  0.984507  0  6.399502  0
N  N30  1  0.38838995  0.39770636  0.36161889  1  0  -0.274513  0  3.229713  0  0  -0.210594  0  3.51031  0  0  -0.223238  0  3.52603  0  0  -0.314621  -0.201435  0  3.499143  0
N  N31  1  0.61160805  0.60228272  0.63839160  1  0  -0.274494  0  3.229681  0  0  -0.210561  0  3.510238  0  0  -0.223205  0  3.525957  0  0  -0.314643  -0.201404  0  3.49908  0
N  N32  1  0.85246833  0.21856335  0.09236277  1  0  -0.244279  0  3.298965  0  0  -0.165522  0  3.580746  0  0  -0.178175  0  3.594556  0  0  -0.324416  -0.157348  0  3.571784  0
N  N33  1  0.14754003  0.78144218  0.90763831  1  0  -0.244176  0  3.298964  0  0  -0.165435  0  3.58074  0  0  -0.17809  0  3.594555  0  0  -0.324363  -0.157261  0  3.571778  0
N  N34  1  0.45867169  0.21424945  0.08463978  1  0  -0.247589  0  3.285606  0  0  -0.16989  0  3.563116  0  0  -0.182749  0  3.578963  0  0  -0.321004  -0.161444  0  3.552853  0
N  N35  1  0.54133076  0.78576115  0.91535403  1  0  -0.247447  0  3.285445  0  0  -0.169744  0  3.562974  0  0  -0.182602  0  3.578817  0  0  -0.320962  -0.161298  0  3.552706  0
O  O36  1  0.13487464  0.97151441  0.22869698  1  0  -0.632313  0  2.066137  0  0  -0.598026  0  2.359082  0  0  -0.616345  0  2.341646  0  0  -0.342218  -0.585024  0  2.370248  0
O  O37  1  0.86513886  0.02848732  0.77131042  1  0  -0.632361  0  2.066098  0  0  -0.59814  0  2.359079  0  0  -0.616457  0  2.341636  0  0  -0.342315  -0.585123  0  2.370216  0
O  O38  1  0.88605730  0.66641638  0.13884052  1  0  -0.643611  0  2.031625  0  0  -0.60806  0  2.306319  0  0  -0.627849  0  2.29293  0  0  -0.346486  -0.593837  0  2.314813  0
O  O39  1  0.11394241  0.33358916  0.86115693  1  0  -0.643645  0  2.031701  0  0  -0.608057  0  2.306323  0  0  -0.627844  0  2.292935  0  0  -0.346462  -0.593835  0  2.314822  0
O  O40  1  0.85389584  0.85861227  0.32546172  1  0  -0.590811  0  1.982285  0  0  -0.558876  0  2.230177  0  0  -0.577492  0  2.218793  0  0  -0.334299  -0.545802  0  2.237644  0
O  O41  1  0.14610332  0.14138693  0.67454062  1  0  -0.590817  0  1.982318  0  0  -0.558912  0  2.230212  0  0  -0.577526  0  2.218826  0  0  -0.334335  -0.545837  0  2.23768  0
F  F42  1  0.28407809  0.90162697  0.50980096  1  0  -0.210395  0  1.210526  0  0  -0.175529  0  1.385447  0  0  -0.185106  0  1.370025  0  0  -0.089123  -0.168441  0  1.396102  0
F  F43  1  0.71591982  0.09836712  0.49020048  1  0  -0.2104  0  1.210504  0  0  -0.175534  0  1.385428  0  0  -0.18511  0  1.370012  0  0  -0.089127  -0.168448  0  1.396085  0
F  F44  1  0.07664732  0.62784060  0.41692476  1  0  -0.237081  0  1.185474  0  0  -0.197748  0  1.347848  0  0  -0.20753  0  1.334516  0  0  -0.10393  -0.190629  0  1.357184  0
F  F45  1  0.92333969  0.37215482  0.58307569  1  0  -0.237095  0  1.185398  0  0  -0.197767  0  1.347784  0  0  -0.207545  0  1.33446  0  0  -0.10395  -0.190647  0  1.357122  0
F  F46  1  0.32851848  0.75247399  0.33711504  1  0  -0.235581  0  1.211313  0  0  -0.188241  0  1.374056  0  0  -0.19891  0  1.360382  0  0  -0.09392  -0.180508  0  1.383659  0
F  F47  1  0.67147374  0.24751756  0.66288497  1  0  -0.235568  0  1.21123  0  0  -0.188239  0  1.373989  0  0  -0.198903  0  1.360319  0  0  -0.093923  -0.180506  0  1.383592  0
