# generated using pymatgen
data_Sn2H22C10SO4
_symmetry_space_group_name_H-M   'P 1'
_cell_length_a   8.03635848
_cell_length_b   9.73299265
_cell_length_c   11.16993330
_cell_angle_alpha   98.51320799
_cell_angle_beta   100.41365953
_cell_angle_gamma   109.43114215
_symmetry_Int_Tables_number   1
_chemical_formula_structural   Sn2H22C10SO4
_chemical_formula_sum   'Sn4 H44 C20 S2 O8'
_cell_volume   789.67926671
_cell_formula_units_Z   2
loop_
 _symmetry_equiv_pos_site_id
 _symmetry_equiv_pos_as_xyz
  1  'x, y, z'
loop_
 _atom_site_type_symbol
 _atom_site_label
 _atom_site_symmetry_multiplicity
 _atom_site_fract_x
 _atom_site_fract_y
 _atom_site_fract_z
 _atom_site_occupancy
 _atom_site_hle17_bader_spin_density
 _atom_site_hle17_ddec_charge
 _atom_site_hle17_ddec_spin_density
 _atom_site_hle17_ddec_sum_bond_order
 _atom_site_hle17_magmom
 _atom_site_hse06_10hf_bader_spin_density
 _atom_site_hse06_10hf_ddec_charge
 _atom_site_hse06_10hf_ddec_spin_density
 _atom_site_hse06_10hf_ddec_sum_bond_order
 _atom_site_hse06_10hf_magmom
 _atom_site_hse06_bader_spin_density
 _atom_site_hse06_ddec_charge
 _atom_site_hse06_ddec_spin_density
 _atom_site_hse06_ddec_sum_bond_order
 _atom_site_hse06_magmom
 _atom_site_pbe_bader_spin_density
 _atom_site_pbe_cm5_charge
 _atom_site_pbe_ddec_charge
 _atom_site_pbe_ddec_spin_density
 _atom_site_pbe_ddec_sum_bond_order
 _atom_site_pbe_magmom
Sn  Sn0  1  0.62301304  0.97289789  0.29115870  1  0  1.362716  0  2.895936  0  0  1.228339  0  3.390537  0  0  1.266564  0  3.375569  0  0  0.512635  1.202694  0  3.399574  0
Sn  Sn1  1  0.37698226  0.02710091  0.70884594  1  0  1.362668  0  2.896133  0  0  1.228291  0  3.390733  0  0  1.266501  0  3.37578  0  0  0.512609  1.202646  0  3.399769  0
Sn  Sn2  1  0.19122823  0.40287825  0.22835816  1  0  1.36963  0  2.872836  0  0  1.240243  0  3.359319  0  0  1.278111  0  3.344092  0  0  0.519895  1.215028  0  3.368974  0
Sn  Sn3  1  0.80877574  0.59712044  0.77163591  1  0  1.369648  0  2.872854  0  0  1.240233  0  3.359344  0  0  1.278111  0  3.344118  0  0  0.51991  1.215023  0  3.368989  0
H  H4  1  0.05691844  0.84439560  0.39801289  1  0  0.127549  0  0.941166  0  0  0.140006  0  1.000893  0  0  0.142647  0  1.000097  0  0  0.106986  0.137924  0  1.001818  0
H  H5  1  0.94308740  0.15560422  0.60198871  1  0  0.127459  0  0.941174  0  0  0.139926  0  1.000907  0  0  0.142568  0  1.000109  0  0  0.106942  0.137848  0  1.001831  0
H  H6  1  0.98891716  0.64540561  0.35257679  1  0  0.124296  0  0.929218  0  0  0.141628  0  0.982994  0  0  0.143495  0  0.982577  0  0  0.110495  0.140203  0  0.983593  0
H  H7  1  0.01109217  0.35459641  0.64742106  1  0  0.124286  0  0.929198  0  0  0.141623  0  0.982964  0  0  0.143492  0  0.982545  0  0  0.1105  0.140205  0  0.983561  0
H  H8  1  0.73103636  0.26799805  0.28622163  1  0  0.15215  0  1.003922  0  0  0.172557  0  1.058967  0  0  0.1747  0  1.060389  0  0  0.084176  0.170875  0  1.058223  0
H  H9  1  0.26896322  0.73200184  0.71378279  1  0  0.152125  0  1.003867  0  0  0.172527  0  1.058941  0  0  0.17467  0  1.060362  0  0  0.084187  0.170853  0  1.058184  0
H  H10  1  0.72779469  0.24936391  0.44211914  1  0  0.146799  0  1.005655  0  0  0.166283  0  1.063073  0  0  0.167851  0  1.065334  0  0  0.081442  0.165006  0  1.061657  0
H  H11  1  0.27219531  0.75063717  0.55788335  1  0  0.146794  0  1.005577  0  0  0.166288  0  1.062995  0  0  0.167853  0  1.065258  0  0  0.081433  0.165011  0  1.061582  0
H  H12  1  0.51864508  0.20993064  0.33024318  1  0  0.161424  0  0.988957  0  0  0.179739  0  1.044228  0  0  0.18289  0  1.044158  0  0  0.087495  0.177394  0  1.044462  0
H  H13  1  0.48134990  0.79007038  0.66975544  1  0  0.161306  0  0.989031  0  0  0.179625  0  1.044329  0  0  0.182776  0  1.044259  0  0  0.087416  0.177279  0  1.044565  0
H  H14  1  0.84545518  0.90249249  0.46398750  1  0  0.148286  0  1.010418  0  0  0.164419  0  1.073732  0  0  0.167228  0  1.073684  0  0  0.082161  0.16238  0  1.073866  0
H  H15  1  0.15454229  0.09750850  0.53600874  1  0  0.148267  0  1.010397  0  0  0.164398  0  1.073722  0  0  0.167204  0  1.073679  0  0  0.082162  0.162359  0  1.073858  0
H  H16  1  0.63939383  0.74370008  0.39455961  1  0  0.147268  0  1.013589  0  0  0.164605  0  1.072766  0  0  0.167138  0  1.073658  0  0  0.083055  0.162834  0  1.072427  0
H  H17  1  0.36060418  0.25629644  0.60544150  1  0  0.147269  0  1.013641  0  0  0.164608  0  1.072809  0  0  0.167142  0  1.0737  0  0  0.083043  0.162845  0  1.072463  0
H  H18  1  0.64290126  0.89210043  0.51302261  1  0  0.167717  0  0.997113  0  0  0.182745  0  1.057674  0  0  0.186366  0  1.057325  0  0  0.086853  0.180042  0  1.058092  0
H  H19  1  0.35709977  0.10789719  0.48697811  1  0  0.167737  0  0.997053  0  0  0.182762  0  1.057628  0  0  0.186384  0  1.057273  0  0  0.086846  0.180061  0  1.05804  0
H  H20  1  0.40373534  0.88654614  0.05880672  1  0  0.149441  0  1.004875  0  0  0.169248  0  1.06059  0  0  0.171832  0  1.061178  0  0  0.083334  0.167372  0  1.060317  0
H  H21  1  0.59626084  0.11344366  0.94119328  1  0  0.149393  0  1.004938  0  0  0.169203  0  1.060645  0  0  0.171789  0  1.061223  0  0  0.083346  0.167327  0  1.060376  0
H  H22  1  0.50323763  0.75098201  0.08236171  1  0  0.158109  0  1.003436  0  0  0.176253  0  1.06106  0  0  0.178793  0  1.062175  0  0  0.085874  0.174337  0  1.060646  0
H  H23  1  0.49676552  0.24901450  0.91764809  1  0  0.158107  0  1.003438  0  0  0.176229  0  1.061073  0  0  0.178769  0  1.062187  0  0  0.085865  0.174312  0  1.060664  0
H  H24  1  0.63130012  0.92194091  0.04527785  1  0  0.149126  0  0.997845  0  0  0.16852  0  1.053572  0  0  0.170979  0  1.054278  0  0  0.082548  0.166741  0  1.053189  0
H  H25  1  0.36870046  0.07805561  0.95472805  1  0  0.149085  0  0.997814  0  0  0.168521  0  1.053501  0  0  0.170978  0  1.054206  0  0  0.082556  0.166743  0  1.053114  0
H  H26  1  0.20215545  0.32062195  0.44931134  1  0  0.164801  0  1.010265  0  0  0.183806  0  1.064887  0  0  0.1866  0  1.065554  0  0  0.08563  0.181705  0  1.064728  0
H  H27  1  0.79784307  0.67938129  0.55068711  1  0  0.164712  0  1.010305  0  0  0.183729  0  1.06492  0  0  0.186523  0  1.065587  0  0  0.085597  0.181628  0  1.06476  0
H  H28  1  0.09508470  0.45428975  0.44566071  1  0  0.140987  0  1.010772  0  0  0.158027  0  1.073209  0  0  0.16023  0  1.074253  0  0  0.079514  0.15632  0  1.072837  0
H  H29  1  0.90491001  0.54571351  0.55433458  1  0  0.140988  0  1.010731  0  0  0.158027  0  1.073185  0  0  0.16023  0  1.07423  0  0  0.079512  0.156319  0  1.072813  0
H  H30  1  0.33792354  0.51665114  0.47822995  1  0  0.157258  0  0.989865  0  0  0.177891  0  1.041755  0  0  0.180334  0  1.042954  0  0  0.086351  0.175917  0  1.041424  0
H  H31  1  0.66207579  0.48335658  0.52177008  1  0  0.157225  0  0.989836  0  0  0.177845  0  1.041765  0  0  0.180294  0  1.042955  0  0  0.086305  0.175857  0  1.041447  0
H  H32  1  0.12680079  0.89697974  0.11444140  1  0  0.127531  0  0.946221  0  0  0.1379  0  1.009903  0  0  0.140985  0  1.008319  0  0  0.106691  0.13579  0  1.011067  0
H  H33  1  0.87320277  0.10301786  0.88556053  1  0  0.127585  0  0.946207  0  0  0.137949  0  1.009888  0  0  0.141033  0  1.008307  0  0  0.106693  0.135841  0  1.011053  0
H  H34  1  0.90892881  0.88253862  0.03594742  1  0  0.139011  0  0.942483  0  0  0.153988  0  1.000467  0  0  0.156745  0  0.999598  0  0  0.11382  0.151983  0  1.001212  0
H  H35  1  0.09107647  0.11746007  0.96405039  1  0  0.139016  0  0.942511  0  0  0.153998  0  1.000491  0  0  0.156754  0  0.999621  0  0  0.113832  0.151998  0  1.001232  0
H  H36  1  0.54548348  0.53458928  0.22595411  1  0  0.145939  0  1.014841  0  0  0.162125  0  1.077503  0  0  0.164575  0  1.078362  0  0  0.079223  0.16016  0  1.077444  0
H  H37  1  0.45451806  0.46541504  0.77404306  1  0  0.145991  0  1.014807  0  0  0.162181  0  1.077449  0  0  0.164631  0  1.078307  0  0  0.079248  0.160213  0  1.077397  0
H  H38  1  0.40533467  0.48527512  0.07122004  1  0  0.150609  0  1.004625  0  0  0.167028  0  1.067286  0  0  0.169375  0  1.068427  0  0  0.083052  0.165273  0  1.066528  0
H  H39  1  0.59467142  0.51472805  0.92877934  1  0  0.150656  0  1.004635  0  0  0.167075  0  1.067274  0  0  0.169422  0  1.068414  0  0  0.08306  0.165318  0  1.066518  0
H  H40  1  0.45784473  0.34407515  0.13899794  1  0  0.161713  0  0.987818  0  0  0.181686  0  1.040809  0  0  0.184361  0  1.041448  0  0  0.085982  0.179709  0  1.040587  0
H  H41  1  0.54216340  0.65593249  0.86100138  1  0  0.1617  0  0.987802  0  0  0.181662  0  1.040813  0  0  0.184335  0  1.041454  0  0  0.085966  0.179686  0  1.040587  0
H  H42  1  0.94915103  0.35931739  0.00977717  1  0  0.149705  0  1.016775  0  0  0.164442  0  1.080197  0  0  0.166886  0  1.081696  0  0  0.0809  0.162574  0  1.079496  0
H  H43  1  0.05084543  0.64067577  0.99022330  1  0  0.149669  0  1.01684  0  0  0.164391  0  1.080281  0  0  0.166836  0  1.081782  0  0  0.080878  0.162516  0  1.079582  0
H  H44  1  0.87811576  0.44430929  0.13320003  1  0  0.143118  0  1.027369  0  0  0.155717  0  1.094887  0  0  0.158642  0  1.09526  0  0  0.076417  0.154574  0  1.09315  0
H  H45  1  0.12188525  0.55568273  0.86680176  1  0  0.143106  0  1.027341  0  0  0.155705  0  1.09486  0  0  0.158631  0  1.095235  0  0  0.076387  0.154562  0  1.093121  0
H  H46  1  0.83791843  0.24865244  0.10770179  1  0  0.148036  0  1.007383  0  0  0.165861  0  1.064357  0  0  0.168422  0  1.065277  0  0  0.083023  0.163945  0  1.063975  0
H  H47  1  0.16208741  0.75134179  0.89230268  1  0  0.148061  0  1.007376  0  0  0.165885  0  1.064344  0  0  0.168447  0  1.065262  0  0  0.083027  0.163968  0  1.063956  0
C  C48  1  0.04563493  0.75135215  0.32447770  1  0  -0.316585  0  3.645438  0  0  -0.35455  0  3.907811  0  0  -0.359412  0  3.912119  0  0  -0.147877  -0.351498  0  3.905332  0
C  C49  1  0.95436865  0.24865105  0.67552317  1  0  -0.316518  0  3.645317  0  0  -0.354418  0  3.907682  0  0  -0.359287  0  3.911992  0  0  -0.147783  -0.351364  0  3.905202  0
C  C50  1  0.65406025  0.20333893  0.34383566  1  0  -0.711564  0  3.498926  0  0  -0.747509  0  3.718858  0  0  -0.761083  0  3.725949  0  0  -0.338185  -0.737285  0  3.713673  0
C  C51  1  0.34593478  0.79666211  0.65616655  1  0  -0.711406  0  3.498872  0  0  -0.747365  0  3.71885  0  0  -0.760935  0  3.725945  0  0  -0.338134  -0.737146  0  3.713648  0
C  C52  1  0.23061309  0.77328961  0.29837907  1  0  0.708863  0  3.845548  0  0  0.65686  0  4.146191  0  0  0.690919  0  4.138111  0  0  0.229178  0.633732  0  4.151258  0
C  C53  1  0.76938636  0.22671023  0.70161458  1  0  0.70908  0  3.845103  0  0  0.656899  0  4.146022  0  0  0.690976  0  4.137914  0  0  0.229209  0.633764  0  4.151093  0
C  C54  1  0.69706286  0.86435552  0.43345936  1  0  -0.721675  0  3.540052  0  0  -0.766794  0  3.781542  0  0  -0.780107  0  3.786254  0  0  -0.338122  -0.757222  0  3.778394  0
C  C55  1  0.30293291  0.13564439  0.56654190  1  0  -0.721678  0  3.54  0  0  -0.76681  0  3.781503  0  0  -0.780114  0  3.786216  0  0  -0.338122  -0.757248  0  3.77834  0
C  C56  1  0.53028177  0.87067699  0.09537126  1  0  -0.715891  0  3.530456  0  0  -0.75766  0  3.76023  0  0  -0.771212  0  3.767144  0  0  -0.336738  -0.748544  0  3.755763  0
C  C57  1  0.46971525  0.12931730  0.90463211  1  0  -0.715775  0  3.530485  0  0  -0.757554  0  3.760281  0  0  -0.771099  0  3.767192  0  0  -0.336723  -0.748441  0  3.755816  0
C  C58  1  0.21012705  0.42692642  0.42489574  1  0  -0.720144  0  3.523555  0  0  -0.760087  0  3.748843  0  0  -0.773518  0  3.7551  0  0  -0.336882  -0.75085  0  3.745265  0
C  C59  1  0.78987250  0.57307905  0.57510312  1  0  -0.720015  0  3.523524  0  0  -0.759959  0  3.748802  0  0  -0.773398  0  3.755054  0  0  -0.336817  -0.750703  0  3.745239  0
C  C60  1  0.99598084  0.89810457  0.12928323  1  0  -0.339781  0  3.672824  0  0  -0.373973  0  3.933493  0  0  -0.379782  0  3.938857  0  0  -0.156678  -0.370213  0  3.929742  0
C  C61  1  0.00402347  0.10189750  0.87071579  1  0  -0.339869  0  3.673068  0  0  -0.374036  0  3.933686  0  0  -0.379843  0  3.939041  0  0  -0.156677  -0.370284  0  3.929946  0
C  C62  1  0.42970349  0.44670105  0.15775672  1  0  -0.713637  0  3.517592  0  0  -0.756366  0  3.750375  0  0  -0.769893  0  3.756849  0  0  -0.338522  -0.746741  0  3.746145  0
C  C63  1  0.57030184  0.55330325  0.84224182  1  0  -0.713727  0  3.517533  0  0  -0.756452  0  3.750365  0  0  -0.769978  0  3.756839  0  0  -0.338537  -0.746822  0  3.746134  0
C  C64  1  0.93232250  0.35851014  0.10491269  1  0  -0.716902  0  3.524246  0  0  -0.752777  0  3.757645  0  0  -0.766759  0  3.76411  0  0  -0.338757  -0.743886  0  3.752632  0
C  C65  1  0.06767874  0.64148523  0.89508598  1  0  -0.716915  0  3.524223  0  0  -0.752742  0  3.757586  0  0  -0.766729  0  3.764052  0  0  -0.338721  -0.743859  0  3.752615  0
C  C66  1  0.02766671  0.05281858  0.20434646  1  0  0.723819  0  3.817174  0  0  0.669009  0  4.123955  0  0  0.703675  0  4.114897  0  0  0.229355  0.645737  0  4.128853  0
C  C67  1  0.97232909  0.94717574  0.79566035  1  0  0.723748  0  3.817379  0  0  0.668889  0  4.12421  0  0  0.703558  0  4.115147  0  0  0.229279  0.645608  0  4.129118  0
S  S68  1  0.87936438  0.73692293  0.18428071  1  0  0.048867  0  2.376414  0  0  0.065556  0  2.712634  0  0  0.063697  0  2.712113  0  0  0.023439  0.067437  0  2.712042  0
S  S69  1  0.12063085  0.26307585  0.81571945  1  0  0.048927  0  2.376569  0  0  0.065613  0  2.712753  0  0  0.063756  0  2.712232  0  0  0.023467  0.067504  0  2.712169  0
O  O70  1  0.33654579  0.91040547  0.31752357  1  0  -0.615594  0  2.022373  0  0  -0.537192  0  2.254803  0  0  -0.564694  0  2.249368  0  0  -0.275138  -0.518261  0  2.257882  0
O  O71  1  0.66345205  0.08960451  0.68247746  1  0  -0.615661  0  2.022402  0  0  -0.537219  0  2.254919  0  0  -0.564721  0  2.249472  0  0  -0.275107  -0.518281  0  2.258001  0
O  O72  1  0.27278028  0.66453796  0.25735822  1  0  -0.631972  0  2.031903  0  0  -0.558307  0  2.269133  0  0  -0.584755  0  2.263108  0  0  -0.27802  -0.540229  0  2.272912  0
O  O73  1  0.72721308  0.33547088  0.74262688  1  0  -0.632081  0  2.031562  0  0  -0.558345  0  2.268874  0  0  -0.584808  0  2.262845  0  0  -0.278106  -0.540282  0  2.272699  0
O  O74  1  0.93166427  0.07454121  0.27733105  1  0  -0.641288  0  2.04069  0  0  -0.570598  0  2.280445  0  0  -0.597374  0  2.27472  0  0  -0.279229  -0.552412  0  2.283835  0
O  O75  1  0.06833586  0.92545190  0.72266093  1  0  -0.641357  0  2.040583  0  0  -0.57061  0  2.280327  0  0  -0.59739  0  2.274603  0  0  -0.279214  -0.552415  0  2.283716  0
O  O76  1  0.15682325  0.15792017  0.18197765  1  0  -0.62971  0  2.006326  0  0  -0.558673  0  2.247665  0  0  -0.585457  0  2.239623  0  0  -0.285379  -0.540553  0  2.25193  0
O  O77  1  0.84318519  0.84207966  0.81803055  1  0  -0.629633  0  2.006581  0  0  -0.558567  0  2.247908  0  0  -0.585352  0  2.239865  0  0  -0.285331  -0.540444  0  2.252172  0
