# generated using pymatgen
data_AlH12C27NO18
_symmetry_space_group_name_H-M   'P 1'
_cell_length_a   4.23406784
_cell_length_b   13.64155592
_cell_length_c   13.64349592
_cell_angle_alpha   119.96708956
_cell_angle_beta   89.98795766
_cell_angle_gamma   90.06608708
_symmetry_Int_Tables_number   1
_chemical_formula_structural   AlH12C27NO18
_chemical_formula_sum   'Al1 H12 C27 N1 O18'
_cell_volume   682.68697647
_cell_formula_units_Z   1
loop_
 _symmetry_equiv_pos_site_id
 _symmetry_equiv_pos_as_xyz
  1  'x, y, z'
loop_
 _atom_site_type_symbol
 _atom_site_label
 _atom_site_symmetry_multiplicity
 _atom_site_fract_x
 _atom_site_fract_y
 _atom_site_fract_z
 _atom_site_occupancy
 _atom_site_pbe_bader_charge
 _atom_site_pbe_bader_spin_density
 _atom_site_pbe_cm5_charge
 _atom_site_pbe_ddec_charge
 _atom_site_pbe_ddec_spin_density
 _atom_site_pbe_ddec_sum_bond_order
 _atom_site_pbe_magmom
Al  Al0  1  0.98215534  0.50001755  0.00013563  1  2.519499  0  0.46158  1.648209  0  2.449855  0
H  H1  1  0.27488840  0.90665568  0.87919096  1  0.13012  0  0.11731  0.132284  0  1.015105  0
H  H2  1  0.77835151  0.63114184  0.60363246  1  0.115167  0  0.116331  0.125646  0  1.018175  0
H  H3  1  0.78190355  0.97279874  0.86822785  1  0.111695  0  0.116601  0.126245  0  1.018411  0
H  H4  1  0.27112751  0.97240343  0.59359999  1  0.121983  0  0.117317  0.131992  0  1.016057  0
H  H5  1  0.77992043  0.89611111  0.52727191  1  0.070521  0  0.116309  0.125748  0  1.017517  0
H  H6  1  0.27071901  0.62130589  0.52767623  1  0.122602  0  0.117465  0.132212  0  1.015817  0
H  H7  1  0.82687813  0.35329398  0.67472799  1  0.669436  0  0.33161  0.38928  0  0.900703  0
H  H8  1  0.96025689  0.71271751  0.99827032  1  0.651067  0  0.316279  0.349081  0  0.975723  0
H  H9  1  0.82717026  0.32097392  0.14668982  1  0.671127  0  0.331604  0.389333  0  0.900657  0
H  H10  1  0.95892445  0.28608258  0.78796921  1  0.647961  0  0.316175  0.349162  0  0.975865  0
H  H11  1  0.82817459  0.82557039  0.17873335  1  0.667698  0  0.331829  0.389672  0  0.899811  0
H  H12  1  0.95763840  0.50167783  0.21463084  1  0.64662  0  0.315901  0.349064  0  0.976789  0
C  C13  1  0.47797874  0.32253720  0.91551829  1  1.606497  0  0.285387  0.688577  0  4.031698  0
C  C14  1  0.47844341  0.59290175  0.17751670  1  1.563705  0  0.285446  0.68781  0  4.033198  0
C  C15  1  0.47904267  0.58447810  0.90710189  1  1.604647  0  0.285491  0.688256  0  4.03293  0
C  C16  1  0.36789736  0.76124527  0.89411609  1  -0.079773  0  -0.014737  -0.065031  0  4.003482  0
C  C17  1  0.37082461  0.82115471  0.83570435  1  0.033272  0  -0.079793  -0.178721  0  3.936675  0
C  C18  1  0.50666645  0.77498578  0.72813070  1  0.309162  0  0.099616  0.190736  0  4.020788  0
C  C19  1  0.65199150  0.66933926  0.68374042  1  0.043626  0  -0.074704  -0.171183  0  3.940477  0
C  C20  1  0.63669127  0.60639552  0.73828875  1  0.040412  0  -0.003192  -0.020627  0  3.955219  0
C  C21  1  0.48582843  0.64968751  0.84418068  1  -0.00056  0  -0.01204  -0.110851  0  3.903626  0
C  C22  1  0.65368463  0.01458328  0.83027663  1  0.099395  0  -0.075356  -0.172942  0  3.941898  0
C  C23  1  0.63776116  0.13199668  0.89324406  1  -0.057244  0  -0.003335  -0.020542  0  3.955228  0
C  C24  1  0.48480006  0.19445098  0.85017621  1  -0.051647  0  -0.011723  -0.11023  0  3.901442  0
C  C25  1  0.36522211  0.13276099  0.73877369  1  -0.10475  0  -0.01519  -0.064717  0  4.001876  0
C  C26  1  0.36851207  0.01448139  0.67895264  1  0.100944  0  -0.07916  -0.178291  0  3.935834  0
C  C27  1  0.50650372  0.95321297  0.72489705  1  0.335753  0  0.0994  0.19115  0  4.020093  0
C  C28  1  0.65241437  0.81615665  0.48546692  1  0.086488  0  -0.074351  -0.170076  0  3.938981  0
C  C29  1  0.63699480  0.76161066  0.36803560  1  -0.030775  0  -0.003099  -0.021164  0  3.954565  0
C  C30  1  0.48490706  0.65584818  0.30558009  1  0.045172  0  -0.011713  -0.109956  0  3.902037  0
C  C31  1  0.36540484  0.60608557  0.36727989  1  -0.059166  0  -0.014725  -0.064662  0  4.002714  0
C  C32  1  0.36812489  0.66458686  0.48554685  1  0.030648  0  -0.079529  -0.17874  0  3.93709  0
C  C33  1  0.50578771  0.77193184  0.54678658  1  0.329177  0  0.098922  0.1895  0  4.020244  0
C  C34  1  0.80204101  0.49474803  0.67794489  1  1.560548  0  0.236182  0.585626  0  4.11495  0
C  C35  1  0.27137138  0.83087014  0.01599586  1  1.543178  0  0.234858  0.575559  0  4.108771  0
C  C36  1  0.80375885  0.18329371  0.00486806  1  1.596878  0  0.236096  0.585651  0  4.11649  0
C  C37  1  0.26631921  0.18471340  0.66902949  1  1.563658  0  0.23389  0.572288  0  4.112411  0
C  C38  1  0.80343691  0.82186675  0.31666467  1  1.581704  0  0.235986  0.584918  0  4.116091  0
C  C39  1  0.26818181  0.48418793  0.31523502  1  1.569573  0  0.234588  0.574979  0  4.109473  0
N  N40  1  0.50675071  0.83337455  0.66662187  1  -1.272476  0  -0.23942  -0.126825  0  3.617235  0
O  O41  1  0.71724143  0.59859274  0.97124864  1  -1.259082  0  -0.231415  -0.61082  0  2.442772  0
O  O42  1  0.71630451  0.37276373  0.90163641  1  -1.257836  0  -0.231361  -0.611312  0  2.444741  0
O  O43  1  0.71653950  0.52882900  0.12757823  1  -1.257252  0  -0.231498  -0.610343  0  2.442738  0
O  O44  1  0.23974619  0.52498163  0.89837189  1  -1.256573  0  -0.228276  -0.59099  0  2.413451  0
O  O45  1  0.23948598  0.60162548  0.12672758  1  -1.257191  0  -0.228061  -0.590815  0  2.413892  0
O  O46  1  0.23891488  0.37310485  0.97496773  1  -1.257535  0  -0.227886  -0.590728  0  2.412657  0
O  O47  1  0.68998399  0.42153578  0.70772174  1  -1.160339  0  -0.324183  -0.468594  0  2.334456  0
O  O48  1  0.01517436  0.47525321  0.61026587  1  -1.114143  0  -0.273699  -0.454785  0  2.083681  0
O  O49  1  0.05962901  0.78479464  0.05582321  1  -1.17246  0  -0.324141  -0.481575  0  2.400295  0
O  O50  1  0.38115110  0.92409506  0.07715176  1  -1.078778  0  -0.245836  -0.390487  0  2.037265  0
O  O51  1  0.69067836  0.28584852  0.07826964  1  -1.168522  0  -0.32366  -0.467954  0  2.335549  0
O  O52  1  0.01786024  0.13533218  0.02419331  1  -1.117338  0  -0.274106  -0.455637  0  2.085882  0
O  O53  1  0.05716646  0.27123771  0.71562612  1  -1.182285  0  -0.324164  -0.481196  0  2.39998  0
O  O54  1  0.37220489  0.15184230  0.57515848  1  -1.072571  0  -0.244859  -0.388487  0  2.039035  0
O  O55  1  0.69115844  0.79234444  0.21383672  1  -1.156156  0  -0.324333  -0.468835  0  2.334902  0
O  O56  1  0.01738035  0.88930895  0.36471393  1  -1.122226  0  -0.273359  -0.454256  0  2.085783  0
O  O57  1  0.05656756  0.44422260  0.22938210  1  -1.172824  0  -0.323552  -0.481659  0  2.400831  0
O  O58  1  0.37759754  0.42313920  0.34747857  1  -1.07043  0  -0.245716  -0.389945  0  2.037407  0
