# generated using pymatgen
data_Zn4H26C43S10(N7O9)2
_symmetry_space_group_name_H-M   'P 1'
_cell_length_a   11.46607985
_cell_length_b   12.67129195
_cell_length_c   24.05221373
_cell_angle_alpha   90.34904218
_cell_angle_beta   88.98275929
_cell_angle_gamma   89.91643568
_symmetry_Int_Tables_number   1
_chemical_formula_structural   Zn4H26C43S10(N7O9)2
_chemical_formula_sum   'Zn4 H26 C43 S10 N14 O18'
_cell_volume   3493.92735359
_cell_formula_units_Z   1
loop_
 _symmetry_equiv_pos_site_id
 _symmetry_equiv_pos_as_xyz
  1  'x, y, z'
loop_
 _atom_site_type_symbol
 _atom_site_label
 _atom_site_symmetry_multiplicity
 _atom_site_fract_x
 _atom_site_fract_y
 _atom_site_fract_z
 _atom_site_occupancy
 _atom_site_pbe_bader_charge
 _atom_site_pbe_bader_spin_density
 _atom_site_pbe_cm5_charge
 _atom_site_pbe_ddec_charge
 _atom_site_pbe_ddec_spin_density
 _atom_site_pbe_ddec_sum_bond_order
 _atom_site_pbe_magmom
Zn  Zn0  1  0.61923768  0.49967434  0.49966391  1  1.287164  0  0.665372  0.841199  0  2.415461  0
Zn  Zn1  1  0.37420317  0.49888643  0.49855885  1  1.282344  0  0.66627  0.839343  0  2.400482  0
Zn  Zn2  1  0.37992294  0.50163412  0.96641610  1  1.283474  0  0.665709  0.845137  0  2.417413  0
Zn  Zn3  1  0.62429599  0.50032097  0.96619034  1  1.303395  0  0.663247  0.836152  0  2.412518  0
H  H4  1  0.32017867  0.50530997  0.79206064  1  0.108196  0  0.103365  0.111729  0  1.016209  0
H  H5  1  0.77660319  0.58119840  0.77259666  1  0.032943  0  0.090552  0.09292  0  1.000995  0
H  H6  1  0.78102139  0.44032094  0.77527812  1  0.052535  0  0.099676  0.112565  0  0.976453  0
H  H7  1  0.76356478  0.43440237  0.67043078  1  0.100016  0  0.100398  0.115359  0  0.976839  0
H  H8  1  0.76178999  0.57475715  0.66919643  1  0.060592  0  0.09005  0.096631  0  1.008517  0
H  H9  1  0.88092001  0.36546894  0.38968447  1  0.472481  0  0.322736  0.320444  0  0.918935  0
H  H10  1  0.74045124  0.40585602  0.40886678  1  0.544656  0  0.306115  0.332229  0  0.966963  0
H  H11  1  0.11353873  0.62555770  0.60591217  1  0.47331  0  0.311187  0.315371  0  0.93139  0
H  H12  1  0.25049440  0.60374392  0.58117264  1  0.514874  0  0.304579  0.318946  0  0.976461  0
H  H13  1  0.77252304  0.09488838  0.50853844  1  0.436419  0  0.307358  0.302485  0  0.941301  0
H  H14  1  0.72180819  0.22392255  0.50217416  1  0.496638  0  0.296821  0.310025  0  0.978571  0
H  H15  1  0.22510826  0.90513264  0.51058053  1  0.445606  0  0.306977  0.302191  0  0.941028  0
H  H16  1  0.27436904  0.77583966  0.50260938  1  0.492784  0  0.294402  0.306859  0  0.987269  0
H  H17  1  0.22887700  0.50886311  0.28651465  1  0.436864  0  0.305058  0.299857  0  0.941666  0
H  H18  1  0.28020941  0.49530821  0.35344688  1  0.473254  0  0.287728  0.291811  0  1.016782  0
H  H19  1  0.76894185  0.52211039  0.17868542  1  0.426927  0  0.305136  0.300542  0  0.941152  0
H  H20  1  0.71880165  0.50595380  0.11167039  1  0.500961  0  0.287582  0.291236  0  1.015709  0
H  H21  1  0.11572720  0.37419067  0.07618300  1  0.452346  0  0.323837  0.322328  0  0.91687  0
H  H22  1  0.25726468  0.41177318  0.05698246  1  0.526771  0  0.305393  0.332259  0  0.971558  0
H  H23  1  0.89050588  0.62364930  0.85679039  1  0.440197  0  0.317478  0.311617  0  0.929111  0
H  H24  1  0.74971835  0.58938352  0.87629444  1  0.532514  0  0.306535  0.328335  0  0.973529  0
H  H25  1  0.22738017  0.09689407  0.95669174  1  0.439952  0  0.306684  0.301714  0  0.941826  0
H  H26  1  0.27846924  0.22596157  0.96149763  1  0.518537  0  0.296826  0.310561  0  0.976801  0
H  H27  1  0.77320383  0.90427671  0.95292823  1  0.438544  0  0.305968  0.300204  0  0.943508  0
H  H28  1  0.72325163  0.77576538  0.96177398  1  0.490575  0  0.294171  0.30628  0  0.986572  0
H  H29  1  0.27459235  0.65535404  0.70297881  1  0.611001  0  0.337497  0.374588  0  0.870623  0
C  C30  1  0.49703164  0.70466043  0.49658024  1  1.497369  0  0.194957  0.605787  0  4.218965  0
C  C31  1  0.48793786  0.50792933  0.61051207  1  1.538038  0  0.216301  0.598802  0  4.180754  0
C  C32  1  0.50107746  0.29446833  0.50222614  1  1.53662  0  0.196749  0.605334  0  4.214407  0
C  C33  1  0.50071217  0.48677679  0.38809541  1  1.502849  0  0.201363  0.613126  0  4.20442  0
C  C34  1  0.50144710  0.70626183  0.97046299  1  1.544305  0  0.196015  0.60691  0  4.218032  0
C  C35  1  0.51001411  0.51022924  0.85539930  1  1.558204  0  0.218856  0.604256  0  4.166546  0
C  C36  1  0.49912249  0.29570073  0.96204324  1  1.498983  0  0.196263  0.607355  0  4.214252  0
C  C37  1  0.49925712  0.48732603  0.07692815  1  1.546055  0  0.200771  0.612401  0  4.204022  0
C  C38  1  0.86887403  0.45174016  0.46144679  1  1.095508  0  0.234853  0.43841  0  4.099087  0
C  C39  1  0.12356174  0.55068679  0.53140348  1  1.121331  0  0.23668  0.44307  0  4.078203  0
C  C40  1  0.00324647  0.53300483  0.51965188  1  -0.204682  0  -0.019652  -0.156  0  4.087529  0
C  C41  1  0.98966058  0.46676415  0.47385818  1  -0.144868  0  -0.021954  -0.166457  0  4.083001  0
C  C42  1  0.59649761  0.11262209  0.49825808  1  0.530025  0  0.098183  0.273932  0  4.120166  0
C  C43  1  0.40101332  0.88658559  0.49757481  1  0.449927  0  0.098169  0.274504  0  4.12364  0
C  C44  1  0.49929625  0.18017307  0.49989345  1  -0.120549  0  -0.050196  -0.253373  0  3.947385  0
C  C45  1  0.49813104  0.81897317  0.49626068  1  -0.0984  0  -0.052678  -0.256604  0  3.953829  0
C  C46  1  0.43813758  0.99392980  0.49839394  1  -0.070206  0  -0.034156  -0.110913  0  4.088113  0
C  C47  1  0.55945127  0.00530348  0.49758042  1  -0.187973  0  -0.034328  -0.109513  0  4.088951  0
C  C48  1  0.50700916  0.50745689  0.79321897  1  0.010473  0  -0.011396  -0.061627  0  3.969895  0
C  C49  1  0.49100731  0.50502365  0.67278749  1  0.004012  0  -0.007362  -0.088038  0  3.931989  0
C  C50  1  0.60532374  0.50637940  0.75840674  1  -0.081602  0  -0.003525  0.058818  0  3.878847  0
C  C51  1  0.39035591  0.50507803  0.70801252  1  -0.042111  0  -0.014768  -0.08396  0  4.006034  0
C  C52  1  0.59672660  0.50446129  0.70045290  1  0.036805  0  -0.000398  0.075521  0  3.876323  0
C  C53  1  0.39915546  0.50601069  0.76608853  1  -0.035186  0  -0.085231  -0.135901  0  3.968124  0
C  C54  1  0.73767022  0.50826354  0.75639219  1  0.022821  0  -0.152922  -0.196894  0  3.887283  0
C  C55  1  0.72764077  0.50516161  0.69100533  1  -0.064099  0  -0.152831  -0.200992  0  3.888736  0
C  C56  1  0.40367600  0.48244894  0.29340388  1  0.476372  0  0.099328  0.276731  0  4.108063  0
C  C57  1  0.59638483  0.48682929  0.17154462  1  0.497789  0  0.099896  0.277685  0  4.104911  0
C  C58  1  0.50136094  0.48351469  0.32771668  1  -0.031391  0  -0.048458  -0.25027  0  3.942811  0
C  C59  1  0.49881299  0.48357654  0.13719430  1  -0.135838  0  -0.049911  -0.253281  0  3.949147  0
C  C60  1  0.56061977  0.48426221  0.22856233  1  -0.087623  0  -0.030993  -0.103058  0  4.078459  0
C  C61  1  0.43957623  0.48160108  0.23636882  1  -0.181707  0  -0.030995  -0.10281  0  4.078221  0
C  C62  1  0.12947225  0.45628651  0.00361479  1  1.117335  0  0.236074  0.43999  0  4.099177  0
C  C63  1  0.87559934  0.54741501  0.93042048  1  1.081058  0  0.23396  0.43642  0  4.09037  0
C  C64  1  0.99593663  0.53267941  0.94339999  1  -0.162848  0  -0.023757  -0.16545  0  4.096127  0
C  C65  1  0.00891471  0.47094756  0.99058541  1  -0.196703  0  -0.023093  -0.165391  0  4.084752  0
C  C66  1  0.40322941  0.11449725  0.96691667  1  0.474126  0  0.099095  0.274905  0  4.119671  0
C  C67  1  0.59800127  0.88758544  0.96805724  1  0.488144  0  0.097917  0.273637  0  4.122391  0
C  C68  1  0.50053582  0.18149843  0.96472306  1  -0.090736  0  -0.051297  -0.254298  0  3.950768  0
C  C69  1  0.50071647  0.82061486  0.97047575  1  -0.133764  0  -0.051788  -0.255171  0  3.953724  0
C  C70  1  0.56124954  0.99505808  0.96717377  1  -0.152287  0  -0.034525  -0.110272  0  4.090013  0
C  C71  1  0.43997663  0.00709190  0.96844935  1  -0.094228  0  -0.034052  -0.109054  0  4.088659  0
C  C72  1  0.26771619  0.50601450  0.68688922  1  1.516819  0  0.231482  0.586268  0  4.110062  0
S  S73  1  0.87014642  0.57237736  0.54569435  1  0.639834  0  0.217927  0.272365  0  2.856508  0
S  S74  1  0.12391182  0.42829365  0.44797042  1  0.636545  0  0.209557  0.263505  0  2.838428  0
S  S75  1  0.36596257  0.11336230  0.49960291  1  0.20376  0  0.033822  0.081576  0  2.792599  0
S  S76  1  0.63158529  0.88583872  0.49524357  1  0.213601  0  0.028023  0.073173  0  2.798938  0
S  S77  1  0.63382573  0.48458925  0.29054539  1  0.184553  0  0.029366  0.068291  0  2.802594  0
S  S78  1  0.36643969  0.47886455  0.17436828  1  0.181818  0  0.028474  0.067426  0  2.80531  0
S  S79  1  0.12981035  0.56892935  0.91698818  1  0.636273  0  0.204575  0.259994  0  2.832819  0
S  S80  1  0.87470717  0.43389798  0.01648006  1  0.642819  0  0.214359  0.270627  0  2.84585  0
S  S81  1  0.63372333  0.11409564  0.96528557  1  0.194853  0  0.029998  0.076147  0  2.796206  0
S  S82  1  0.36753958  0.88817830  0.97209724  1  0.203046  0  0.02961  0.075122  0  2.798118  0
N  N83  1  0.79833766  0.50295535  0.49769626  1  -1.155024  0  -0.343874  -0.385051  0  3.329882  0
N  N84  1  0.19493207  0.49843631  0.49618859  1  -1.198457  0  -0.341417  -0.380833  0  3.324524  0
N  N85  1  0.20063972  0.50419121  0.96677910  1  -1.166199  0  -0.342667  -0.380805  0  3.322738  0
N  N86  1  0.80406273  0.49870653  0.96659861  1  -1.204559  0  -0.341287  -0.37989  0  3.325774  0
N  N87  1  0.82557192  0.39255750  0.41967608  1  -1.304139  0  -0.567626  -0.614841  0  3.298449  0
N  N88  1  0.16485296  0.61596590  0.57141426  1  -1.251178  0  -0.578808  -0.618197  0  3.282687  0
N  N89  1  0.71008855  0.14514511  0.49557187  1  -1.26558  0  -0.590275  -0.599563  0  3.335402  0
N  N90  1  0.28738876  0.85445414  0.49655011  1  -1.252642  0  -0.589884  -0.59684  0  3.336596  0
N  N91  1  0.29020293  0.47947497  0.31199645  1  -1.242381  0  -0.592886  -0.603629  0  3.342315  0
N  N92  1  0.70994216  0.48923109  0.15296187  1  -1.257904  0  -0.592301  -0.603137  0  3.338053  0
N  N93  1  0.17164733  0.40010307  0.04635580  1  -1.251553  0  -0.566729  -0.615248  0  3.299094  0
N  N94  1  0.83370355  0.60589588  0.88803760  1  -1.234108  0  -0.573245  -0.621894  0  3.287177  0
N  N95  1  0.28969950  0.14768586  0.96937102  1  -1.256511  0  -0.590108  -0.599778  0  3.331238  0
N  N96  1  0.71162425  0.85466442  0.96823453  1  -1.272837  0  -0.591131  -0.597215  0  3.331124  0
O  O97  1  0.59557163  0.65691082  0.49646559  1  -1.166257  0  -0.331788  -0.555674  0  2.349523  0
O  O98  1  0.39671649  0.65870622  0.49716308  1  -1.166226  0  -0.322553  -0.552285  0  2.331141  0
O  O99  1  0.38884249  0.51669628  0.58759078  1  -1.169957  0  -0.307923  -0.554907  0  2.333249  0
O  O100  1  0.58616620  0.50157131  0.58549375  1  -1.155413  0  -0.306301  -0.530329  0  2.310891  0
O  O101  1  0.40290370  0.34301057  0.50422486  1  -1.170728  0  -0.329959  -0.551477  0  2.341544  0
O  O102  1  0.60172687  0.33952434  0.50223322  1  -1.166763  0  -0.320764  -0.548711  0  2.329159  0
O  O103  1  0.59915339  0.48468679  0.41278871  1  -1.185802  0  -0.323349  -0.567804  0  2.329633  0
O  O104  1  0.40083510  0.49239480  0.41297178  1  -1.172737  0  -0.316968  -0.545036  0  2.314282  0
O  O105  1  0.40293789  0.65899881  0.97320766  1  -1.165149  0  -0.332131  -0.55492  0  2.341123  0
O  O106  1  0.60163265  0.65992710  0.96735536  1  -1.170585  0  -0.323547  -0.553963  0  2.329647  0
O  O107  1  0.61038254  0.51152976  0.87781992  1  -1.17793  0  -0.311513  -0.55512  0  2.311104  0
O  O108  1  0.41251831  0.51049888  0.88119205  1  -1.164277  0  -0.313075  -0.543049  0  2.331404  0
O  O109  1  0.59752611  0.34363005  0.96167396  1  -1.166454  0  -0.332763  -0.557509  0  2.343895  0
O  O110  1  0.39878291  0.34128548  0.96012762  1  -1.156937  0  -0.321871  -0.550927  0  2.319888  0
O  O111  1  0.40082415  0.48171349  0.05223585  1  -1.188314  0  -0.32297  -0.567192  0  2.340634  0
O  O112  1  0.59852852  0.49688952  0.05187907  1  -1.166093  0  -0.317019  -0.545032  0  2.312951  0
O  O113  1  0.21633143  0.60519083  0.68986798  1  -1.109874  0  -0.351217  -0.508105  0  2.201035  0
O  O114  1  0.21014620  0.43092306  0.67274055  1  -1.108582  0  -0.279117  -0.434717  0  2.043603  0
