# generated using pymatgen
data_KCuH24C12(ClO3)2
_symmetry_space_group_name_H-M   'P 1'
_cell_length_a   7.82945510
_cell_length_b   8.65038114
_cell_length_c   13.74661451
_cell_angle_alpha   102.96851071
_cell_angle_beta   90.00019160
_cell_angle_gamma   89.99972187
_symmetry_Int_Tables_number   1
_chemical_formula_structural   KCuH24C12(ClO3)2
_chemical_formula_sum   'K2 Cu2 H48 C24 Cl4 O12'
_cell_volume   907.28034681
_cell_formula_units_Z   2
loop_
 _symmetry_equiv_pos_site_id
 _symmetry_equiv_pos_as_xyz
  1  'x, y, z'
loop_
 _atom_site_type_symbol
 _atom_site_label
 _atom_site_symmetry_multiplicity
 _atom_site_fract_x
 _atom_site_fract_y
 _atom_site_fract_z
 _atom_site_occupancy
 _atom_site_hle17_bader_spin_density
 _atom_site_hle17_ddec_charge
 _atom_site_hle17_ddec_spin_density
 _atom_site_hle17_ddec_sum_bond_order
 _atom_site_hle17_magmom
 _atom_site_hse06_10hf_bader_spin_density
 _atom_site_hse06_10hf_ddec_charge
 _atom_site_hse06_10hf_ddec_spin_density
 _atom_site_hse06_10hf_ddec_sum_bond_order
 _atom_site_hse06_10hf_magmom
 _atom_site_hse06_bader_spin_density
 _atom_site_hse06_ddec_charge
 _atom_site_hse06_ddec_spin_density
 _atom_site_hse06_ddec_sum_bond_order
 _atom_site_hse06_magmom
 _atom_site_pbe_bader_spin_density
 _atom_site_pbe_cm5_charge
 _atom_site_pbe_ddec_charge
 _atom_site_pbe_ddec_spin_density
 _atom_site_pbe_ddec_sum_bond_order
 _atom_site_pbe_magmom
K  K0  1  0.50000303  0.00000205  0.50000186  1  0  0.877454  0  0.520215  0  0  0.797154  0  0.730834  0  0  0.815021  0  0.707071  0  0  0.700821  0.784384  0  0.747239  0
K  K1  1  0.00000124  0.49999905  0.00000206  1  0  0.877455  0  0.520217  0  0  0.797156  0  0.730831  0  0  0.815026  0  0.707066  0  0  0.700825  0.784389  0  0.747235  0
Cu  Cu2  1  0.00000144  0.00000187  0.50000207  1  0  0.416479  0  1.793242  0  0  0.301627  0  2.28781  0  0  0.330116  0  2.226692  0  0  0.284488  0.28245  0  2.329746  0
Cu  Cu3  1  0.50000315  0.50000059  0.99999984  1  0  0.416486  0  1.793258  0  0  0.301611  0  2.287722  0  0  0.330102  0  2.226612  0  0  0.284487  0.282459  0  2.32972  0
H  H4  1  0.40936580  0.16968077  0.20495816  1  0  0.0544  0  0.94447  0  0  0.067114  0  1.013414  0  0  0.067471  0  1.013313  0  0  0.091111  0.066723  0  1.013541  0
H  H5  1  0.90936595  0.33031869  0.29504123  1  0  0.054407  0  0.944443  0  0  0.067155  0  1.013403  0  0  0.067515  0  1.013301  0  0  0.091115  0.066764  0  1.013531  0
H  H6  1  0.59063124  0.83031906  0.79504061  1  0  0.054417  0  0.944449  0  0  0.067128  0  1.013412  0  0  0.067488  0  1.013313  0  0  0.091114  0.066738  0  1.013541  0
H  H7  1  0.09063748  0.66968113  0.70495827  1  0  0.054387  0  0.9444  0  0  0.067126  0  1.013385  0  0  0.067484  0  1.01328  0  0  0.091117  0.066735  0  1.013515  0
H  H8  1  0.57536089  0.21456908  0.29663990  1  0  0.058615  0  0.93169  0  0  0.072548  0  0.998896  0  0  0.072835  0  0.999077  0  0  0.100215  0.072285  0  0.998834  0
H  H9  1  0.07536012  0.28543172  0.20335830  1  0  0.058594  0  0.931704  0  0  0.072564  0  0.998906  0  0  0.072854  0  0.999086  0  0  0.10021  0.072302  0  0.998843  0
H  H10  1  0.42463870  0.78542956  0.70335797  1  0  0.058583  0  0.931705  0  0  0.072533  0  0.998906  0  0  0.072823  0  0.999089  0  0  0.100214  0.072273  0  0.998844  0
H  H11  1  0.92464203  0.71456574  0.79664086  1  0  0.058545  0  0.931715  0  0  0.0725  0  0.998957  0  0  0.072788  0  0.999136  0  0  0.100185  0.072242  0  0.998887  0
H  H12  1  0.30060583  0.37616230  0.33542216  1  0  0.039795  0  0.957227  0  0  0.053299  0  1.029881  0  0  0.053469  0  1.029404  0  0  0.095473  0.053062  0  1.030362  0
H  H13  1  0.80060376  0.12383997  0.16457669  1  0  0.03979  0  0.957208  0  0  0.053299  0  1.029868  0  0  0.053463  0  1.029397  0  0  0.095467  0.053061  0  1.030349  0
H  H14  1  0.69939632  0.62383753  0.66457734  1  0  0.039784  0  0.957225  0  0  0.053305  0  1.029861  0  0  0.053467  0  1.029392  0  0  0.095479  0.053068  0  1.030344  0
H  H15  1  0.19939456  0.87616104  0.83542225  1  0  0.039802  0  0.957215  0  0  0.05332  0  1.029855  0  0  0.05348  0  1.029388  0  0  0.095474  0.053081  0  1.030339  0
H  H16  1  0.19784440  0.20065541  0.35389820  1  0  0.051825  0  0.939482  0  0  0.062218  0  1.014672  0  0  0.063388  0  1.012819  0  0  0.096231  0.061229  0  1.016052  0
H  H17  1  0.69784386  0.29934846  0.14610067  1  0  0.051774  0  0.939522  0  0  0.062177  0  1.01471  0  0  0.063342  0  1.012858  0  0  0.096208  0.061189  0  1.016091  0
H  H18  1  0.80215647  0.79934560  0.64610073  1  0  0.051815  0  0.939458  0  0  0.062211  0  1.014654  0  0  0.063376  0  1.012801  0  0  0.096216  0.061222  0  1.016038  0
H  H19  1  0.30216085  0.70065493  0.85390006  1  0  0.051804  0  0.939492  0  0  0.06219  0  1.014706  0  0  0.063356  0  1.012849  0  0  0.096209  0.061202  0  1.01609  0
H  H20  1  0.16304007  0.33688143  0.52638891  1  0  0.050389  0  0.95598  0  0  0.060222  0  1.031225  0  0  0.06149  0  1.029033  0  0  0.090851  0.059173  0  1.032844  0
H  H21  1  0.66303829  0.16312036  0.97360887  1  0  0.050423  0  0.955929  0  0  0.060221  0  1.031227  0  0  0.061487  0  1.029031  0  0  0.090867  0.059173  0  1.032843  0
H  H22  1  0.83696080  0.66311602  0.47360953  1  0  0.050351  0  0.955956  0  0  0.060185  0  1.03122  0  0  0.06145  0  1.029023  0  0  0.090835  0.059138  0  1.032837  0
H  H23  1  0.33696130  0.83687946  0.02639063  1  0  0.050439  0  0.955897  0  0  0.060232  0  1.031191  0  0  0.061499  0  1.028995  0  0  0.090866  0.059181  0  1.032808  0
H  H24  1  0.28264688  0.50653122  0.51043051  1  0  0.063155  0  0.934318  0  0  0.073825  0  1.003192  0  0  0.074516  0  1.002735  0  0  0.094092  0.073395  0  1.003438  0
H  H25  1  0.78264729  0.99347057  0.98956897  1  0  0.063146  0  0.934324  0  0  0.07383  0  1.003191  0  0  0.074522  0  1.002732  0  0  0.094099  0.073399  0  1.003435  0
H  H26  1  0.71735144  0.49346623  0.48957011  1  0  0.063201  0  0.934276  0  0  0.073881  0  1.00316  0  0  0.074571  0  1.0027  0  0  0.094103  0.073451  0  1.003408  0
H  H27  1  0.21735358  0.00653044  0.01043069  1  0  0.06314  0  0.934306  0  0  0.073823  0  1.003163  0  0  0.074516  0  1.002703  0  0  0.094091  0.073391  0  1.003405  0
H  H28  1  0.51076671  0.43876099  0.62376061  1  0  0.050427  0  0.934455  0  0  0.064935  0  1.00081  0  0  0.065655  0  0.999902  0  0  0.099868  0.064339  0  1.001532  0
H  H29  1  0.01076683  0.06123786  0.87623791  1  0  0.050419  0  0.934495  0  0  0.064898  0  1.000844  0  0  0.065615  0  0.999937  0  0  0.099845  0.064303  0  1.001568  0
H  H30  1  0.48923161  0.56123765  0.37623872  1  0  0.050502  0  0.934439  0  0  0.065027  0  1.000768  0  0  0.065746  0  0.999861  0  0  0.099891  0.06443  0  1.001489  0
H  H31  1  0.98923404  0.93876196  0.12376014  1  0  0.050426  0  0.934463  0  0  0.064941  0  1.000802  0  0  0.065658  0  0.999895  0  0  0.099867  0.064342  0  1.001525  0
H  H32  1  0.30878462  0.49029097  0.68344858  1  0  0.054634  0  0.953927  0  0  0.069992  0  1.019671  0  0  0.070035  0  1.020055  0  0  0.101782  0.070147  0  1.019049  0
H  H33  1  0.80878146  0.00970906  0.81655068  1  0  0.054638  0  0.953952  0  0  0.069963  0  1.019685  0  0  0.070004  0  1.020069  0  0  0.101789  0.070118  0  1.019065  0
H  H34  1  0.69121498  0.50970648  0.31654986  1  0  0.05465  0  0.953916  0  0  0.07003  0  1.019643  0  0  0.070074  0  1.020028  0  0  0.101775  0.070183  0  1.019019  0
H  H35  1  0.19121558  0.99028958  0.18344937  1  0  0.054643  0  0.953929  0  0  0.069979  0  1.019684  0  0  0.07002  0  1.020068  0  0  0.101783  0.070133  0  1.01906  0
H  H36  1  0.35744904  0.33627147  0.80739073  1  0  0.049769  0  0.949181  0  0  0.056302  0  1.03143  0  0  0.058151  0  1.028156  0  0  0.095343  0.054422  0  1.034185  0
H  H37  1  0.85744820  0.16373192  0.69260837  1  0  0.049738  0  0.949246  0  0  0.056281  0  1.031478  0  0  0.05813  0  1.028201  0  0  0.095336  0.054404  0  1.034226  0
H  H38  1  0.64255055  0.66372717  0.19260933  1  0  0.049774  0  0.949175  0  0  0.056307  0  1.031416  0  0  0.058158  0  1.028142  0  0  0.095345  0.054437  0  1.034159  0
H  H39  1  0.14254628  0.83627146  0.30739090  1  0  0.049709  0  0.949228  0  0  0.056264  0  1.031472  0  0  0.058114  0  1.028201  0  0  0.095342  0.054403  0  1.034204  0
H  H40  1  0.56815330  0.30363243  0.75733398  1  0  0.056589  0  0.938467  0  0  0.070286  0  1.006626  0  0  0.071171  0  1.005579  0  0  0.101051  0.069362  0  1.007633  0
H  H41  1  0.06815068  0.19636382  0.74266574  1  0  0.056607  0  0.938442  0  0  0.070295  0  1.006609  0  0  0.071177  0  1.005563  0  0  0.101035  0.069371  0  1.007617  0
H  H42  1  0.43184629  0.69636621  0.24266681  1  0  0.056617  0  0.938408  0  0  0.070286  0  1.00658  0  0  0.071171  0  1.005534  0  0  0.10105  0.069362  0  1.007588  0
H  H43  1  0.93184509  0.80363364  0.25733270  1  0  0.056591  0  0.938392  0  0  0.070271  0  1.006587  0  0  0.071158  0  1.005542  0  0  0.10105  0.069347  0  1.007594  0
H  H44  1  0.69575287  0.95979260  0.24772830  1  0  0.04625  0  0.945786  0  0  0.057052  0  1.021195  0  0  0.05826  0  1.019213  0  0  0.096275  0.055987  0  1.022794  0
H  H45  1  0.19574856  0.54020581  0.25227273  1  0  0.04615  0  0.945785  0  0  0.056955  0  1.021207  0  0  0.058152  0  1.019236  0  0  0.096229  0.055893  0  1.022808  0
H  H46  1  0.30424673  0.04020603  0.75227031  1  0  0.046209  0  0.945812  0  0  0.057017  0  1.021219  0  0  0.058224  0  1.019238  0  0  0.096278  0.055951  0  1.02282  0
H  H47  1  0.80425231  0.45979995  0.74773051  1  0  0.046162  0  0.945767  0  0  0.05696  0  1.02123  0  0  0.058157  0  1.019256  0  0  0.096237  0.055899  0  1.022831  0
H  H48  1  0.53874948  0.90244207  0.15124251  1  0  0.055778  0  0.936266  0  0  0.070114  0  1.002082  0  0  0.070301  0  1.002116  0  0  0.096895  0.069996  0  1.001768  0
H  H49  1  0.03874670  0.59755816  0.34875847  1  0  0.055735  0  0.936267  0  0  0.070075  0  1.002091  0  0  0.070262  0  1.002124  0  0  0.096875  0.069958  0  1.001781  0
H  H50  1  0.46124884  0.09755420  0.84875648  1  0  0.055781  0  0.936271  0  0  0.070116  0  1.002085  0  0  0.070304  0  1.002119  0  0  0.096904  0.069999  0  1.001771  0
H  H51  1  0.96125034  0.40244285  0.65124120  1  0  0.055736  0  0.936221  0  0  0.070088  0  1.002053  0  0  0.070276  0  1.002084  0  0  0.096879  0.069972  0  1.001746  0
C  C52  1  0.44557289  0.16445122  0.28197667  1  0  0.045644  0  3.677827  0  0  -0.013083  0  3.949442  0  0  -0.00722  0  3.955799  0  0  -0.079274  -0.016971  0  3.945132  0
C  C53  1  0.94557002  0.33554810  0.21802277  1  0  0.045612  0  3.677714  0  0  -0.01326  0  3.949521  0  0  -0.007405  0  3.955881  0  0  -0.079314  -0.017147  0  3.945211  0
C  C54  1  0.55442670  0.83554742  0.71802194  1  0  0.045595  0  3.677811  0  0  -0.013154  0  3.949484  0  0  -0.007312  0  3.955854  0  0  -0.079304  -0.01704  0  3.94518  0
C  C55  1  0.05443213  0.66444935  0.78197712  1  0  0.045795  0  3.677645  0  0  -0.013073  0  3.949451  0  0  -0.007214  0  3.955796  0  0  -0.079288  -0.016957  0  3.945143  0
C  C56  1  0.32266775  0.26113806  0.35555471  1  0  0.054372  0  3.691962  0  0  -0.007724  0  3.967166  0  0  -0.00124  0  3.972637  0  0  -0.079752  -0.011971  0  3.963216  0
C  C57  1  0.82266496  0.23886412  0.14444416  1  0  0.054446  0  3.691851  0  0  -0.007637  0  3.967111  0  0  -0.001139  0  3.972567  0  0  -0.079733  -0.011884  0  3.963159  0
C  C58  1  0.67733313  0.73886177  0.64444478  1  0  0.054395  0  3.691893  0  0  -0.007709  0  3.967132  0  0  -0.001206  0  3.972584  0  0  -0.079737  -0.011956  0  3.963185  0
C  C59  1  0.17733464  0.76113689  0.85555550  1  0  0.05432  0  3.691895  0  0  -0.007765  0  3.967152  0  0  -0.001264  0  3.972601  0  0  -0.079753  -0.012013  0  3.963212  0
C  C60  1  0.29277438  0.38736024  0.52665355  1  0  0.049331  0  3.662789  0  0  -0.007318  0  3.931772  0  0  -0.001234  0  3.937149  0  0  -0.080287  -0.011037  0  3.927706  0
C  C61  1  0.79277287  0.11264105  0.97334585  1  0  0.049347  0  3.6628  0  0  -0.007352  0  3.931855  0  0  -0.001262  0  3.937228  0  0  -0.080307  -0.011061  0  3.927779  0
C  C62  1  0.70722521  0.61263722  0.47334634  1  0  0.04938  0  3.662695  0  0  -0.007327  0  3.931801  0  0  -0.001229  0  3.93716  0  0  -0.08027  -0.011043  0  3.927718  0
C  C63  1  0.20722673  0.88735878  0.02665365  1  0  0.049338  0  3.662739  0  0  -0.007316  0  3.931773  0  0  -0.00123  0  3.937149  0  0  -0.080305  -0.011022  0  3.927685  0
C  C64  1  0.37641647  0.40085630  0.62677355  1  0  0.065948  0  3.664189  0  0  0.007139  0  3.932006  0  0  0.013226  0  3.93829  0  0  -0.075561  0.003171  0  3.927391  0
C  C65  1  0.87641445  0.09914465  0.87322597  1  0  0.065857  0  3.664411  0  0  0.007207  0  3.932068  0  0  0.013298  0  3.93835  0  0  -0.075566  0.003221  0  3.927466  0
C  C66  1  0.62358313  0.59914115  0.37322634  1  0  0.065829  0  3.664223  0  0  0.006992  0  3.932091  0  0  0.013076  0  3.938374  0  0  -0.075567  0.003023  0  3.927472  0
C  C67  1  0.12358387  0.90085636  0.12677370  1  0  0.065908  0  3.664189  0  0  0.007158  0  3.931949  0  0  0.013249  0  3.93823  0  0  -0.075533  0.003185  0  3.927327  0
C  C68  1  0.43634347  0.25685885  0.75061087  1  0  0.053753  0  3.672266  0  0  -0.006096  0  3.944939  0  0  0.000119  0  3.950276  0  0  -0.076891  -0.010128  0  3.94134  0
C  C69  1  0.93634254  0.24314067  0.74938784  1  0  0.0537  0  3.672337  0  0  -0.006123  0  3.945035  0  0  9.9e-05  0  3.950365  0  0  -0.076889  -0.010146  0  3.941434  0
C  C70  1  0.56365613  0.74313979  0.24938919  1  0  0.053746  0  3.672191  0  0  -0.006064  0  3.944815  0  0  0.000147  0  3.950163  0  0  -0.076896  -0.010101  0  3.941213  0
C  C71  1  0.06365323  0.75685915  0.25061093  1  0  0.053884  0  3.672142  0  0  -0.005989  0  3.944911  0  0  0.000218  0  3.950263  0  0  -0.076852  -0.010025  0  3.941302  0
C  C72  1  0.56708755  0.90796491  0.23067190  1  0  0.057967  0  3.667432  0  0  -0.002946  0  3.939634  0  0  0.00324  0  3.946122  0  0  -0.076732  -0.006842  0  3.934903  0
C  C73  1  0.06708435  0.59203639  0.26932928  1  0  0.058125  0  3.667336  0  0  -0.002791  0  3.939588  0  0  0.003407  0  3.946077  0  0  -0.076673  -0.006698  0  3.934881  0
C  C74  1  0.43291077  0.09203373  0.76932816  1  0  0.058025  0  3.667438  0  0  -0.002875  0  3.939648  0  0  0.003307  0  3.94613  0  0  -0.076747  -0.006766  0  3.93491  0
C  C75  1  0.93291525  0.40796581  0.73067200  1  0  0.058236  0  3.667087  0  0  -0.002754  0  3.939398  0  0  0.003435  0  3.945883  0  0  -0.076699  -0.006669  0  3.934697  0
Cl  Cl76  1  0.84890540  0.17413481  0.45659712  1  0  -0.596748  0  1.127667  0  0  -0.510625  0  1.459531  0  0  -0.530765  0  1.424025  0  0  -0.345878  -0.49679  0  1.483488  0
Cl  Cl77  1  0.34890989  0.32586964  0.04340577  1  0  -0.596755  0  1.127681  0  0  -0.510629  0  1.459496  0  0  -0.530772  0  1.423995  0  0  -0.345878  -0.496807  0  1.483483  0
Cl  Cl78  1  0.15109420  0.82586739  0.54340490  1  0  -0.596734  0  1.127634  0  0  -0.510623  0  1.459507  0  0  -0.530762  0  1.424  0  0  -0.345878  -0.496787  0  1.483466  0
Cl  Cl79  1  0.65109737  0.67413137  0.95659463  1  0  -0.596735  0  1.127625  0  0  -0.510602  0  1.459432  0  0  -0.530745  0  1.42393  0  0  -0.345883  -0.49678  0  1.483419  0
O  O80  1  0.44438808  0.00437474  0.29400625  1  0  -0.332953  0  2.273359  0  0  -0.25679  0  2.523206  0  0  -0.273502  0  2.52588  0  0  -0.273674  -0.245364  0  2.52115  0
O  O81  1  0.94438685  0.49562695  0.20599498  1  0  -0.332946  0  2.273323  0  0  -0.25673  0  2.5232  0  0  -0.273445  0  2.525877  0  0  -0.273628  -0.245302  0  2.521145  0
O  O82  1  0.55561024  0.99562271  0.70599291  1  0  -0.332923  0  2.273356  0  0  -0.256762  0  2.523211  0  0  -0.273463  0  2.525888  0  0  -0.273673  -0.24534  0  2.521156  0
O  O83  1  0.05562169  0.50437050  0.79400637  1  0  -0.333044  0  2.273202  0  0  -0.256788  0  2.523081  0  0  -0.273499  0  2.525753  0  0  -0.273591  -0.245357  0  2.521033  0
O  O84  1  0.39580715  0.28590990  0.45282994  1  0  -0.336463  0  2.286144  0  0  -0.263491  0  2.538545  0  0  -0.279543  0  2.540679  0  0  -0.284686  -0.252327  0  2.53654  0
O  O85  1  0.89580776  0.21409318  0.04716993  1  0  -0.33645  0  2.286143  0  0  -0.263467  0  2.538546  0  0  -0.279521  0  2.540676  0  0  -0.284673  -0.252303  0  2.536539  0
O  O86  1  0.60418989  0.71408992  0.54716956  1  0  -0.336461  0  2.286138  0  0  -0.263464  0  2.538553  0  0  -0.27952  0  2.540677  0  0  -0.284687  -0.252298  0  2.53655  0
O  O87  1  0.10419311  0.78590902  0.95283063  1  0  -0.336451  0  2.286181  0  0  -0.263455  0  2.538561  0  0  -0.27951  0  2.54069  0  0  -0.284662  -0.252294  0  2.536553  0
O  O88  1  0.37001547  0.25016303  0.65279151  1  0  -0.33946  0  2.282411  0  0  -0.266377  0  2.536526  0  0  -0.282402  0  2.538112  0  0  -0.279097  -0.255296  0  2.535392  0
O  O89  1  0.87001251  0.24983794  0.84720655  1  0  -0.339399  0  2.282584  0  0  -0.266367  0  2.53666  0  0  -0.282394  0  2.538242  0  0  -0.279077  -0.255285  0  2.535528  0
O  O90  1  0.62998668  0.74983798  0.34720888  1  0  -0.339492  0  2.282393  0  0  -0.266403  0  2.536492  0  0  -0.282428  0  2.538082  0  0  -0.279111  -0.255326  0  2.535358  0
O  O91  1  0.12998325  0.75016189  0.15279295  1  0  -0.339527  0  2.282418  0  0  -0.266459  0  2.536561  0  0  -0.28248  0  2.538147  0  0  -0.279181  -0.255388  0  2.535434  0
