# generated using pymatgen
data_AlH10C11O5
_symmetry_space_group_name_H-M   'P 1'
_cell_length_a   6.65779634
_cell_length_b   16.04326403
_cell_length_c   17.13089370
_cell_angle_alpha   78.48671151
_cell_angle_beta   90.00066958
_cell_angle_gamma   90.00055123
_symmetry_Int_Tables_number   1
_chemical_formula_structural   AlH10C11O5
_chemical_formula_sum   'Al4 H40 C44 O20'
_cell_volume   1792.98005751
_cell_formula_units_Z   4
loop_
 _symmetry_equiv_pos_site_id
 _symmetry_equiv_pos_as_xyz
  1  'x, y, z'
loop_
 _atom_site_type_symbol
 _atom_site_label
 _atom_site_symmetry_multiplicity
 _atom_site_fract_x
 _atom_site_fract_y
 _atom_site_fract_z
 _atom_site_occupancy
 _atom_site_pbe_bader_charge
 _atom_site_pbe_bader_spin_density
 _atom_site_pbe_cm5_charge
 _atom_site_pbe_ddec_charge
 _atom_site_pbe_ddec_spin_density
 _atom_site_pbe_ddec_sum_bond_order
 _atom_site_pbe_magmom
Al  Al0  1  0.88612045  0.49988030  0.50404779  1  2.501535  0  0.39784  1.646037  0  2.579149  0
Al  Al1  1  0.38612010  0.50011797  0.49596036  1  2.50152  0  0.397846  1.645864  0  2.5795  0
Al  Al2  1  0.34713562  0.99798269  0.99854385  1  2.50062  0  0.398049  1.643838  0  2.58437  0
Al  Al3  1  0.84713318  0.00201622  0.00145696  1  2.500625  0  0.397925  1.643693  0  2.584614  0
H  H4  1  0.37379773  0.80785923  0.85715298  1  0.097319  0  0.109086  0.117198  0  0.996491  0
H  H5  1  0.87382206  0.19215260  0.14285555  1  0.097337  0  0.109059  0.117241  0  0.996482  0
H  H6  1  0.76864326  0.89708912  0.81028966  1  0.079302  0  0.110402  0.120039  0  0.994314  0
H  H7  1  0.26867271  0.10290652  0.18970364  1  0.079532  0  0.110419  0.120064  0  0.994413  0
H  H8  1  0.50958887  0.69584970  0.78899684  1  0.094996  0  0.101721  0.10269  0  1.009344  0
H  H9  1  0.00957968  0.30416812  0.21100321  1  0.095091  0  0.10176  0.102755  0  1.009019  0
H  H10  1  0.72658257  0.80458505  0.71016347  1  0.072596  0  0.101795  0.103839  0  1.008985  0
H  H11  1  0.22658394  0.19541077  0.28982782  1  0.072453  0  0.101759  0.102906  0  1.01013  0
H  H12  1  0.46754921  0.60386720  0.68846333  1  0.11202  0  0.110141  0.1189  0  0.994477  0
H  H13  1  0.96752600  0.39615357  0.31153430  1  0.112044  0  0.110086  0.118831  0  0.99463  0
H  H14  1  0.86091077  0.69185366  0.64321328  1  0.092749  0  0.108987  0.116579  0  0.997861  0
H  H15  1  0.36089267  0.30814913  0.35678102  1  0.092614  0  0.109053  0.116602  0  0.997762  0
H  H16  1  0.12495168  0.89420797  0.27333383  1  0.01642  0  0.093295  0.088601  0  0.975166  0
H  H17  1  0.62492984  0.10578644  0.72666171  1  0.016658  0  0.093277  0.088511  0  0.975248  0
H  H18  1  0.15762949  0.78307361  0.38290542  1  0.009  0  0.092228  0.086896  0  0.978072  0
H  H19  1  0.65764905  0.21692445  0.61709144  1  0.008778  0  0.092268  0.086934  0  0.978094  0
H  H20  1  0.38365107  0.74986092  0.34422144  1  0.027794  0  0.092352  0.089348  0  0.991867  0
H  H21  1  0.88365541  0.25013611  0.65578968  1  0.027822  0  0.092317  0.089336  0  0.99185  0
H  H22  1  0.37328831  0.75791524  0.14924728  1  0.01898  0  0.091862  0.087814  0  0.996794  0
H  H23  1  0.87327407  0.24207855  0.85075490  1  0.019071  0  0.091853  0.08774  0  0.99671  0
H  H24  1  0.37932510  0.64165036  0.25636187  1  0.048197  0  0.094306  0.093869  0  0.989579  0
H  H25  1  0.87930884  0.35834500  0.74364508  1  0.047945  0  0.09433  0.093929  0  0.989582  0
H  H26  1  0.81224304  0.75967932  0.16488415  1  -0.00731  0  0.088592  0.081428  0  0.988912  0
H  H27  1  0.31222940  0.24031562  0.83510760  1  -0.007279  0  0.088651  0.081406  0  0.988991  0
H  H28  1  0.80071189  0.83583896  0.22565609  1  0.022013  0  0.091964  0.089656  0  0.987457  0
H  H29  1  0.30070187  0.16415519  0.77433620  1  0.021754  0  0.091948  0.089602  0  0.987669  0
H  H30  1  0.82411643  0.72902262  0.33985625  1  0.025167  0  0.089028  0.082138  0  0.99296  0
H  H31  1  0.32411462  0.27097240  0.66013853  1  0.025174  0  0.089088  0.082188  0  0.993042  0
H  H32  1  0.81919469  0.65249994  0.27944712  1  0.036458  0  0.092604  0.090343  0  0.985431  0
H  H33  1  0.31918926  0.34749417  0.72054586  1  0.036478  0  0.092586  0.090312  0  0.98547  0
H  H34  1  0.15108350  0.71669640  0.11510810  1  0.028164  0  0.091981  0.086407  0  0.977408  0
H  H35  1  0.65107358  0.28329479  0.88489177  1  0.028124  0  0.092025  0.086441  0  0.977354  0
H  H36  1  0.14831414  0.60496958  0.22516910  1  0.023665  0  0.092572  0.088275  0  0.975817  0
H  H37  1  0.64830357  0.39502373  0.77483252  1  0.023665  0  0.092579  0.088321  0  0.975795  0
H  H38  1  0.35844427  0.86553093  0.23711067  1  0.04433  0  0.094742  0.093871  0  0.98796  0
H  H39  1  0.85843262  0.13446056  0.76289324  1  0.044396  0  0.094755  0.093969  0  0.98786  0
H  H40  1  0.63959631  0.60904797  0.46270228  1  0.629754  0  0.352422  0.427366  0  0.860953  0
H  H41  1  0.13959521  0.39094867  0.53729807  1  0.629701  0  0.352402  0.427433  0  0.860871  0
H  H42  1  0.60121489  0.89080581  0.03663359  1  0.628764  0  0.352404  0.426302  0  0.861441  0
H  H43  1  0.10121400  0.10919932  0.96338549  1  0.628693  0  0.352417  0.426326  0  0.861538  0
C  C44  1  0.63182943  0.38507573  0.61606407  1  1.552204  0  0.276742  0.643174  0  4.020983  0
C  C45  1  0.13182843  0.61492465  0.38393918  1  1.552159  0  0.276803  0.643267  0  4.021034  0
C  C46  1  0.64207851  0.41095804  0.40069668  1  1.575876  0  0.261704  0.632658  0  4.11142  0
C  C47  1  0.14207862  0.58904658  0.59930122  1  1.575674  0  0.261884  0.63301  0  4.111439  0
C  C48  1  0.07475601  0.85712007  0.83910100  1  -0.020097  0  -0.017064  -0.040887  0  3.996008  0
C  C49  1  0.57477700  0.14288501  0.16089595  1  -0.020178  0  -0.017142  -0.040889  0  3.995567  0
C  C50  1  0.16045210  0.64309327  0.66053816  1  -0.033907  0  -0.016809  -0.03753  0  3.990861  0
C  C51  1  0.66043791  0.35691430  0.33945802  1  -0.034252  0  -0.016805  -0.037586  0  3.991206  0
C  C52  1  0.36898795  0.69585150  0.75623986  1  -0.098709  0  -0.091059  -0.138029  0  4.007468  0
C  C53  1  0.86896197  0.30416447  0.24375731  1  -0.09831  0  -0.091065  -0.137879  0  4.007599  0
C  C54  1  0.34582769  0.64442877  0.70150749  1  -0.009151  0  -0.087848  -0.103638  0  3.997523  0
C  C55  1  0.84580811  0.35558763  0.29849312  1  -0.009563  0  -0.087759  -0.103577  0  3.997939  0
C  C56  1  0.00248594  0.69401646  0.67489159  1  -0.069998  0  -0.077117  -0.13932  0  3.930073  0
C  C57  1  0.50246319  0.30599053  0.32510319  1  -0.07155  0  -0.077155  -0.139148  0  3.92983  0
C  C58  1  0.02440708  0.74964720  0.72891395  1  0.040986  0  -0.005559  0.076149  0  4.004398  0
C  C59  1  0.52440041  0.25035991  0.27108392  1  0.044322  0  -0.005609  0.076183  0  4.003821  0
C  C60  1  0.21131622  0.75055732  0.77079367  1  -0.07678  0  -0.005627  0.078173  0  4.001578  0
C  C61  1  0.71132668  0.24944977  0.22920932  1  -0.07694  0  -0.005714  0.077859  0  4.0021  0
C  C62  1  0.23273719  0.80600385  0.82505573  1  -0.030922  0  -0.076834  -0.138888  0  3.928794  0
C  C63  1  0.73275321  0.19400273  0.17495035  1  -0.031245  0  -0.076754  -0.138919  0  3.928808  0
C  C64  1  0.88998177  0.85615186  0.79764652  1  -0.013322  0  -0.087059  -0.102726  0  4.00078  0
C  C65  1  0.38999708  0.14384460  0.20235215  1  -0.013161  0  -0.087172  -0.102797  0  4.00046  0
C  C66  1  0.86693566  0.80457559  0.74308519  1  -0.063006  0  -0.091328  -0.13808  0  4.01072  0
C  C67  1  0.36693934  0.19542574  0.25691034  1  -0.064513  0  -0.09122  -0.13726  0  4.010854  0
C  C68  1  0.20918771  0.84108817  0.25727827  1  -0.038933  0  -0.154034  -0.167694  0  3.845235  0
C  C69  1  0.70917599  0.15890663  0.74272067  1  -0.038953  0  -0.153996  -0.167693  0  3.845001  0
C  C70  1  0.22584056  0.76610967  0.32967155  1  -0.001263  0  -0.15522  -0.169833  0  3.85604  0
C  C71  1  0.72583746  0.23389071  0.67032801  1  -0.000996  0  -0.155275  -0.169924  0  3.85614  0
C  C72  1  0.22051857  0.73613257  0.16696460  1  -0.023922  0  -0.156342  -0.169535  0  3.856911  0
C  C73  1  0.72050728  0.26386392  0.83303557  1  -0.023765  0  -0.156359  -0.169495  0  3.856781  0
C  C74  1  0.88829590  0.78151761  0.21415402  1  0.004037  0  -0.163536  -0.177533  0  3.895312  0
C  C75  1  0.38827941  0.21847966  0.78583751  1  0.004444  0  -0.163523  -0.177333  0  3.895421  0
C  C76  1  0.10094224  0.81157797  0.18754552  1  0.066719  0  -0.015239  0.011293  0  3.815689  0
C  C77  1  0.60092791  0.18842137  0.81245281  1  0.065782  0  -0.015274  0.011315  0  3.815563  0
C  C78  1  0.11844690  0.68672898  0.31123392  1  0.045886  0  -0.014974  0.01199  0  3.812948  0
C  C79  1  0.61844835  0.31326670  0.68876752  1  0.045879  0  -0.014946  0.012007  0  3.81318  0
C  C80  1  0.22449756  0.66092585  0.23942920  1  -0.02851  0  -0.155249  -0.168697  0  3.852062  0
C  C81  1  0.72448738  0.33906830  0.76057339  1  -0.028328  0  -0.15527  -0.168815  0  3.852297  0
C  C82  1  0.89855931  0.70965005  0.28904981  1  -0.027004  0  -0.163254  -0.178599  0  3.891699  0
C  C83  1  0.39855884  0.29034628  0.71094356  1  -0.027051  0  -0.163355  -0.178722  0  3.891972  0
C  C84  1  0.59153676  0.08886624  0.09954884  1  1.573507  0  0.261218  0.631687  0  4.114018  0
C  C85  1  0.09152386  0.91113305  0.90044945  1  1.573439  0  0.261194  0.631708  0  4.114247  0
C  C86  1  0.59758317  0.11575497  0.88457326  1  1.554635  0  0.278197  0.645234  0  4.020226  0
C  C87  1  0.09761810  0.88424346  0.11542329  1  1.554246  0  0.27809  0.645005  0  4.020108  0
O  O88  1  0.46665896  0.43055667  0.42099856  1  -1.259408  0  -0.240911  -0.593729  0  2.323174  0
O  O89  1  0.96668744  0.56944642  0.57900638  1  -1.259614  0  -0.24098  -0.593907  0  2.323789  0
O  O90  1  0.80562113  0.41278315  0.59259047  1  -1.273151  0  -0.237155  -0.599895  0  2.332643  0
O  O91  1  0.30562772  0.58722073  0.40741245  1  -1.272998  0  -0.237211  -0.599958  0  2.332487  0
O  O92  1  0.80748053  0.43155427  0.42890555  1  -1.257121  0  -0.237298  -0.59397  0  2.371428  0
O  O93  1  0.30750829  0.56844375  0.57109862  1  -1.256879  0  -0.237433  -0.594128  0  2.371121  0
O  O94  1  0.96769224  0.58785507  0.41741945  1  -1.266336  0  -0.230989  -0.593263  0  2.391828  0
O  O95  1  0.46768638  0.41214497  0.58257899  1  -1.266168  0  -0.230949  -0.593173  0  2.391735  0
O  O96  1  0.63567301  0.55193152  0.49456976  1  -1.435196  0  -0.449461  -0.991321  0  2.205633  0
O  O97  1  0.13566907  0.44806751  0.50543411  1  -1.435066  0  -0.449449  -0.991478  0  2.205597  0
O  O98  1  0.76699671  0.08985417  0.91440519  1  -1.270889  0  -0.236363  -0.601772  0  2.366239  0
O  O99  1  0.26702538  0.91016071  0.08561940  1  -1.27095  0  -0.235991  -0.601398  0  2.366733  0
O  O100  1  0.42521252  0.06597411  0.07391004  1  -1.253466  0  -0.2371  -0.591678  0  2.376971  0
O  O101  1  0.92516499  0.93406226  0.92606164  1  -1.253228  0  -0.237068  -0.59179  0  2.376397  0
O  O102  1  0.42816380  0.08583990  0.91078840  1  -1.272212  0  -0.232429  -0.59164  0  2.355559  0
O  O103  1  0.92817664  0.91413138  0.08918160  1  -1.271928  0  -0.232746  -0.591728  0  2.354934  0
O  O104  1  0.26607297  0.92852304  0.92344979  1  -1.259331  0  -0.241067  -0.594387  0  2.323044  0
O  O105  1  0.76611518  0.07145087  0.07657701  1  -1.258837  0  -0.241013  -0.594327  0  2.322305  0
O  O106  1  0.59902807  0.94815461  0.00523682  1  -1.433716  0  -0.449216  -0.988971  0  2.209705  0
O  O107  1  0.09903901  0.05184162  0.99476452  1  -1.433704  0  -0.449235  -0.989007  0  2.20995  0
