# generated using pymatgen
data_ZnC12(ClO)4
_symmetry_space_group_name_H-M   'P 1'
_cell_length_a   27.94769369
_cell_length_b   27.94792855
_cell_length_c   27.94754549
_cell_angle_alpha   109.47250418
_cell_angle_beta   109.46970642
_cell_angle_gamma   109.47097072
_symmetry_Int_Tables_number   1
_chemical_formula_structural   ZnC12(ClO)4
_chemical_formula_sum   'Zn6 C72 Cl24 O24'
_cell_volume   16804.28178555
_cell_formula_units_Z   6
loop_
 _symmetry_equiv_pos_site_id
 _symmetry_equiv_pos_as_xyz
  1  'x, y, z'
loop_
 _atom_site_type_symbol
 _atom_site_label
 _atom_site_symmetry_multiplicity
 _atom_site_fract_x
 _atom_site_fract_y
 _atom_site_fract_z
 _atom_site_occupancy
 _atom_site_pbe_bader_charge
 _atom_site_pbe_bader_spin_density
 _atom_site_pbe_cm5_charge
 _atom_site_pbe_ddec_charge
 _atom_site_pbe_ddec_spin_density
 _atom_site_pbe_ddec_sum_bond_order
 _atom_site_pbe_magmom
Zn  Zn0  1  0.00000019  0.54036684  0.54036512  1  1.311844  0  0.746167  0.982854  0  2.049752  0
Zn  Zn1  1  0.54036793  0.99999959  0.54036466  1  1.299266  0  0.746171  0.982825  0  2.049801  0
Zn  Zn2  1  0.45963161  0.45963071  0.99999678  1  1.299274  0  0.74618  0.982787  0  2.050021  0
Zn  Zn3  1  0.54036673  0.54036572  0.99999679  1  1.312102  0  0.74623  0.982766  0  2.049796  0
Zn  Zn4  1  0.45963468  0.00000087  0.45963081  1  1.311884  0  0.746204  0.982888  0  2.04978  0
Zn  Zn5  1  0.00000015  0.45963640  0.45963391  1  1.29922  0  0.74606  0.982713  0  2.050021  0
C  C6  1  0.91985564  0.41985783  0.50000456  1  1.656978  0  0.229214  0.67168  0  4.219147  0
C  C7  1  0.91986655  0.50000107  0.41986972  1  1.651423  0  0.229783  0.6727  0  4.2172  0
C  C8  1  0.50000101  0.33756003  0.83755612  1  -0.353158  0  -0.028018  -0.018914  0  4.125223  0
C  C9  1  0.16246015  0.66246052  0.49999867  1  -0.357942  0  -0.027743  -0.019417  0  4.124791  0
C  C10  1  0.83755826  0.49999965  0.33755982  1  -0.356153  0  -0.028083  -0.019438  0  4.126089  0
C  C11  1  0.83753910  0.33753920  0.50000197  1  -0.35703  0  -0.027679  -0.01928  0  4.124469  0
C  C12  1  0.16243848  0.49999931  0.66243765  1  -0.354915  0  -0.028286  -0.019619  0  4.125435  0
C  C13  1  0.49999672  0.83753853  0.33753920  1  -0.353904  0  -0.027564  -0.018622  0  4.124288  0
C  C14  1  0.33756036  0.83755401  0.49999580  1  -0.357151  0  -0.0277  -0.018673  0  4.125609  0
C  C15  1  0.50000103  0.16246363  0.66246266  1  -0.354949  0  -0.027659  -0.01873  0  4.124478  0
C  C16  1  0.66244179  0.16244598  0.50000490  1  -0.354907  0  -0.027832  -0.018654  0  4.125615  0
C  C17  1  0.66246444  0.50000049  0.16246457  1  -0.358194  0  -0.027517  -0.018495  0  4.123574  0
C  C18  1  0.58014734  0.50000165  0.08014587  1  1.654985  0  0.229214  0.671699  0  4.21931  0
C  C19  1  0.49999908  0.66243659  0.16244035  1  -0.351549  0  -0.027919  -0.019454  0  4.125362  0
C  C20  1  0.33753560  0.50000090  0.83753577  1  -0.357631  0  -0.027537  -0.018375  0  4.123734  0
C  C21  1  0.08012927  0.50000179  0.58013228  1  1.652602  0  0.229742  0.67237  0  4.217286  0
C  C22  1  0.87528156  0.49999880  0.37528207  1  0.192126  0  -0.026299  -0.146242  0  3.903284  0
C  C23  1  0.49999517  0.87526007  0.37526066  1  0.192101  0  -0.02514  -0.144941  0  3.902104  0
C  C24  1  0.12471623  0.50000033  0.62471526  1  0.189719  0  -0.026098  -0.145857  0  3.902447  0
C  C25  1  0.50000105  0.12474100  0.62473951  1  0.194476  0  -0.024957  -0.144667  0  3.901792  0
C  C26  1  0.37528070  0.87527670  0.49999596  1  0.193304  0  -0.026274  -0.146411  0  3.903087  0
C  C27  1  0.62474025  0.49999957  0.12474176  1  0.196267  0  -0.025078  -0.144838  0  3.901136  0
C  C28  1  0.62471893  0.12472383  0.50000564  1  0.190248  0  -0.026229  -0.146409  0  3.903215  0
C  C29  1  0.37525748  0.49999907  0.87525720  1  0.19421  0  -0.02511  -0.144904  0  3.901327  0
C  C30  1  0.50000039  0.62471437  0.12471766  1  0.18851  0  -0.026066  -0.145761  0  3.902602  0
C  C31  1  0.12473910  0.62474019  0.50000009  1  0.195812  0  -0.025048  -0.144572  0  3.902453  0
C  C32  1  0.50000041  0.37528866  0.87528350  1  0.190688  0  -0.026181  -0.146327  0  3.902727  0
C  C33  1  0.87526113  0.37526138  0.50000310  1  0.194239  0  -0.025013  -0.144468  0  3.902187  0
C  C34  1  0.41986799  0.91986812  0.50000002  1  1.652874  0  0.229956  0.672867  0  4.217298  0
C  C35  1  0.08014671  0.58014806  0.50000185  1  1.654369  0  0.229149  0.671783  0  4.218985  0
C  C36  1  0.58013330  0.08013627  0.50000358  1  1.655133  0  0.229738  0.672569  0  4.217698  0
C  C37  1  0.49999938  0.08014343  0.58014330  1  1.6551  0  0.229262  0.671754  0  4.219089  0
C  C38  1  0.50000305  0.58012989  0.08012979  1  1.654399  0  0.229829  0.672383  0  4.2172  0
C  C39  1  0.49999692  0.91985378  0.41985422  1  1.657343  0  0.229198  0.671942  0  4.218765  0
C  C40  1  0.50000349  0.41987405  0.91986901  1  1.652847  0  0.229844  0.672601  0  4.217228  0
C  C41  1  0.41985457  0.50000204  0.91985352  1  1.657457  0  0.229234  0.671765  0  4.21915  0
C  C42  1  0.70292743  0.44646351  0.20019864  1  0.119004  0  0.01634  0.050035  0  4.022332  0
C  C43  1  0.49832194  0.70068839  0.25426546  1  0.115239  0  0.016149  0.049764  0  4.02287  0
C  C44  1  0.24609422  0.50240984  0.79964591  1  0.117192  0  0.016044  0.049841  0  4.02319  0
C  C45  1  0.44645051  0.24368902  0.74613417  1  0.166746  0  0.016374  0.050706  0  4.022958  0
C  C46  1  0.29723656  0.49759136  0.74368444  1  0.112  0  0.016094  0.049914  0  4.0231  0
C  C47  1  0.50166850  0.75593355  0.20236218  1  0.175561  0  0.016212  0.04982  0  4.022708  0
C  C48  1  0.75373372  0.55353649  0.25646531  1  0.123617  0  0.016271  0.049879  0  4.022538  0
C  C49  1  0.55355252  0.29968607  0.79723726  1  0.157128  0  0.016352  0.05056  0  4.023127  0
C  C50  1  0.25572630  0.75452307  0.55358488  1  0.153777  0  0.016727  0.049654  0  4.022417  0
C  C51  1  0.79694101  0.55352392  0.29994873  1  0.162131  0  0.016936  0.051469  0  4.021307  0
C  C52  1  0.74400638  0.29758198  0.49825320  1  0.069711  0  0.01631  0.049877  0  4.021907  0
C  C53  1  0.20288371  0.50268126  0.75642427  1  0.157845  0  0.016435  0.050647  0  4.022617  0
C  C54  1  0.79933248  0.24576178  0.50175856  1  0.09603  0  0.016293  0.049704  0  4.022284  0
C  C55  1  0.74642279  0.44647606  0.24341929  1  0.169621  0  0.016875  0.051329  0  4.021354  0
C  C56  1  0.20094168  0.70213481  0.44640914  1  0.159944  0  0.016595  0.049426  0  4.02262  0
C  C57  1  0.25374384  0.49731937  0.70020104  1  0.165585  0  0.016407  0.050558  0  4.022567  0
C  C58  1  0.50138207  0.79914481  0.24556707  1  0.096608  0  0.017101  0.051198  0  4.021248  0
C  C59  1  0.24415717  0.74562657  0.44641583  1  0.069228  0  0.016828  0.051392  0  4.021996  0
C  C60  1  0.44644356  0.20046572  0.70264753  1  0.105932  0  0.016425  0.050195  0  4.022603  0
C  C61  1  0.70052404  0.25409156  0.49798282  1  0.163377  0  0.016421  0.050776  0  4.022333  0
C  C62  1  0.55356070  0.25620708  0.75402124  1  0.123075  0  0.016442  0.050181  0  4.022372  0
C  C63  1  0.29921289  0.79772850  0.55357674  1  0.076941  0  0.016771  0.051245  0  4.021909  0
C  C64  1  0.49860650  0.74418010  0.29776210  1  0.152119  0  0.017073  0.051084  0  4.021305  0
C  C65  1  0.75611255  0.20255088  0.50202936  1  0.153341  0  0.016467  0.050888  0  4.022445  0
C  C66  1  0.70616174  0.50000026  0.20616159  1  0.086506  0  -0.002753  0.037601  0  4.082257  0
C  C67  1  0.49999586  0.70612476  0.20612815  1  0.124719  0  -0.003026  0.036944  0  4.082025  0
C  C68  1  0.29383829  0.50000067  0.79383814  1  0.092022  0  -0.002992  0.037045  0  4.08239  0
C  C69  1  0.50000144  0.29387477  0.79387141  1  0.186943  0  -0.003418  0.035303  0  4.083255  0
C  C70  1  0.20615604  0.70615309  0.49999719  1  0.175254  0  -0.003206  0.038249  0  4.080438  0
C  C71  1  0.79386945  0.50000004  0.29387131  1  0.185378  0  -0.003406  0.035716  0  4.081078  0
C  C72  1  0.79384444  0.29384655  0.50000553  1  0.153103  0  -0.002907  0.038313  0  4.080326  0
C  C73  1  0.20612688  0.49999983  0.70612566  1  0.190444  0  -0.003196  0.035932  0  4.082708  0
C  C74  1  0.49999490  0.79384138  0.29384287  1  0.151874  0  -0.003485  0.036638  0  4.081153  0
C  C75  1  0.29387177  0.79386393  0.49999609  1  0.174824  0  -0.003283  0.035841  0  4.082226  0
C  C76  1  0.50000196  0.20616209  0.70616072  1  0.084663  0  -0.003124  0.037214  0  4.082325  0
C  C77  1  0.70613009  0.20613315  0.50000566  1  0.182908  0  -0.003257  0.035557  0  4.082733  0
Cl  Cl78  1  0.74295613  0.38210579  0.23655676  1  -0.158082  0  0.016722  -0.030684  0  1.529597  0
Cl  Cl79  1  0.75709550  0.61787813  0.26332825  1  -0.154215  0  0.016523  -0.030852  0  1.529366  0
Cl  Cl80  1  0.64019805  0.25819128  0.49580160  1  -0.1498  0  0.016923  -0.030384  0  1.529748  0
Cl  Cl81  1  0.24251985  0.50551308  0.86043719  1  -0.153033  0  0.016899  -0.030491  0  1.530027  0
Cl  Cl82  1  0.76239585  0.14440957  0.50421585  1  -0.149838  0  0.016872  -0.030433  0  1.52983  0
Cl  Cl83  1  0.64544610  0.38212158  0.13922087  1  -0.157979  0  0.01655  -0.030856  0  1.529314  0
Cl  Cl84  1  0.23818037  0.74121732  0.38197565  1  -0.15106  0  0.016669  -0.03066  0  1.529318  0
Cl  Cl85  1  0.35492687  0.49449269  0.73700947  1  -0.153516  0  0.016931  -0.030449  0  1.529972  0
Cl  Cl86  1  0.50345145  0.76201301  0.14401014  1  -0.148968  0  0.016856  -0.030312  0  1.52984  0
Cl  Cl87  1  0.14084957  0.64371039  0.38198718  1  -0.144829  0  0.016447  -0.030712  0  1.529745  0
Cl  Cl88  1  0.38204702  0.23715532  0.74230608  1  -0.156914  0  0.017216  -0.030013  0  1.530216  0
Cl  Cl89  1  0.49671517  0.73808034  0.35607751  1  -0.148416  0  0.016527  -0.030867  0  1.528737  0
Cl  Cl90  1  0.73771666  0.35569539  0.49597972  1  -0.14978  0  0.016788  -0.030702  0  1.529719  0
Cl  Cl91  1  0.61795611  0.36026232  0.85510536  1  -0.149734  0  0.017193  -0.029975  0  1.530293  0
Cl  Cl92  1  0.26172280  0.75885034  0.61800682  1  -0.150608  0  0.01647  -0.030678  0  1.529638  0
Cl  Cl93  1  0.49653879  0.64055621  0.25856628  1  -0.151195  0  0.016871  -0.030292  0  1.529779  0
Cl  Cl94  1  0.85972180  0.24174819  0.50403614  1  -0.149598  0  0.016795  -0.030654  0  1.529758  0
Cl  Cl95  1  0.14517371  0.50568880  0.76310380  1  -0.15459  0  0.017154  -0.03005  0  1.529944  0
Cl  Cl96  1  0.38206411  0.13981939  0.64480390  1  -0.148241  0  0.016685  -0.030714  0  1.529646  0
Cl  Cl97  1  0.25741575  0.49431149  0.63948307  1  -0.153283  0  0.017164  -0.030023  0  1.529881  0
Cl  Cl98  1  0.50327079  0.85934751  0.24135315  1  -0.151227  0  0.016524  -0.030906  0  1.528826  0
Cl  Cl99  1  0.85444572  0.61789317  0.36085432  1  -0.15783  0  0.016731  -0.030688  0  1.529535  0
Cl  Cl100  1  0.61794084  0.26274504  0.75775249  1  -0.154814  0  0.016723  -0.030648  0  1.529615  0
Cl  Cl101  1  0.35924445  0.85618747  0.61801719  1  -0.145403  0  0.016572  -0.030759  0  1.529358  0
O  O102  1  0.93734333  0.47295991  0.53532468  1  -1.129341  0  -0.306024  -0.537497  0  2.219697  0
O  O103  1  0.46468055  0.52700623  0.06262861  1  -1.12759  0  -0.306508  -0.537977  0  2.219059  0
O  O104  1  0.53561508  0.06265381  0.59797651  1  -1.126108  0  -0.30599  -0.537446  0  2.219474  0
O  O105  1  0.53532110  0.59794769  0.06232922  1  -1.126545  0  -0.306423  -0.537909  0  2.219531  0
O  O106  1  0.46467657  0.93764225  0.40202361  1  -1.125971  0  -0.30612  -0.537705  0  2.219406  0
O  O107  1  0.53561998  0.47299328  0.93767209  1  -1.126213  0  -0.306501  -0.538033  0  2.219557  0
O  O108  1  0.53531867  0.93734402  0.47296201  1  -1.129237  0  -0.306037  -0.537633  0  2.219341  0
O  O109  1  0.46437871  0.40205278  0.93737330  1  -1.126408  0  -0.306612  -0.538151  0  2.219034  0
O  O110  1  0.40201821  0.46467882  0.93763976  1  -1.126068  0  -0.306006  -0.537506  0  2.219088  0
O  O111  1  0.93766856  0.53561822  0.47299019  1  -1.125392  0  -0.306553  -0.538224  0  2.219752  0
O  O112  1  0.47295737  0.53532203  0.93734321  1  -1.129216  0  -0.30603  -0.537472  0  2.219778  0
O  O113  1  0.40204775  0.93737110  0.46438253  1  -1.126976  0  -0.306563  -0.538187  0  2.219334  0
O  O114  1  0.93737067  0.46437611  0.40204805  1  -1.126307  0  -0.306642  -0.538225  0  2.2189  0
O  O115  1  0.52703930  0.46438237  0.06236387  1  -1.125712  0  -0.305957  -0.53737  0  2.219107  0
O  O116  1  0.06262640  0.46467547  0.52700471  1  -1.127413  0  -0.306556  -0.53814  0  2.219006  0
O  O117  1  0.59797882  0.53561624  0.06265924  1  -1.126179  0  -0.305939  -0.537411  0  2.219792  0
O  O118  1  0.06232788  0.53531941  0.59794995  1  -1.125703  0  -0.306495  -0.538004  0  2.219675  0
O  O119  1  0.93764097  0.40201928  0.46467811  1  -1.126227  0  -0.306088  -0.537571  0  2.218995  0
O  O120  1  0.47298738  0.93766927  0.53562064  1  -1.125318  0  -0.306471  -0.538052  0  2.219336  0
O  O121  1  0.06265731  0.59798017  0.53561953  1  -1.126206  0  -0.30613  -0.537697  0  2.219449  0
O  O122  1  0.59795174  0.06233393  0.53532324  1  -1.126845  0  -0.306497  -0.538094  0  2.219482  0
O  O123  1  0.06236162  0.52703869  0.46438099  1  -1.125892  0  -0.306106  -0.537628  0  2.21922  0
O  O124  1  0.52701173  0.06263401  0.46468200  1  -1.127953  0  -0.306523  -0.538087  0  2.219495  0
O  O125  1  0.46438165  0.06235940  0.52703704  1  -1.12594  0  -0.306072  -0.537549  0  2.219345  0
