# generated using pymatgen
data_AlH7C15BrO5
_symmetry_space_group_name_H-M   'P 1'
_cell_length_a   6.62502989
_cell_length_b   11.16554513
_cell_length_c   15.19686592
_cell_angle_alpha   83.92866818
_cell_angle_beta   77.69936954
_cell_angle_gamma   72.24213979
_symmetry_Int_Tables_number   1
_chemical_formula_structural   AlH7C15BrO5
_chemical_formula_sum   'Al2 H14 C30 Br2 O10'
_cell_volume   1044.99999541
_cell_formula_units_Z   2
loop_
 _symmetry_equiv_pos_site_id
 _symmetry_equiv_pos_as_xyz
  1  'x, y, z'
loop_
 _atom_site_type_symbol
 _atom_site_label
 _atom_site_symmetry_multiplicity
 _atom_site_fract_x
 _atom_site_fract_y
 _atom_site_fract_z
 _atom_site_occupancy
 _atom_site_pbe_bader_charge
 _atom_site_pbe_bader_spin_density
 _atom_site_pbe_cm5_charge
 _atom_site_pbe_ddec_charge
 _atom_site_pbe_ddec_spin_density
 _atom_site_pbe_ddec_sum_bond_order
 _atom_site_pbe_magmom
Al  Al0  1  0.50094572  0.50182217  0.50114593  1  2.502478  0  0.390325  1.644607  0  2.574017  0
Al  Al1  1  0.00230195  0.49836733  0.50213714  1  2.500248  0  0.392468  1.64281  0  2.571154  0
H  H2  1  0.30126251  0.35438383  0.56277647  1  0.618627  0  0.333126  0.410799  0  0.898815  0
H  H3  1  0.70192650  0.65272448  0.45678363  1  0.610753  0  0.34728  0.422674  0  0.871488  0
H  H4  1  0.28499216  0.59739231  0.76825296  1  0.103118  0  0.110428  0.122168  0  0.991789  0
H  H5  1  0.01981718  0.66503925  0.91061964  1  0.061433  0  0.105006  0.108414  0  0.989054  0
H  H6  1  0.95321779  0.41318547  0.77764824  1  0.087878  0  0.108504  0.11961  0  0.99122  0
H  H7  1  0.06614588  0.33953797  0.92556900  1  0.095687  0  0.105337  0.108811  0  0.986741  0
H  H8  1  0.71400279  0.40403408  0.23442368  1  0.066649  0  0.109494  0.118938  0  0.990503  0
H  H9  1  0.97828118  0.33473155  0.09223388  1  0.0541  0  0.105012  0.109213  0  0.989537  0
H  H10  1  0.04469972  0.58627295  0.22553237  1  0.11895  0  0.108576  0.117922  0  0.994949  0
H  H11  1  0.93151816  0.65964712  0.07722362  1  0.052438  0  0.104192  0.107908  0  0.989008  0
H  H12  1  0.19393840  0.23621036  0.36894000  1  0.071918  0  0.108  0.116325  0  1.023309  0
H  H13  1  0.51734991  0.12057218  0.26569680  1  0.073807  0  0.104263  0.101346  0  0.990863  0
H  H14  1  0.41905993  0.76734824  0.37600337  1  0.106268  0  0.107752  0.111457  0  1.031611  0
H  H15  1  0.62955224  0.88494238  0.26914937  1  0.088481  0  0.104691  0.101461  0  0.988033  0
C  C16  1  0.86229459  0.27453278  0.49473617  1  1.651655  0  0.26978  0.655442  0  4.108309  0
C  C17  1  0.67733158  0.50232476  0.66428034  1  1.598819  0  0.261415  0.637218  0  4.105778  0
C  C18  1  0.13645214  0.72667202  0.50810714  1  1.560303  0  0.271903  0.662752  0  4.095631  0
C  C19  1  0.32259607  0.49792914  0.33873253  1  1.536853  0  0.26698  0.640855  0  4.092062  0
C  C20  1  0.41038605  0.55742168  0.80828191  1  0.064796  0  -0.081452  -0.148352  0  3.925133  0
C  C21  1  0.35853679  0.56024785  0.90266014  1  -0.056389  0  -0.008105  0.073802  0  4.04645  0
C  C22  1  0.14438306  0.61887963  0.95003312  1  -0.078294  0  -0.086567  -0.125692  0  4.008373  0
C  C23  1  0.78808722  0.45187982  0.81375415  1  -0.031908  0  -0.080722  -0.147731  0  3.933882  0
C  C24  1  0.74080677  0.44504441  0.90822656  1  -0.01334  0  -0.008731  0.072854  0  4.050519  0
C  C25  1  0.90215526  0.38349026  0.96089224  1  -0.16903  0  -0.086975  -0.124935  0  4.012978  0
C  C26  1  0.58819593  0.44332502  0.19451859  1  0.059648  0  -0.082636  -0.152798  0  3.938123  0
C  C27  1  0.63968439  0.43976500  0.10019390  1  0.028735  0  -0.00902  0.072712  0  4.051911  0
C  C28  1  0.85369197  0.38085139  0.05283919  1  0.068442  0  -0.089932  -0.133837  0  4.017905  0
C  C29  1  0.20999016  0.54795382  0.18938726  1  -0.133036  0  -0.081911  -0.153023  0  3.937061  0
C  C30  1  0.25710014  0.55464339  0.09480890  1  0.033059  0  -0.008661  0.073212  0  4.05101  0
C  C31  1  0.09577778  0.61595105  0.04201627  1  0.041785  0  -0.089772  -0.13202  0  4.0152  0
C  C32  1  0.62359926  0.50499257  0.76453978  1  -0.103732  0  -0.01972  -0.036506  0  4.027222  0
C  C33  1  0.52420525  0.50128808  0.95359595  1  -0.066383  0  0.001818  -0.001323  0  3.913062  0
C  C34  1  0.37508955  0.49549966  0.23842541  1  -0.046136  0  -0.018972  -0.037475  0  4.029755  0
C  C35  1  0.47372285  0.49849813  0.04935567  1  -0.030646  0  0.003083  0.000899  0  3.913322  0
C  C36  1  0.93104112  0.13333243  0.49751795  1  0.036593  0  -0.009329  -0.113503  0  3.926716  0
C  C37  1  0.11952050  0.06856549  0.43632502  1  -0.115907  0  0.001598  0.068486  0  3.954719  0
C  C38  1  0.81582922  0.06700971  0.56015094  1  0.010179  0  -0.015444  0.039298  0  3.949222  0
C  C39  1  0.24242364  0.13377825  0.37181494  1  -0.011306  0  -0.08719  -0.125659  0  3.952368  0
C  C40  1  0.42383863  0.06874784  0.31384910  1  -0.018596  0  -0.088252  -0.076421  0  4.029529  0
C  C41  1  0.06377095  0.86793435  0.50502775  1  0.055987  0  -0.01019  -0.117028  0  3.925749  0
C  C42  1  0.88323023  0.93325943  0.56442783  1  -0.08426  0  -0.01763  0.037105  0  3.963931  0
C  C43  1  0.18594651  0.93353058  0.43958460  1  0.070649  0  0.001266  0.071057  0  3.953539  0
C  C44  1  0.37010953  0.86964522  0.37668195  1  -0.025398  0  -0.091203  -0.136813  0  3.965446  0
C  C45  1  0.48739544  0.93580590  0.31602486  1  -0.100761  0  -0.089708  -0.07692  0  4.036561  0
Br  Br46  1  0.73318732  0.84412736  0.65490814  1  -0.011535  0  0.049656  -0.020418  0  1.507905  0
Br  Br47  1  0.57561065  0.15442872  0.64598085  1  -0.034163  0  0.06053  -0.023272  0  1.524274  0
O  O48  1  0.67532492  0.33114911  0.47919963  1  -1.25279  0  -0.229399  -0.579886  0  2.358919  0
O  O49  1  0.86409074  0.51044159  0.62640376  1  -1.264084  0  -0.240332  -0.599785  0  2.365288  0
O  O50  1  0.00527668  0.67132626  0.49460063  1  -1.255388  0  -0.230118  -0.591356  0  2.374654  0
O  O51  1  0.46106929  0.51824084  0.37759355  1  -1.259754  0  -0.239086  -0.595296  0  2.338672  0
O  O52  1  0.32742656  0.67337893  0.52056876  1  -1.252595  0  -0.22835  -0.58  0  2.346106  0
O  O53  1  0.14134958  0.48213747  0.37738419  1  -1.262197  0  -0.237412  -0.588168  0  2.338404  0
O  O54  1  0.99813920  0.32646867  0.50836458  1  -1.252385  0  -0.225112  -0.57745  0  2.352106  0
O  O55  1  0.53411311  0.48950258  0.62483064  1  -1.256613  0  -0.239296  -0.603643  0  2.373721  0
O  O56  1  0.26536845  0.44097323  0.53902523  1  -1.428279  0  -0.450519  -0.986466  0  2.223096  0
O  O57  1  0.73901949  0.56155317  0.46375857  1  -1.415435  0  -0.450737  -0.984378  0  2.188833  0
