# generated using pymatgen
data_Sr3H18C28(N2O9)2
_symmetry_space_group_name_H-M   'P 1'
_cell_length_a   9.09953362
_cell_length_b   10.42969199
_cell_length_c   18.60693616
_cell_angle_alpha   104.09771191
_cell_angle_beta   89.99977005
_cell_angle_gamma   90.00023169
_symmetry_Int_Tables_number   1
_chemical_formula_structural   Sr3H18C28(N2O9)2
_chemical_formula_sum   'Sr6 H36 C56 N8 O36'
_cell_volume   1712.71171682
_cell_formula_units_Z   2
loop_
 _symmetry_equiv_pos_site_id
 _symmetry_equiv_pos_as_xyz
  1  'x, y, z'
loop_
 _atom_site_type_symbol
 _atom_site_label
 _atom_site_symmetry_multiplicity
 _atom_site_fract_x
 _atom_site_fract_y
 _atom_site_fract_z
 _atom_site_occupancy
 _atom_site_hle17_bader_spin_density
 _atom_site_hle17_ddec_charge
 _atom_site_hle17_ddec_spin_density
 _atom_site_hle17_ddec_sum_bond_order
 _atom_site_hle17_magmom
 _atom_site_hse06_10hf_bader_spin_density
 _atom_site_hse06_10hf_ddec_charge
 _atom_site_hse06_10hf_ddec_spin_density
 _atom_site_hse06_10hf_ddec_sum_bond_order
 _atom_site_hse06_10hf_magmom
 _atom_site_hse06_bader_spin_density
 _atom_site_hse06_ddec_charge
 _atom_site_hse06_ddec_spin_density
 _atom_site_hse06_ddec_sum_bond_order
 _atom_site_hse06_magmom
 _atom_site_pbe_bader_spin_density
 _atom_site_pbe_cm5_charge
 _atom_site_pbe_ddec_charge
 _atom_site_pbe_ddec_spin_density
 _atom_site_pbe_ddec_sum_bond_order
 _atom_site_pbe_magmom
Sr  Sr0  1  0.94640322  0.07237803  0.90479095  1  0  1.587984  0  1.119774  0  0  1.426625  0  1.503734  0  0  1.467726  0  1.45693  0  0  0.950674  1.396353  0  1.537064  0
Sr  Sr1  1  0.44639952  0.92762089  0.59520850  1  0  1.587997  0  1.119721  0  0  1.426616  0  1.503706  0  0  1.467673  0  1.456977  0  0  0.950671  1.396345  0  1.537029  0
Sr  Sr2  1  0.05359901  0.92762229  0.09520630  1  0  1.587951  0  1.1198  0  0  1.426692  0  1.50358  0  0  1.467746  0  1.456855  0  0  0.950698  1.396426  0  1.536904  0
Sr  Sr3  1  0.55359941  0.07237943  0.40478876  1  0  1.587997  0  1.119757  0  0  1.426542  0  1.503872  0  0  1.467689  0  1.456984  0  0  0.950668  1.396273  0  1.5372  0
Sr  Sr4  1  0.00000147  0.50000048  0.99999818  1  0  1.55875  0  1.16983  0  0  1.3958  0  1.552782  0  0  1.436289  0  1.508496  0  0  0.977838  1.366353  0  1.583865  0
Sr  Sr5  1  0.50000057  0.50000015  0.50000078  1  0  1.558751  0  1.1698  0  0  1.39581  0  1.552723  0  0  1.436273  0  1.508472  0  0  0.977828  1.366368  0  1.583806  0
H  H6  1  0.90872135  0.50718856  0.81270332  1  0  0.106574  0  0.949146  0  0  0.11603  0  1.011406  0  0  0.119662  0  1.00941  0  0  0.115801  0.113448  0  1.012908  0
H  H7  1  0.40872148  0.49280729  0.68729686  1  0  0.106544  0  0.949144  0  0  0.115988  0  1.011435  0  0  0.11962  0  1.00944  0  0  0.11576  0.113405  0  1.012939  0
H  H8  1  0.09128198  0.49280878  0.18729729  1  0  0.106525  0  0.949147  0  0  0.11599  0  1.011411  0  0  0.119621  0  1.009416  0  0  0.115764  0.113407  0  1.012915  0
H  H9  1  0.59128295  0.50719697  0.31270470  1  0  0.106565  0  0.949122  0  0  0.116023  0  1.011389  0  0  0.119655  0  1.009395  0  0  0.115784  0.113439  0  1.012891  0
H  H10  1  0.70860265  0.48634202  0.71625361  1  0  0.104807  0  0.934678  0  0  0.114983  0  0.991207  0  0  0.118082  0  0.98968  0  0  0.111976  0.112621  0  0.992604  0
H  H11  1  0.20860319  0.51365820  0.78375025  1  0  0.104858  0  0.934593  0  0  0.115011  0  0.991155  0  0  0.118112  0  0.989626  0  0  0.111962  0.112648  0  0.992555  0
H  H12  1  0.29139738  0.51365630  0.28374982  1  0  0.104872  0  0.934586  0  0  0.115022  0  0.991145  0  0  0.118122  0  0.989617  0  0  0.111972  0.112659  0  0.992544  0
H  H13  1  0.79139795  0.48634112  0.21625116  1  0  0.104871  0  0.93459  0  0  0.115013  0  0.991158  0  0  0.118112  0  0.989632  0  0  0.111963  0.11265  0  0.992555  0
H  H14  1  0.60678703  0.69562997  0.69022581  1  0  0.123866  0  0.954609  0  0  0.131039  0  1.018305  0  0  0.135692  0  1.014857  0  0  0.123882  0.127716  0  1.020782  0
H  H15  1  0.10678749  0.30436403  0.80977633  1  0  0.123815  0  0.954624  0  0  0.130996  0  1.018316  0  0  0.135651  0  1.014867  0  0  0.123845  0.127672  0  1.020793  0
H  H16  1  0.39320531  0.30436340  0.30977855  1  0  0.123897  0  0.954564  0  0  0.131004  0  1.018343  0  0  0.135658  0  1.014896  0  0  0.123864  0.12768  0  1.020821  0
H  H17  1  0.89320925  0.69563134  0.19022294  1  0  0.123873  0  0.954568  0  0  0.13095  0  1.018388  0  0  0.135594  0  1.014938  0  0  0.12386  0.127627  0  1.020865  0
H  H18  1  0.62405357  0.97990302  0.92030489  1  0  0.413712  0  0.83594  0  0  0.396465  0  0.891917  0  0  0.403839  0  0.883912  0  0  0.31993  0.391166  0  0.897748  0
H  H19  1  0.12405679  0.02009697  0.57969534  1  0  0.4137  0  0.83596  0  0  0.396452  0  0.891942  0  0  0.403826  0  0.883935  0  0  0.319918  0.391152  0  0.897773  0
H  H20  1  0.37594536  0.02009926  0.07969801  1  0  0.413677  0  0.835938  0  0  0.396427  0  0.891929  0  0  0.4038  0  0.883924  0  0  0.319914  0.391128  0  0.89776  0
H  H21  1  0.87594765  0.97990334  0.42030406  1  0  0.413673  0  0.835996  0  0  0.396419  0  0.891986  0  0  0.403792  0  0.883983  0  0  0.319918  0.39112  0  0.897816  0
H  H22  1  0.69893951  0.97911639  0.99683479  1  0  0.424641  0  0.884397  0  0  0.391311  0  0.952797  0  0  0.402757  0  0.936094  0  0  0.293939  0.38326  0  0.964553  0
H  H23  1  0.19894116  0.02088282  0.50316466  1  0  0.424651  0  0.884388  0  0  0.391326  0  0.952778  0  0  0.402773  0  0.936075  0  0  0.293938  0.383275  0  0.964533  0
H  H24  1  0.30106052  0.02088490  0.00316690  1  0  0.424686  0  0.884332  0  0  0.391355  0  0.952731  0  0  0.402802  0  0.936027  0  0  0.293963  0.383304  0  0.964487  0
H  H25  1  0.80105778  0.97911848  0.49683435  1  0  0.424665  0  0.88436  0  0  0.391341  0  0.952746  0  0  0.402787  0  0.936045  0  0  0.293949  0.383291  0  0.964502  0
H  H26  1  0.42582921  0.42968395  0.85831862  1  0  0.108889  0  0.973358  0  0  0.116403  0  1.037765  0  0  0.119227  0  1.037408  0  0  0.108472  0.114326  0  1.038213  0
H  H27  1  0.92582417  0.57031787  0.64168342  1  0  0.10902  0  0.973343  0  0  0.116577  0  1.037669  0  0  0.119409  0  1.037304  0  0  0.108581  0.11448  0  1.038138  0
H  H28  1  0.57417193  0.57031538  0.14167957  1  0  0.108907  0  0.973396  0  0  0.116456  0  1.037764  0  0  0.119278  0  1.037409  0  0  0.108476  0.114401  0  1.03819  0
H  H29  1  0.07417696  0.42968639  0.35831653  1  0  0.108931  0  0.97335  0  0  0.116465  0  1.037715  0  0  0.119292  0  1.037352  0  0  0.108529  0.114369  0  1.038183  0
H  H30  1  0.32137908  0.65580899  0.91684464  1  0  0.115709  0  0.953055  0  0  0.125377  0  1.009218  0  0  0.129448  0  1.006212  0  0  0.117488  0.12242  0  1.011502  0
H  H31  1  0.82137897  0.34419155  0.58315636  1  0  0.115639  0  0.953038  0  0  0.125323  0  1.0092  0  0  0.129393  0  1.006196  0  0  0.117472  0.122367  0  1.011484  0
H  H32  1  0.67862095  0.34419033  0.08315731  1  0  0.115701  0  0.953007  0  0  0.125409  0  1.00913  0  0  0.129479  0  1.006125  0  0  0.117518  0.122453  0  1.011414  0
H  H33  1  0.17861996  0.65581470  0.41684279  1  0  0.115723  0  0.952902  0  0  0.125406  0  1.00906  0  0  0.129476  0  1.006054  0  0  0.117516  0.12245  0  1.011343  0
H  H34  1  0.48309039  0.82067689  0.00072127  1  0  0.120593  0  0.982045  0  0  0.125689  0  1.048268  0  0  0.130881  0  1.043997  0  0  0.10942  0.121831  0  1.051644  0
H  H35  1  0.98309272  0.17932306  0.49928022  1  0  0.120528  0  0.982095  0  0  0.125663  0  1.048288  0  0  0.130861  0  1.04401  0  0  0.10941  0.121806  0  1.051662  0
H  H36  1  0.51690524  0.17932440  0.99928149  1  0  0.120527  0  0.982097  0  0  0.125652  0  1.048316  0  0  0.130837  0  1.044052  0  0  0.109413  0.121794  0  1.05169  0
H  H37  1  0.01690402  0.82067824  0.50071986  1  0  0.120499  0  0.982113  0  0  0.125647  0  1.048304  0  0  0.130825  0  1.04405  0  0  0.109393  0.121788  0  1.051678  0
H  H38  1  0.67881869  0.16644870  0.80860698  1  0  0.407812  0  0.894627  0  0  0.373744  0  0.974171  0  0  0.388652  0  0.953675  0  0  0.302305  0.36331  0  0.986321  0
H  H39  1  0.17881597  0.83355045  0.69139250  1  0  0.407834  0  0.894627  0  0  0.373686  0  0.974278  0  0  0.388597  0  0.95378  0  0  0.302304  0.363252  0  0.98649  0
H  H40  1  0.32117256  0.83355063  0.19139175  1  0  0.407804  0  0.894582  0  0  0.373749  0  0.974153  0  0  0.388658  0  0.953656  0  0  0.30231  0.363314  0  0.986269  0
H  H41  1  0.82118407  0.16644987  0.30860315  1  0  0.407793  0  0.894692  0  0  0.373645  0  0.974338  0  0  0.388556  0  0.953839  0  0  0.302289  0.363212  0  0.986554  0
C  C42  1  0.90492594  0.72010906  0.83845482  1  0  0.10059  0  3.735159  0  0  0.105103  0  3.986669  0  0  0.104809  0  4.004849  0  0  0.122006  0.104897  0  3.974909  0
C  C43  1  0.40492639  0.27988679  0.66154268  1  0  0.100328  0  3.735281  0  0  0.104859  0  3.986764  0  0  0.104563  0  4.004944  0  0  0.121898  0.104728  0  3.974897  0
C  C44  1  0.09507299  0.27989126  0.16154351  1  0  0.100406  0  3.73503  0  0  0.104938  0  3.986553  0  0  0.104642  0  4.004734  0  0  0.121957  0.104807  0  3.974686  0
C  C45  1  0.59507254  0.72011551  0.33845431  1  0  0.100316  0  3.735284  0  0  0.104836  0  3.986767  0  0  0.10454  0  4.004952  0  0  0.121805  0.104691  0  3.974918  0
C  C46  1  0.85925424  0.59388589  0.79972187  1  0  -0.097894  0  3.690573  0  0  -0.126191  0  3.946938  0  0  -0.129013  0  3.966619  0  0  -0.068877  -0.124395  0  3.933913  0
C  C47  1  0.35925935  0.40611377  0.70028108  1  0  -0.097708  0  3.690402  0  0  -0.126013  0  3.946774  0  0  -0.128834  0  3.966455  0  0  -0.068767  -0.124242  0  3.933729  0
C  C48  1  0.14074140  0.40611343  0.20028062  1  0  -0.097717  0  3.690381  0  0  -0.126026  0  3.946737  0  0  -0.128846  0  3.966419  0  0  -0.068784  -0.124254  0  3.933691  0
C  C49  1  0.64074728  0.59389049  0.29972209  1  0  -0.097738  0  3.690451  0  0  -0.126038  0  3.946806  0  0  -0.12886  0  3.966488  0  0  -0.068767  -0.124261  0  3.933762  0
C  C50  1  0.74901691  0.58295529  0.74651665  1  0  -0.022237  0  3.721262  0  0  -0.035217  0  3.975945  0  0  -0.034999  0  3.994522  0  0  -0.066517  -0.035153  0  3.963246  0
C  C51  1  0.24902054  0.41704505  0.75348500  1  0  -0.022341  0  3.721308  0  0  -0.035295  0  3.975994  0  0  -0.035077  0  3.99457  0  0  -0.066547  -0.035232  0  3.963301  0
C  C52  1  0.25098093  0.41704402  0.25348638  1  0  -0.022412  0  3.72146  0  0  -0.035369  0  3.976137  0  0  -0.035151  0  3.994717  0  0  -0.066602  -0.035305  0  3.96344  0
C  C53  1  0.75097949  0.58295329  0.24651413  1  0  -0.022408  0  3.721323  0  0  -0.035356  0  3.975991  0  0  -0.035138  0  3.994563  0  0  -0.066563  -0.035294  0  3.963303  0
C  C54  1  0.69131318  0.69789729  0.73190313  1  0  -0.09425  0  3.668507  0  0  -0.120856  0  3.91697  0  0  -0.123068  0  3.934446  0  0  -0.06281  -0.119252  0  3.905091  0
C  C55  1  0.19130957  0.30210092  0.76809619  1  0  -0.094183  0  3.668518  0  0  -0.120768  0  3.916968  0  0  -0.122982  0  3.934449  0  0  -0.06278  -0.119164  0  3.905089  0
C  C56  1  0.30868576  0.30210401  0.26809748  1  0  -0.094233  0  3.668748  0  0  -0.120811  0  3.917177  0  0  -0.123027  0  3.934661  0  0  -0.062773  -0.119202  0  3.905292  0
C  C57  1  0.80868937  0.69789841  0.23190308  1  0  -0.094177  0  3.668564  0  0  -0.120683  0  3.917057  0  0  -0.12288  0  3.934523  0  0  -0.062779  -0.119081  0  3.905181  0
C  C58  1  0.74655899  0.81985823  0.77148647  1  0  0.100142  0  3.739315  0  0  0.106871  0  3.983227  0  0  0.10669  0  4.000984  0  0  0.123164  0.106767  0  3.971423  0
C  C59  1  0.24655953  0.18013815  0.72851357  1  0  0.100104  0  3.739148  0  0  0.106788  0  3.983156  0  0  0.106606  0  4.000914  0  0  0.123133  0.106679  0  3.971361  0
C  C60  1  0.25343006  0.18014306  0.22851576  1  0  0.100186  0  3.739173  0  0  0.106998  0  3.982966  0  0  0.106819  0  4.000721  0  0  0.123201  0.106881  0  3.971182  0
C  C61  1  0.75344050  0.81985822  0.27148314  1  0  0.1002  0  3.739157  0  0  0.106813  0  3.983164  0  0  0.106629  0  4.000923  0  0  0.123157  0.106704  0  3.971368  0
C  C62  1  0.01209095  0.73869072  0.90290130  1  0  0.652753  0  3.910375  0  0  0.600306  0  4.210434  0  0  0.63462  0  4.200486  0  0  0.232488  0.577053  0  4.216564  0
C  C63  1  0.51208815  0.26130402  0.59709575  1  0  0.652795  0  3.910452  0  0  0.600384  0  4.21044  0  0  0.634697  0  4.200497  0  0  0.232523  0.577111  0  4.216561  0
C  C64  1  0.98791238  0.26130862  0.09709475  1  0  0.652833  0  3.910461  0  0  0.600404  0  4.210481  0  0  0.634717  0  4.200535  0  0  0.232557  0.577131  0  4.216605  0
C  C65  1  0.48791408  0.73869728  0.40290433  1  0  0.652759  0  3.91055  0  0  0.600358  0  4.210517  0  0  0.634672  0  4.200572  0  0  0.232551  0.577089  0  4.216637  0
C  C66  1  0.68661561  0.94815616  0.75915103  1  0  0.661994  0  3.860793  0  0  0.610539  0  4.155051  0  0  0.644975  0  4.144595  0  0  0.242249  0.587058  0  4.161664  0
C  C67  1  0.18661545  0.05183412  0.74084667  1  0  0.661994  0  3.860767  0  0  0.610523  0  4.155101  0  0  0.644961  0  4.144645  0  0  0.242222  0.587041  0  4.161713  0
C  C68  1  0.31337783  0.05184215  0.24085293  1  0  0.661992  0  3.860971  0  0  0.61054  0  4.155203  0  0  0.644977  0  4.144749  0  0  0.2422  0.587062  0  4.161814  0
C  C69  1  0.81338348  0.94816126  0.25914991  1  0  0.661881  0  3.861049  0  0  0.610544  0  4.155172  0  0  0.644982  0  4.144717  0  0  0.242204  0.587063  0  4.161788  0
C  C70  1  0.63411559  0.47595008  0.91251873  1  0  0.081542  0  3.802445  0  0  0.087723  0  4.050505  0  0  0.085876  0  4.07168  0  0  0.114627  0.088793  0  4.036205  0
C  C71  1  0.13411888  0.52404696  0.58748323  1  0  0.081665  0  3.802566  0  0  0.08777  0  4.050714  0  0  0.085923  0  4.07189  0  0  0.114616  0.08884  0  4.03641  0
C  C72  1  0.36588444  0.52404727  0.08748026  1  0  0.081508  0  3.802509  0  0  0.087648  0  4.050581  0  0  0.085799  0  4.071756  0  0  0.11458  0.088717  0  4.036286  0
C  C73  1  0.86588336  0.47595038  0.41251684  1  0  0.081638  0  3.802447  0  0  0.087808  0  4.050512  0  0  0.085962  0  4.071684  0  0  0.114631  0.088878  0  4.036209  0
C  C74  1  0.49059409  0.50532565  0.89535043  1  0  -0.094482  0  3.683745  0  0  -0.122458  0  3.936849  0  0  -0.12509  0  3.957431  0  0  -0.071198  -0.120578  0  3.922922  0
C  C75  1  0.99058791  0.49467537  0.60465083  1  0  -0.094803  0  3.68368  0  0  -0.122787  0  3.936826  0  0  -0.125427  0  3.957402  0  0  -0.071341  -0.120889  0  3.92291  0
C  C76  1  0.50940705  0.49467565  0.10464857  1  0  -0.09455  0  3.683796  0  0  -0.122539  0  3.936907  0  0  -0.125169  0  3.957487  0  0  -0.071227  -0.120678  0  3.92297  0
C  C77  1  0.00940883  0.50532692  0.39534884  1  0  -0.094661  0  3.683732  0  0  -0.122654  0  3.936853  0  0  -0.125287  0  3.957434  0  0  -0.071275  -0.120759  0  3.922936  0
C  C78  1  0.43455291  0.63065082  0.92724085  1  0  -0.002044  0  3.668746  0  0  -0.016686  0  3.919866  0  0  -0.015962  0  3.93693  0  0  -0.057299  -0.017021  0  3.908128  0
C  C79  1  0.93454751  0.36935302  0.57275876  1  0  -0.001774  0  3.66851  0  0  -0.01644  0  3.919664  0  0  -0.015714  0  3.936729  0  0  -0.057227  -0.016775  0  3.907921  0
C  C80  1  0.56545262  0.36935147  0.07275882  1  0  -0.00194  0  3.668512  0  0  -0.016612  0  3.919671  0  0  -0.015885  0  3.936731  0  0  -0.057262  -0.016949  0  3.907939  0
C  C81  1  0.06545142  0.63065126  0.42723850  1  0  -0.001931  0  3.668493  0  0  -0.016587  0  3.919655  0  0  -0.015862  0  3.936716  0  0  -0.057275  -0.016922  0  3.907911  0
C  C82  1  0.52458502  0.72235661  0.97437504  1  0  -0.102521  0  3.66519  0  0  -0.127268  0  3.914414  0  0  -0.130222  0  3.932279  0  0  -0.071593  -0.125213  0  3.902654  0
C  C83  1  0.02458327  0.27764506  0.52562723  1  0  -0.102488  0  3.665051  0  0  -0.127279  0  3.914309  0  0  -0.130236  0  3.93217  0  0  -0.07159  -0.125225  0  3.902549  0
C  C84  1  0.47541611  0.27764368  0.02562866  1  0  -0.102468  0  3.66505  0  0  -0.127307  0  3.914321  0  0  -0.13026  0  3.932191  0  0  -0.071609  -0.125253  0  3.90256  0
C  C85  1  0.97541566  0.72235426  0.47437257  1  0  -0.102408  0  3.665087  0  0  -0.127237  0  3.914331  0  0  -0.130183  0  3.932207  0  0  -0.071562  -0.125182  0  3.902569  0
C  C86  1  0.66591519  0.68338136  0.98960657  1  0  0.099836  0  3.751697  0  0  0.105103  0  4.000709  0  0  0.104771  0  4.019984  0  0  0.117768  0.105038  0  3.987804  0
C  C87  1  0.16591485  0.31661676  0.51039386  1  0  0.099731  0  3.751816  0  0  0.105007  0  4.000851  0  0  0.104672  0  4.020129  0  0  0.117732  0.104943  0  3.987942  0
C  C88  1  0.33408595  0.31661697  0.01039417  1  0  0.099795  0  3.751803  0  0  0.105179  0  4.000726  0  0  0.104855  0  4.019999  0  0  0.117762  0.105112  0  3.98782  0
C  C89  1  0.83408409  0.68338157  0.48960635  1  0  0.099742  0  3.751986  0  0  0.105096  0  4.000944  0  0  0.104767  0  4.020217  0  0  0.117771  0.105031  0  3.988035  0
C  C90  1  0.70223649  0.34348819  0.87970719  1  0  0.634908  0  3.849668  0  0  0.583855  0  4.147927  0  0  0.617504  0  4.138922  0  0  0.242982  0.560953  0  4.153414  0
C  C91  1  0.20223133  0.65650312  0.62029331  1  0  0.634803  0  3.849671  0  0  0.583788  0  4.147906  0  0  0.617438  0  4.138897  0  0  0.242939  0.560885  0  4.153395  0
C  C92  1  0.29776464  0.65650521  0.12028965  1  0  0.634899  0  3.849616  0  0  0.583928  0  4.147774  0  0  0.617578  0  4.138763  0  0  0.243  0.561025  0  4.153262  0
C  C93  1  0.79776760  0.34349323  0.37970877  1  0  0.634864  0  3.849733  0  0  0.583819  0  4.147989  0  0  0.617468  0  4.138983  0  0  0.242982  0.560917  0  4.153478  0
C  C94  1  0.77018396  0.77462512  0.04119895  1  0  0.623863  0  3.937861  0  0  0.571774  0  4.234269  0  0  0.604662  0  4.22725  0  0  0.215037  0.549607  0  4.238149  0
C  C95  1  0.27018502  0.22538016  0.45880262  1  0  0.624092  0  3.937827  0  0  0.57199  0  4.234229  0  0  0.604879  0  4.227216  0  0  0.215102  0.54982  0  4.238102  0
C  C96  1  0.22981938  0.22537718  0.95880019  1  0  0.623996  0  3.937654  0  0  0.571814  0  4.234158  0  0  0.604699  0  4.227144  0  0  0.215091  0.549647  0  4.238032  0
C  C97  1  0.72981611  0.77461816  0.54120081  1  0  0.624179  0  3.937582  0  0  0.572011  0  4.234082  0  0  0.6049  0  4.227059  0  0  0.215134  0.549844  0  4.237958  0
N  N98  1  0.84964320  0.83041768  0.82423108  1  0  -0.372106  0  3.214749  0  0  -0.333687  0  3.468902  0  0  -0.343011  0  3.485177  0  0  -0.341227  -0.327072  0  3.458178  0
N  N99  1  0.34964412  0.16957801  0.67576704  1  0  -0.371949  0  3.214884  0  0  -0.333513  0  3.469027  0  0  -0.342832  0  3.485301  0  0  -0.341125  -0.326922  0  3.458278  0
N  N100  1  0.15035024  0.16957966  0.17576899  1  0  -0.372085  0  3.214549  0  0  -0.333702  0  3.468681  0  0  -0.34302  0  3.484954  0  0  -0.341225  -0.327108  0  3.457935  0
N  N101  1  0.65035701  0.83042429  0.32423156  1  0  -0.371941  0  3.2147  0  0  -0.333478  0  3.468854  0  0  -0.342806  0  3.485133  0  0  -0.341077  -0.326882  0  3.458108  0
N  N102  1  0.71934964  0.56208908  0.95970516  1  0  -0.385266  0  3.220281  0  0  -0.343079  0  3.470551  0  0  -0.354547  0  3.491105  0  0  -0.340873  -0.33475  0  3.456569  0
N  N103  1  0.21934741  0.43791315  0.54029627  1  0  -0.38529  0  3.220461  0  0  -0.343068  0  3.470725  0  0  -0.354535  0  3.49128  0  0  -0.340851  -0.334737  0  3.45674  0
N  N104  1  0.28065150  0.43790927  0.04029236  1  0  -0.385283  0  3.220372  0  0  -0.343107  0  3.470608  0  0  -0.354577  0  3.491164  0  0  -0.340853  -0.334777  0  3.456623  0
N  N105  1  0.78065372  0.56209012  0.45970569  1  0  -0.385328  0  3.22063  0  0  -0.343162  0  3.470876  0  0  -0.354631  0  3.491432  0  0  -0.34091  -0.334832  0  3.456891  0
O  O106  1  0.02738744  0.85474074  0.94406960  1  0  -0.70142  0  1.962676  0  0  -0.636559  0  2.202114  0  0  -0.663105  0  2.19207  0  0  -0.356848  -0.617879  0  2.208464  0
O  O107  1  0.52739213  0.14525602  0.55592770  1  0  -0.701488  0  1.962655  0  0  -0.636621  0  2.202094  0  0  -0.663172  0  2.192051  0  0  -0.356912  -0.617942  0  2.208449  0
O  O108  1  0.97261369  0.14525959  0.05592658  1  0  -0.701443  0  1.962662  0  0  -0.636623  0  2.202149  0  0  -0.663166  0  2.192106  0  0  -0.356913  -0.617946  0  2.208508  0
O  O109  1  0.47261230  0.85474529  0.44407077  1  0  -0.701458  0  1.962719  0  0  -0.636591  0  2.20214  0  0  -0.663142  0  2.192094  0  0  -0.356906  -0.617914  0  2.208496  0
O  O110  1  0.07443343  0.63499547  0.91234930  1  0  -0.697235  0  1.959429  0  0  -0.638626  0  2.204575  0  0  -0.663789  0  2.191952  0  0  -0.379581  -0.620972  0  2.212857  0
O  O111  1  0.57442899  0.36500141  0.58765007  1  0  -0.697206  0  1.959447  0  0  -0.63863  0  2.204594  0  0  -0.663791  0  2.191975  0  0  -0.379557  -0.620979  0  2.212884  0
O  O112  1  0.92557100  0.36500584  0.08764863  1  0  -0.697196  0  1.959462  0  0  -0.638617  0  2.204628  0  0  -0.66378  0  2.192008  0  0  -0.37956  -0.620959  0  2.212903  0
O  O113  1  0.42557545  0.63499889  0.41235095  1  0  -0.697169  0  1.959502  0  0  -0.638586  0  2.204621  0  0  -0.663747  0  2.192  0  0  -0.379546  -0.620935  0  2.212907  0
O  O114  1  0.74482624  0.05363514  0.80081543  1  0  -0.654337  0  2.116328  0  0  -0.588306  0  2.346375  0  0  -0.615831  0  2.331801  0  0  -0.341311  -0.56897  0  2.355035  0
O  O115  1  0.24481958  0.94635630  0.69918177  1  0  -0.65429  0  2.116441  0  0  -0.588237  0  2.346548  0  0  -0.615757  0  2.331973  0  0  -0.341275  -0.568901  0  2.355234  0
O  O116  1  0.25517380  0.94636715  0.19918639  1  0  -0.654235  0  2.116471  0  0  -0.588269  0  2.346542  0  0  -0.615787  0  2.331968  0  0  -0.341285  -0.568932  0  2.355188  0
O  O117  1  0.75517936  0.05364008  0.30081171  1  0  -0.654268  0  2.116655  0  0  -0.588243  0  2.346697  0  0  -0.615774  0  2.332121  0  0  -0.341294  -0.568906  0  2.355386  0
O  O118  1  0.58650626  0.94613303  0.71332663  1  0  -0.634031  0  1.98894  0  0  -0.585313  0  2.230795  0  0  -0.608774  0  2.2186  0  0  -0.350668  -0.568907  0  2.238909  0
O  O119  1  0.08650684  0.05386191  0.78667406  1  0  -0.63397  0  1.989059  0  0  -0.585237  0  2.230931  0  0  -0.608707  0  2.218733  0  0  -0.350587  -0.56883  0  2.239046  0
O  O120  1  0.41348718  0.05386035  0.28667612  1  0  -0.634093  0  1.989128  0  0  -0.585362  0  2.23098  0  0  -0.60884  0  2.21878  0  0  -0.35064  -0.568954  0  2.239094  0
O  O121  1  0.91349759  0.94613247  0.21332614  1  0  -0.63401  0  1.989075  0  0  -0.585328  0  2.230844  0  0  -0.608789  0  2.218645  0  0  -0.350636  -0.568922  0  2.238959  0
O  O122  1  0.82333923  0.31413035  0.90366791  1  0  -0.642416  0  1.975193  0  0  -0.585666  0  2.213436  0  0  -0.609005  0  2.202786  0  0  -0.3182  -0.569307  0  2.220451  0
O  O123  1  0.32333551  0.68587513  0.59633645  1  0  -0.642352  0  1.975128  0  0  -0.585616  0  2.213336  0  0  -0.608948  0  2.202686  0  0  -0.318121  -0.569255  0  2.220351  0
O  O124  1  0.17666300  0.68587293  0.09633137  1  0  -0.642423  0  1.975228  0  0  -0.585707  0  2.213411  0  0  -0.609041  0  2.202758  0  0  -0.318191  -0.569348  0  2.220428  0
O  O125  1  0.67666783  0.31412616  0.40366631  1  0  -0.642357  0  1.975261  0  0  -0.585581  0  2.213453  0  0  -0.608924  0  2.202802  0  0  -0.318131  -0.569221  0  2.220472  0
O  O126  1  0.62648320  0.26803646  0.82674347  1  0  -0.537189  0  2.046557  0  0  -0.485903  0  2.257339  0  0  -0.509754  0  2.242173  0  0  -0.305826  -0.469507  0  2.266352  0
O  O127  1  0.12647356  0.73195266  0.67325580  1  0  -0.537256  0  2.046455  0  0  -0.485902  0  2.257214  0  0  -0.509756  0  2.242051  0  0  -0.305902  -0.469512  0  2.266283  0
O  O128  1  0.37351903  0.73195991  0.17325324  1  0  -0.537178  0  2.046308  0  0  -0.485921  0  2.257063  0  0  -0.509773  0  2.2419  0  0  -0.305847  -0.469529  0  2.266068  0
O  O129  1  0.87352428  0.26804469  0.32674427  1  0  -0.537244  0  2.046509  0  0  -0.4859  0  2.25728  0  0  -0.509754  0  2.242116  0  0  -0.305903  -0.469507  0  2.266346  0
O  O130  1  0.88089161  0.72056150  0.06393336  1  0  -0.72921  0  2.063848  0  0  -0.665022  0  2.314108  0  0  -0.692494  0  2.3051  0  0  -0.403266  -0.645579  0  2.319555  0
O  O131  1  0.38089201  0.27944310  0.43606844  1  0  -0.729231  0  2.063882  0  0  -0.665035  0  2.314174  0  0  -0.692495  0  2.305122  0  0  -0.403237  -0.64561  0  2.319668  0
O  O132  1  0.11911612  0.27943883  0.93606336  1  0  -0.729184  0  2.063728  0  0  -0.665007  0  2.31412  0  0  -0.692486  0  2.305114  0  0  -0.403259  -0.645564  0  2.319564  0
O  O133  1  0.61911022  0.72055918  0.56393500  1  0  -0.729303  0  2.063844  0  0  -0.665103  0  2.314186  0  0  -0.692567  0  2.305161  0  0  -0.403258  -0.645663  0  2.319633  0
O  O134  1  0.74772808  0.89823796  0.05776729  1  0  -0.632397  0  1.958384  0  0  -0.575567  0  2.171115  0  0  -0.599793  0  2.161351  0  0  -0.312587  -0.558704  0  2.177358  0
O  O135  1  0.24772651  0.10176626  0.44223418  1  0  -0.632585  0  1.9583  0  0  -0.57573  0  2.17103  0  0  -0.599967  0  2.161262  0  0  -0.312685  -0.558867  0  2.177277  0
O  O136  1  0.25227086  0.10176234  0.94223372  1  0  -0.632514  0  1.958235  0  0  -0.575642  0  2.171013  0  0  -0.599871  0  2.161248  0  0  -0.312634  -0.558781  0  2.177257  0
O  O137  1  0.75227023  0.89823603  0.55776711  1  0  -0.632606  0  1.958141  0  0  -0.575748  0  2.170917  0  0  -0.599974  0  2.161149  0  0  -0.3127  -0.558885  0  2.177162  0
O  O138  1  0.68725776  0.03196137  0.95855796  1  0  -0.850586  0  1.808735  0  0  -0.800452  0  1.986543  0  0  -0.81956  0  1.96046  0  0  -0.604459  -0.786544  0  2.004788  0
O  O139  1  0.18725578  0.96803683  0.54144083  1  0  -0.850559  0  1.808735  0  0  -0.800445  0  1.986569  0  0  -0.819547  0  1.960484  0  0  -0.604443  -0.786535  0  2.004807  0
O  O140  1  0.31274448  0.96803894  0.04144360  1  0  -0.850555  0  1.808653  0  0  -0.800455  0  1.986506  0  0  -0.819556  0  1.960421  0  0  -0.604456  -0.786545  0  2.004745  0
O  O141  1  0.81274425  0.03196151  0.45855723  1  0  -0.850535  0  1.808735  0  0  -0.800413  0  1.986598  0  0  -0.819529  0  1.960514  0  0  -0.60445  -0.786503  0  2.004837  0
