# generated using pymatgen
data_Al2H19C24NO11
_symmetry_space_group_name_H-M   'P 1'
_cell_length_a   6.67931789
_cell_length_b   18.15208549
_cell_length_c   20.63775220
_cell_angle_alpha   107.47424338
_cell_angle_beta   90.00118511
_cell_angle_gamma   89.99869817
_symmetry_Int_Tables_number   1
_chemical_formula_structural   Al2H19C24NO11
_chemical_formula_sum   'Al4 H38 C48 N2 O22'
_cell_volume   2386.72314596
_cell_formula_units_Z   2
loop_
 _symmetry_equiv_pos_site_id
 _symmetry_equiv_pos_as_xyz
  1  'x, y, z'
loop_
 _atom_site_type_symbol
 _atom_site_label
 _atom_site_symmetry_multiplicity
 _atom_site_fract_x
 _atom_site_fract_y
 _atom_site_fract_z
 _atom_site_occupancy
 _atom_site_pbe_bader_charge
 _atom_site_pbe_bader_spin_density
 _atom_site_pbe_cm5_charge
 _atom_site_pbe_ddec_charge
 _atom_site_pbe_ddec_spin_density
 _atom_site_pbe_ddec_sum_bond_order
 _atom_site_pbe_magmom
Al  Al0  1  0.86647794  0.50002719  0.50044708  1  2.501849  0  0.40473  1.648158  0  2.580667  0
Al  Al1  1  0.36647776  0.49997446  0.49956038  1  2.501813  0  0.404652  1.648184  0  2.58069  0
Al  Al2  1  0.38411809  0.00012390  0.99948315  1  2.503619  0  0.40604  1.649097  0  2.578791  0
Al  Al3  1  0.88411217  0.99987720  0.00051477  1  2.503586  0  0.406029  1.649008  0  2.578856  0
H  H4  1  0.29812820  0.87034027  0.29225049  1  0.056859  0  0.105202  0.121634  0  0.965208  0
H  H5  1  0.79811593  0.12965571  0.70774643  1  0.056709  0  0.105223  0.12163  0  0.965275  0
H  H6  1  0.81398345  0.78227248  0.21107478  1  0.043113  0  0.093755  0.092314  0  0.991142  0
H  H7  1  0.31397650  0.21773634  0.78891474  1  0.043163  0  0.09381  0.092468  0  0.991133  0
H  H8  1  0.91133697  0.86620466  0.27038426  1  0.003951  0  0.099827  0.105293  0  0.966788  0
H  H9  1  0.41132549  0.13380704  0.72960478  1  0.003855  0  0.099803  0.10535  0  0.966652  0
H  H10  1  0.95672485  0.80315149  0.35354376  1  0.03802  0  0.100377  0.105796  0  1.000288  0
H  H11  1  0.45673132  0.19686557  0.64645264  1  0.037777  0  0.100337  0.105692  0  1.000488  0
H  H12  1  0.80097906  0.72957848  0.30217476  1  0.050708  0  0.094454  0.093409  0  1.017967  0
H  H13  1  0.30099620  0.27044438  0.69782190  1  0.050598  0  0.094404  0.093281  0  1.018147  0
H  H14  1  0.30559687  0.69314058  0.14469819  1  0.072991  0  0.106262  0.115825  0  0.96369  0
H  H15  1  0.80560838  0.30684745  0.85530985  1  0.072867  0  0.106348  0.115844  0  0.96345  0
H  H16  1  0.04722114  0.69047432  0.12466412  1  0.070017  0  0.106605  0.115926  0  0.968304  0
H  H17  1  0.54721876  0.30952244  0.87533709  1  0.069927  0  0.106609  0.115985  0  0.968225  0
H  H18  1  0.23309096  0.60954380  0.20724079  1  0.12544  0  0.128803  0.121867  0  0.926876  0
H  H19  1  0.73312194  0.39045325  0.79277100  1  0.125223  0  0.128802  0.121942  0  0.92694  0
H  H20  1  0.45480144  0.80660223  0.23110120  1  0.010192  0  0.096495  0.103605  0  0.99497  0
H  H21  1  0.95480105  0.19338533  0.76890255  1  0.010144  0  0.096463  0.103554  0  0.994906  0
H  H22  1  0.44380647  0.71743011  0.29363464  1  0.056874  0  0.107207  0.05075  0  0.981332  0
H  H23  1  0.94382820  0.28256096  0.70637111  1  0.057476  0  0.107247  0.050848  0  0.981263  0
H  H24  1  0.47471452  0.85849005  0.45518524  1  0.036305  0  0.1032  0.072041  0  0.959483  0
H  H25  1  0.61650329  0.82001438  0.37997830  1  0.030282  0  0.092258  0.052176  0  1.013  0
H  H26  1  0.41672039  0.72489142  0.46253816  1  0.038561  0  0.091137  0.089926  0  0.978623  0
H  H27  1  0.56879626  0.68576084  0.39077033  1  0.021122  0  0.090781  0.087104  0  0.986311  0
H  H28  1  0.86553419  0.76316951  0.45218297  1  0.025136  0  0.082943  0.110283  0  1.027749  0
H  H29  1  0.76891229  0.70315927  0.49766160  1  0.037859  0  0.087912  0.116392  0  1.019458  0
H  H30  1  0.71208541  0.80323577  0.52469266  1  0.017124  0  0.084318  0.107741  0  1.004281  0
H  H31  1  0.97471389  0.14150681  0.54481716  1  0.036281  0  0.103195  0.072008  0  0.959514  0
H  H32  1  0.11650915  0.17997413  0.62002472  1  0.030059  0  0.09231  0.052214  0  1.012921  0
H  H33  1  0.91672612  0.27510747  0.53747055  1  0.038809  0  0.091117  0.089876  0  0.978609  0
H  H34  1  0.06879775  0.31423311  0.60923958  1  0.02114  0  0.09077  0.0871  0  0.986168  0
H  H35  1  0.36553659  0.23682336  0.54782289  1  0.025354  0  0.08296  0.110262  0  1.027959  0
H  H36  1  0.26891271  0.29684516  0.50236007  1  0.037975  0  0.087903  0.116374  0  1.019455  0
H  H37  1  0.21209175  0.19677482  0.47531458  1  0.017105  0  0.084216  0.107559  0  1.004412  0
H  H38  1  0.61625645  0.59906762  0.50657904  1  0.608757  0  0.354189  0.433737  0  0.855483  0
H  H39  1  0.11627091  0.40090756  0.49332559  1  0.608583  0  0.354209  0.43374  0  0.855688  0
H  H40  1  0.63319813  0.90057807  0.99140922  1  0.604801  0  0.363578  0.446012  0  0.828463  0
H  H41  1  0.13318299  0.09941657  0.00857114  1  0.604698  0  0.363562  0.445991  0  0.828482  0
C  C42  1  0.61527586  0.42651538  0.58002327  1  1.673847  0  0.281471  0.724428  0  4.152544  0
C  C43  1  0.11522284  0.57349031  0.41997836  1  1.675473  0  0.281383  0.724597  0  4.152885  0
C  C44  1  0.61754397  0.39127875  0.39760965  1  1.708887  0  0.27886  0.706847  0  4.171885  0
C  C45  1  0.11756299  0.60871936  0.60239244  1  1.708051  0  0.278961  0.707021  0  4.17168  0
C  C46  1  0.11958721  0.67060833  0.66546775  1  0.1006  0  -0.000904  -0.143418  0  3.841089  0
C  C47  1  0.61958304  0.32939035  0.33453942  1  0.09998  0  -0.000891  -0.143574  0  3.840531  0
C  C48  1  0.12372841  0.72302316  0.71897723  1  -0.169742  0  -0.003489  0.034966  0  4.229882  0
C  C49  1  0.62373610  0.27696660  0.28101975  1  -0.169084  0  -0.003497  0.035162  0  4.229074  0
C  C50  1  0.12787560  0.78089356  0.77804689  1  -0.210954  0  -0.004515  0.031782  0  4.231968  0
C  C51  1  0.62788766  0.21909545  0.22194960  1  -0.211548  0  -0.004603  0.031665  0  4.23288  0
C  C52  1  0.13149130  0.83334229  0.83156223  1  0.070902  0  -0.001439  -0.143747  0  3.842257  0
C  C53  1  0.63148827  0.16665881  0.16844755  1  0.071505  0  -0.001393  -0.14365  0  3.842769  0
C  C54  1  0.31324282  0.81063637  0.25910069  1  0.004522  0  -0.156676  -0.270916  0  3.825202  0
C  C55  1  0.81322147  0.18935596  0.74090388  1  0.004409  0  -0.156654  -0.270756  0  3.825131  0
C  C56  1  0.93597092  0.80396969  0.24760473  1  0.006838  0  -0.15402  -0.194197  0  3.848545  0
C  C57  1  0.43596154  0.19603779  0.75239047  1  0.006549  0  -0.154063  -0.194605  0  3.848469  0
C  C58  1  0.93934999  0.76223498  0.30260176  1  -0.033338  0  -0.160368  -0.206016  0  3.86249  0
C  C59  1  0.43935712  0.23777863  0.69739705  1  -0.032581  0  -0.160395  -0.205778  0  3.862627  0
C  C60  1  0.11349231  0.61697498  0.37205692  1  0.038286  0  -0.035261  -0.198867  0  3.949705  0
C  C61  1  0.61351652  0.38302181  0.62794108  1  0.039048  0  -0.035311  -0.198938  0  3.949743  0
C  C62  1  0.13698132  0.79114892  0.20802969  1  0.148992  0  0.003673  0.183543  0  3.899817  0
C  C63  1  0.63696045  0.20884620  0.79196386  1  0.149389  0  0.003688  0.183663  0  3.899968  0
C  C64  1  0.31293597  0.75625676  0.30442320  1  0.453663  0  0.014735  0.144106  0  3.782661  0
C  C65  1  0.81294593  0.24373915  0.69557887  1  0.453375  0  0.014643  0.14377  0  3.782744  0
C  C66  1  0.11919274  0.70614491  0.29058228  1  0.132326  0  0.009589  0.093666  0  3.866549  0
C  C67  1  0.61921546  0.29386092  0.70941988  1  0.132607  0  0.009727  0.093892  0  3.866593  0
C  C68  1  0.11634587  0.65407849  0.21446607  1  0.069244  0  -0.041092  -0.044123  0  3.82948  0
C  C69  1  0.61637313  0.34592407  0.78554112  1  0.06981  0  -0.041133  -0.044347  0  3.829528  0
C  C70  1  0.15499050  0.70471403  0.16670101  1  -0.051457  0  -0.139113  -0.218962  0  3.798494  0
C  C71  1  0.65499686  0.29527813  0.83330071  1  -0.051663  0  -0.13922  -0.219065  0  3.798428  0
C  C72  1  0.11379833  0.65780003  0.33506187  1  -0.291988  0  -0.011275  -0.018338  0  4.026999  0
C  C73  1  0.61383332  0.34220608  0.66494431  1  -0.292754  0  -0.011268  -0.018257  0  4.027146  0
C  C74  1  0.14222900  0.83782346  0.16199969  1  -0.527354  0  -0.016004  -0.020804  0  4.007504  0
C  C75  1  0.64220485  0.16216805  0.83799639  1  -0.528489  0  -0.015945  -0.020864  0  4.008027  0
C  C76  1  0.13840587  0.87653344  0.12313136  1  0.222483  0  -0.049442  -0.221928  0  3.970101  0
C  C77  1  0.63837601  0.12346409  0.87686121  1  0.223816  0  -0.049471  -0.221735  0  3.970384  0
C  C78  1  0.63336410  0.10559310  0.10476623  1  1.699979  0  0.278079  0.705679  0  4.17574  0
C  C79  1  0.13337184  0.89440797  0.89523191  1  1.700146  0  0.278125  0.705796  0  4.176137  0
C  C80  1  0.63560161  0.07847010  0.92375280  1  1.698092  0  0.278299  0.731405  0  4.147504  0
C  C81  1  0.13562132  0.92152501  0.07624733  1  1.698143  0  0.278457  0.731648  0  4.147483  0
C  C82  1  0.49428558  0.80709283  0.41089002  1  0.422204  0  -0.071555  0.030339  0  3.93274  0
C  C83  1  0.54619194  0.73747040  0.43461834  1  -0.010798  0  -0.173943  -0.14866  0  3.986965  0
C  C84  1  0.73280174  0.75275409  0.47967923  1  -0.068078  0  -0.242597  -0.346107  0  3.960192  0
C  C85  1  0.99429503  0.19289927  0.58911346  1  0.422519  0  -0.071475  0.030603  0  3.932626  0
C  C86  1  0.04619536  0.26252507  0.56538893  1  -0.010826  0  -0.173936  -0.148736  0  3.986946  0
C  C87  1  0.23280181  0.24724649  0.52033158  1  -0.068391  0  -0.242513  -0.345821  0  3.960577  0
C  C88  1  0.92151562  0.61597961  0.19989682  1  0.861703  0  0.180651  0.269766  0  3.957062  0
C  C89  1  0.42153815  0.38403282  0.80010797  1  0.861551  0  0.180808  0.269741  0  3.957179  0
N  N90  1  0.76018221  0.59073346  0.18877119  1  -1.163467  0  -0.33283  -0.399864  0  2.699707  0
N  N91  1  0.26021885  0.40928480  0.81123383  1  -1.16374  0  -0.33293  -0.399747  0  2.700058  0
O  O92  1  0.44628550  0.41513543  0.42201987  1  -1.237432  0  -0.22473  -0.577642  0  2.286866  0
O  O93  1  0.94628081  0.58486534  0.57797533  1  -1.237042  0  -0.224782  -0.57774  0  2.286546  0
O  O94  1  0.78642398  0.44287579  0.56082884  1  -1.230839  0  -0.226321  -0.585525  0  2.290233  0
O  O95  1  0.28640609  0.55712964  0.43917469  1  -1.231463  0  -0.226296  -0.585698  0  2.289633  0
O  O96  1  0.78779645  0.41508163  0.42299036  1  -1.230431  0  -0.22397  -0.574852  0  2.285058  0
O  O97  1  0.28779738  0.58491661  0.57701312  1  -1.229851  0  -0.223932  -0.574861  0  2.28543  0
O  O98  1  0.94542550  0.55715482  0.44007170  1  -1.24609  0  -0.225801  -0.585925  0  2.301605  0
O  O99  1  0.44542207  0.44284528  0.55992147  1  -1.245241  0  -0.225733  -0.58581  0  2.300656  0
O  O100  1  0.61651405  0.54520346  0.50496428  1  -1.410022  0  -0.446635  -0.999193  0  2.212456  0
O  O101  1  0.11651934  0.45480044  0.49503532  1  -1.409732  0  -0.446615  -0.999165  0  2.212608  0
O  O102  1  0.80519641  0.06115556  0.94334231  1  -1.245511  0  -0.228718  -0.5881  0  2.285339  0
O  O103  1  0.30520337  0.93884483  0.05665975  1  -1.245612  0  -0.228801  -0.588169  0  2.285204  0
O  O104  1  0.46309213  0.08237812  0.07912148  1  -1.22914  0  -0.223492  -0.574668  0  2.286295  0
O  O105  1  0.96310186  0.91761933  0.92088240  1  -1.22936  0  -0.223617  -0.574788  0  2.286357  0
O  O106  1  0.46420197  0.06112364  0.94204843  1  -1.239825  0  -0.229358  -0.588439  0  2.276271  0
O  O107  1  0.96422729  0.93887760  0.05795193  1  -1.239745  0  -0.229525  -0.588585  0  2.276059  0
O  O108  1  0.30468877  0.91806901  0.91967785  1  -1.225158  0  -0.224348  -0.575034  0  2.282904  0
O  O109  1  0.80469593  0.08192628  0.08032215  1  -1.225121  0  -0.224367  -0.575066  0  2.282684  0
O  O110  1  0.63397356  0.95451938  0.99327336  1  -1.402129  0  -0.445608  -1.001466  0  2.204635  0
O  O111  1  0.13397358  0.04547994  0.00672781  1  -1.402  0  -0.445618  -1.001434  0  2.204474  0
O  O112  1  0.30793331  0.79974635  0.37465920  1  -1.043548  0  -0.231804  -0.268965  0  2.472554  0
O  O113  1  0.80794756  0.20025236  0.62534286  1  -1.044122  0  -0.231893  -0.269139  0  2.472804  0
