# generated using pymatgen
data_DyH7C8SO9
_symmetry_space_group_name_H-M   'P 1'
_cell_length_a   6.34958799
_cell_length_b   8.57813183
_cell_length_c   10.58589902
_cell_angle_alpha   90.63714282
_cell_angle_beta   99.71308636
_cell_angle_gamma   107.56173585
_symmetry_Int_Tables_number   1
_chemical_formula_structural   DyH7C8SO9
_chemical_formula_sum   'Dy2 H14 C16 S2 O18'
_cell_volume   540.65334960
_cell_formula_units_Z   2
loop_
 _symmetry_equiv_pos_site_id
 _symmetry_equiv_pos_as_xyz
  1  'x, y, z'
loop_
 _atom_site_type_symbol
 _atom_site_label
 _atom_site_symmetry_multiplicity
 _atom_site_fract_x
 _atom_site_fract_y
 _atom_site_fract_z
 _atom_site_occupancy
 _atom_site_hle17_bader_spin_density
 _atom_site_hle17_ddec_charge
 _atom_site_hle17_ddec_spin_density
 _atom_site_hle17_ddec_sum_bond_order
 _atom_site_hle17_magmom
 _atom_site_hse06_10hf_bader_spin_density
 _atom_site_hse06_10hf_ddec_charge
 _atom_site_hse06_10hf_ddec_spin_density
 _atom_site_hse06_10hf_ddec_sum_bond_order
 _atom_site_hse06_10hf_magmom
 _atom_site_hse06_bader_spin_density
 _atom_site_hse06_ddec_charge
 _atom_site_hse06_ddec_spin_density
 _atom_site_hse06_ddec_sum_bond_order
 _atom_site_hse06_magmom
 _atom_site_pbe_bader_spin_density
 _atom_site_pbe_cm5_charge
 _atom_site_pbe_ddec_charge
 _atom_site_pbe_ddec_spin_density
 _atom_site_pbe_ddec_sum_bond_order
 _atom_site_pbe_magmom
Dy  Dy0  1  0.15294483  0.24609245  0.61461318  1  0  2.312197  0  1.602045  0  0  2.246441  0  1.924362  0  0  2.290506  0  1.885196  0  0  1.542462  2.141085  0  2.089437  0
Dy  Dy1  1  0.84705516  0.75390796  0.38538599  1  0  2.31218  0  1.602068  0  0  2.246424  0  1.924392  0  0  2.290491  0  1.885226  0  0  1.542448  2.141071  0  2.089446  0
H  H2  1  0.61819441  0.41339051  0.14452011  1  0  0.11039  0  0.939778  0  0  0.117609  0  1.004082  0  0  0.121277  0  1.002059  0  0  0.115104  0.115076  0  1.005257  0
H  H3  1  0.38180558  0.58660989  0.85548095  1  0  0.110404  0  0.939775  0  0  0.117625  0  1.004079  0  0  0.121293  0  1.002056  0  0  0.11511  0.115095  0  1.005254  0
H  H4  1  0.65737195  0.36593667  0.91891091  1  0  0.115311  0  0.947053  0  0  0.126692  0  1.00499  0  0  0.130323  0  1.002292  0  0  0.114881  0.123675  0  1.007632  0
H  H5  1  0.34262278  0.63405883  0.08108863  1  0  0.115301  0  0.947023  0  0  0.126694  0  1.00495  0  0  0.130326  0  1.002249  0  0  0.11487  0.123663  0  1.00761  0
H  H6  1  0.17976208  0.15245223  0.05465067  1  0  0.126442  0  0.948134  0  0  0.133225  0  1.010225  0  0  0.137025  0  1.007966  0  0  0.115597  0.130106  0  1.012657  0
H  H7  1  0.82023477  0.84754449  0.94534910  1  0  0.126422  0  0.94816  0  0  0.133255  0  1.0102  0  0  0.137057  0  1.007936  0  0  0.115594  0.130136  0  1.012633  0
H  H8  1  0.52729006  0.08412045  0.67683017  1  0  0.463535  0  0.808934  0  0  0.435908  0  0.867391  0  0  0.445559  0  0.853182  0  0  0.320018  0.428452  0  0.878237  0
H  H9  1  0.47271576  0.91588241  0.32317057  1  0  0.463558  0  0.808942  0  0  0.435937  0  0.86736  0  0  0.445587  0  0.853153  0  0  0.320031  0.428481  0  0.878208  0
H  H10  1  0.30117907  0.95351507  0.60678171  1  0  0.448845  0  0.848389  0  0  0.417388  0  0.912962  0  0  0.427756  0  0.8978  0  0  0.306033  0.40972  0  0.923944  0
H  H11  1  0.69882674  0.04648780  0.39321808  1  0  0.448838  0  0.848395  0  0  0.417384  0  0.912962  0  0  0.427753  0  0.897798  0  0  0.30604  0.409717  0  0.923944  0
H  H12  1  0.65330054  0.35508835  0.70912462  1  0  0.448482  0  0.846613  0  0  0.421135  0  0.903943  0  0  0.431907  0  0.888266  0  0  0.304482  0.412939  0  0.915734  0
H  H13  1  0.34669888  0.64491450  0.29087452  1  0  0.448458  0  0.846644  0  0  0.421108  0  0.903978  0  0  0.43188  0  0.888301  0  0  0.304459  0.412913  0  0.915769  0
H  H14  1  0.58209581  0.50627222  0.64943150  1  0  0.445811  0  0.847467  0  0  0.417232  0  0.906775  0  0  0.427253  0  0.892142  0  0  0.305449  0.409735  0  0.917522  0
H  H15  1  0.41790521  0.49373064  0.35056686  1  0  0.44576  0  0.847529  0  0  0.417184  0  0.906835  0  0  0.427204  0  0.892203  0  0  0.305414  0.409686  0  0.917584  0
C  C16  1  0.02099505  0.22438110  0.19993652  1  0  -0.131594  0  3.685942  0  0  -0.112448  0  3.933956  0  0  -0.119156  0  3.954754  0  0  -0.006649  -0.108572  0  3.921502  0
C  C17  1  0.97900443  0.77561808  0.80006543  1  0  -0.131654  0  3.685938  0  0  -0.112517  0  3.933986  0  0  -0.119226  0  3.954784  0  0  -0.00667  -0.108641  0  3.921537  0
C  C18  1  0.86735510  0.30377541  0.22711969  1  0  -0.035132  0  3.665915  0  0  -0.027042  0  3.899645  0  0  -0.028603  0  3.917852  0  0  0.007022  -0.026403  0  3.889171  0
C  C19  1  0.13264649  0.69622499  0.77288060  1  0  -0.035066  0  3.66594  0  0  -0.026996  0  3.899677  0  0  -0.028554  0  3.917883  0  0  0.007024  -0.02636  0  3.889211  0
C  C20  1  0.73693784  0.35207324  0.12365389  1  0  -0.046653  0  3.67209  0  0  -0.070541  0  3.929257  0  0  -0.072938  0  3.947586  0  0  -0.067329  -0.069324  0  3.917435  0
C  C21  1  0.26306215  0.64792716  0.87634812  1  0  -0.046693  0  3.672139  0  0  -0.070593  0  3.929333  0  0  -0.072993  0  3.947662  0  0  -0.067337  -0.069374  0  3.917507  0
C  C22  1  0.75989569  0.32608919  0.99723936  1  0  -0.036513  0  3.653505  0  0  -0.062738  0  3.898264  0  0  -0.060111  0  3.915633  0  0  -0.065131  -0.064347  0  3.887667  0
C  C23  1  0.24010379  0.67390999  0.00275975  1  0  -0.036415  0  3.653518  0  0  -0.062641  0  3.898256  0  0  -0.060014  0  3.915625  0  0  -0.065097  -0.064242  0  3.887663  0
C  C24  1  0.92266916  0.25603290  0.97245197  1  0  -0.044681  0  3.726841  0  0  -0.018747  0  3.958857  0  0  -0.02741  0  3.981672  0  0  -0.006664  -0.013956  0  3.944744  0
C  C25  1  0.07733089  0.74396383  0.02754812  1  0  -0.044795  0  3.726944  0  0  -0.018869  0  3.958979  0  0  -0.027532  0  3.981795  0  0  -0.006697  -0.014074  0  3.944859  0
C  C26  1  0.05091906  0.20410172  0.07423113  1  0  -0.052295  0  3.698128  0  0  -0.089401  0  3.946672  0  0  -0.08724  0  3.965628  0  0  -0.068793  -0.090966  0  3.935385  0
C  C27  1  0.94908047  0.79589378  0.92576984  1  0  -0.052225  0  3.698098  0  0  -0.089368  0  3.946618  0  0  -0.087208  0  3.965575  0  0  -0.068776  -0.090934  0  3.935337  0
C  C28  1  0.84501240  0.34722199  0.36147339  1  0  0.745909  0  3.817873  0  0  0.695983  0  4.115488  0  0  0.73214  0  4.100621  0  0  0.250229  0.670672  0  4.121058  0
C  C29  1  0.15499033  0.65277351  0.63852790  1  0  0.745772  0  3.818055  0  0  0.695888  0  4.11561  0  0  0.732044  0  4.100742  0  0  0.250224  0.670579  0  4.121181  0
C  C30  1  0.98169929  0.24615381  0.84273427  1  0  0.643827  0  3.922194  0  0  0.591997  0  4.23029  0  0  0.625716  0  4.222585  0  0  0.200939  0.570333  0  4.226531  0
C  C31  1  0.01829488  0.75384414  0.15726524  1  0  0.643904  0  3.922104  0  0  0.592081  0  4.23018  0  0  0.6258  0  4.222476  0  0  0.200994  0.570414  0  4.226421  0
S  S32  1  0.21021843  0.16447377  0.32011440  1  0  1.353812  0  5.560757  0  0  1.252887  0  6.081004  0  0  1.30159  0  6.055932  0  0  0.540763  1.218773  0  6.089094  0
S  S33  1  0.78978208  0.83552786  0.67988673  1  0  1.353832  0  5.560584  0  0  1.252866  0  6.080836  0  0  1.30157  0  6.055763  0  0  0.540767  1.218752  0  6.08893  0
O  O34  1  0.08270902  0.02575616  0.38634435  1  0  -0.809891  0  2.187089  0  0  -0.769463  0  2.478595  0  0  -0.790707  0  2.462557  0  0  -0.409763  -0.73968  0  2.485987  0
O  O35  1  0.91729200  0.97424669  0.61365780  1  0  -0.809816  0  2.186979  0  0  -0.769404  0  2.478517  0  0  -0.790646  0  2.462479  0  0  -0.409763  -0.739619  0  2.485911  0
O  O36  1  0.30782429  0.30716993  0.41667738  1  0  -0.755597  0  2.058555  0  0  -0.703513  0  2.313197  0  0  -0.724332  0  2.297291  0  0  -0.37306  -0.68077  0  2.324741  0
O  O37  1  0.69217565  0.69283416  0.58331994  1  0  -0.755622  0  2.05851  0  0  -0.703496  0  2.313129  0  0  -0.72432  0  2.297227  0  0  -0.373051  -0.680753  0  2.324671  0
O  O38  1  0.37201047  0.12535371  0.25470617  1  0  -0.612199  0  1.977629  0  0  -0.553073  0  2.212285  0  0  -0.575885  0  2.202267  0  0  -0.301238  -0.538135  0  2.220118  0
O  O39  1  0.62798849  0.87464425  0.74529382  1  0  -0.61226  0  1.977665  0  0  -0.553081  0  2.212294  0  0  -0.575894  0  2.20228  0  0  -0.301226  -0.538144  0  2.220126  0
O  O40  1  0.85391768  0.24499396  0.44782428  1  0  -0.741204  0  2.077342  0  0  -0.696193  0  2.321896  0  0  -0.720204  0  2.307999  0  0  -0.383192  -0.67009  0  2.333819  0
O  O41  1  0.14608391  0.75500645  0.55217600  1  0  -0.741125  0  2.07732  0  0  -0.696162  0  2.321901  0  0  -0.720178  0  2.308008  0  0  -0.383169  -0.670056  0  2.33382  0
O  O42  1  0.81948735  0.48454660  0.38207493  1  0  -0.705774  0  2.08788  0  0  -0.670173  0  2.35529  0  0  -0.69532  0  2.34324  0  0  -0.393544  -0.641261  0  2.366144  0
O  O43  1  0.18050944  0.51545380  0.61792487  1  0  -0.705754  0  2.087993  0  0  -0.670138  0  2.355358  0  0  -0.69528  0  2.343304  0  0  -0.393549  -0.641226  0  2.366215  0
O  O44  1  0.16855705  0.22253218  0.83560718  1  0  -0.69173  0  1.974889  0  0  -0.654753  0  2.21591  0  0  -0.679525  0  2.207947  0  0  -0.389362  -0.628511  0  2.221443  0
O  O45  1  0.83144186  0.77746945  0.16439284  1  0  -0.691772  0  1.974893  0  0  -0.654798  0  2.215916  0  0  -0.679573  0  2.207958  0  0  -0.389391  -0.628557  0  2.221445  0
O  O46  1  0.85360080  0.26410074  0.73980685  1  0  -0.71262  0  2.043713  0  0  -0.66478  0  2.281292  0  0  -0.689262  0  2.270963  0  0  -0.346849  -0.640398  0  2.287605  0
O  O47  1  0.14639285  0.73589598  0.26019449  1  0  -0.712644  0  2.043688  0  0  -0.664813  0  2.281291  0  0  -0.689286  0  2.27094  0  0  -0.346894  -0.640432  0  2.287603  0
O  O48  1  0.37423829  0.07180755  0.63307298  1  0  -0.923519  0  1.885837  0  0  -0.884386  0  2.082202  0  0  -0.902015  0  2.050077  0  0  -0.658981  -0.861939  0  2.110721  0
O  O49  1  0.62577021  0.92819410  0.36692329  1  0  -0.923546  0  1.885917  0  0  -0.884416  0  2.082252  0  0  -0.902047  0  2.050129  0  0  -0.658989  -0.861972  0  2.110767  0
O  O50  1  0.52828250  0.40448125  0.69341736  1  0  -0.915133  0  1.852543  0  0  -0.879238  0  2.045985  0  0  -0.898339  0  2.01451  0  0  -0.65242  -0.856214  0  2.073588  0
O  O51  1  0.47171744  0.59552283  0.30658185  1  0  -0.915065  0  1.852596  0  0  -0.879159  0  2.046024  0  0  -0.89826  0  2.014551  0  0  -0.652371  -0.856126  0  2.0736  0
