# generated using pymatgen
data_ZnH15C32Br(NO3)2
_symmetry_space_group_name_H-M   'P 1'
_cell_length_a   14.65396938
_cell_length_b   15.68944503
_cell_length_c   23.78185791
_cell_angle_alpha   89.83048654
_cell_angle_beta   105.86545682
_cell_angle_gamma   98.65817650
_symmetry_Int_Tables_number   1
_chemical_formula_structural   ZnH15C32Br(NO3)2
_chemical_formula_sum   'Zn2 H30 C64 Br2 N4 O12'
_cell_volume   5195.33051608
_cell_formula_units_Z   2
loop_
 _symmetry_equiv_pos_site_id
 _symmetry_equiv_pos_as_xyz
  1  'x, y, z'
loop_
 _atom_site_type_symbol
 _atom_site_label
 _atom_site_symmetry_multiplicity
 _atom_site_fract_x
 _atom_site_fract_y
 _atom_site_fract_z
 _atom_site_occupancy
 _atom_site_pbe_bader_charge
 _atom_site_pbe_bader_spin_density
 _atom_site_pbe_cm5_charge
 _atom_site_pbe_ddec_charge
 _atom_site_pbe_ddec_spin_density
 _atom_site_pbe_ddec_sum_bond_order
 _atom_site_pbe_magmom
Zn  Zn0  1  0.59344497  0.48407122  0.51642539  1  1.284504  0  0.664868  0.813947  0  2.442912  0
Zn  Zn1  1  0.40683672  0.51650833  0.48582347  1  1.284082  0  0.664718  0.814951  0  2.444003  0
H  H2  1  0.65113449  0.68800690  0.97213812  1  0.119476  0  0.119515  0.125111  0  0.975806  0
H  H3  1  0.34925101  0.31206074  0.03007497  1  0.127037  0  0.119743  0.125126  0  0.974796  0
H  H4  1  0.80217595  0.90951781  0.51015615  1  0.04597  0  0.098421  0.097637  0  0.999741  0
H  H5  1  0.19485879  0.09058397  0.42067629  1  0.014121  0  0.098428  0.098521  0  0.998606  0
H  H6  1  0.63399743  0.14883631  0.47329830  1  0.032437  0  0.100543  0.101832  0  1.01367  0
H  H7  1  0.36136471  0.85131308  0.43146222  1  0.032024  0  0.092717  0.088965  0  1.044383  0
H  H8  1  0.97917163  0.67799492  0.40254028  1  0.103679  0  0.1036  0.10939  0  1.01715  0
H  H9  1  0.02028607  0.32165648  0.59780026  1  0.112557  0  0.103388  0.109966  0  1.016727  0
H  H10  1  0.76667825  0.53962645  0.48363616  1  0.126376  0  0.128743  0.103322  0  1.006691  0
H  H11  1  0.23369016  0.46236890  0.51900264  1  0.119337  0  0.129448  0.103826  0  1.001769  0
H  H12  1  0.68961102  0.34689059  0.58758680  1  0.143469  0  0.130926  0.12173  0  0.968922  0
H  H13  1  0.31010796  0.65207468  0.41295939  1  0.149245  0  0.129876  0.118832  0  0.977509  0
H  H14  1  0.86066221  0.60023350  0.44628652  1  0.083972  0  0.117336  0.120018  0  0.989344  0
H  H15  1  0.13892426  0.39981839  0.55431761  1  0.089607  0  0.117215  0.119896  0  0.98922  0
H  H16  1  0.64605140  0.69198339  0.07768961  1  0.110795  0  0.119075  0.12491  0  0.97606  0
H  H17  1  0.35452310  0.30796072  0.92457418  1  0.131425  0  0.119339  0.125016  0  0.976166  0
H  H18  1  0.35149640  0.53656501  0.19193259  1  0.069931  0  0.109769  0.116709  0  0.979643  0
H  H19  1  0.36255577  0.52614807  0.76463511  1  0.068447  0  0.108635  0.116036  0  0.982262  0
H  H20  1  0.35381380  0.53384697  0.29810401  1  0.096668  0  0.106419  0.110058  0  0.998578  0
H  H21  1  0.36026727  0.52784653  0.65857820  1  0.10358  0  0.103211  0.105162  0  1.002987  0
H  H22  1  0.63907773  0.47105991  0.34342853  1  0.092399  0  0.103727  0.10595  0  1.004334  0
H  H23  1  0.64629623  0.46663389  0.70363783  1  0.075086  0  0.106581  0.110035  0  0.99724  0
H  H24  1  0.63749890  0.47332592  0.23734813  1  0.052368  0  0.10866  0.115205  0  0.981681  0
H  H25  1  0.64887586  0.46375053  0.80973293  1  0.074301  0  0.110131  0.117453  0  0.980147  0
H  H26  1  0.75655095  0.05410219  0.49112417  1  0.052842  0  0.098034  0.097212  0  1.003629  0
H  H27  1  0.23907497  0.94587778  0.41397195  1  0.058501  0  0.091142  0.089177  0  1.024361  0
H  H28  1  0.53919296  0.22131975  0.48365777  1  0.108696  0  0.10143  0.105071  0  1.032658  0
H  H29  1  0.45924596  0.77897577  0.47122446  1  0.090955  0  0.100614  0.105069  0  1.035227  0
H  H30  1  0.24317474  0.24903524  0.44508802  1  0.078985  0  0.1016  0.106086  0  1.004472  0
H  H31  1  0.75592322  0.75116480  0.52041255  1  0.094883  0  0.100482  0.104405  0  1.007365  0
C  C32  1  0.57412592  0.66364605  0.50403668  1  1.547362  0  0.212582  0.592905  0  4.164963  0
C  C33  1  0.42602169  0.33653980  0.48314676  1  1.518703  0  0.211592  0.592147  0  4.165008  0
C  C34  1  0.41433258  0.52268078  0.22537899  1  0.050818  0  -0.082405  -0.15052  0  3.97774  0
C  C35  1  0.42418238  0.51277401  0.75080276  1  -0.00703  0  -0.085661  -0.155279  0  3.984626  0
C  C36  1  0.41553178  0.52117790  0.28410519  1  -0.083921  0  -0.077745  -0.072832  0  3.965977  0
C  C37  1  0.42286145  0.51356253  0.69206979  1  -0.030842  0  -0.080145  -0.07574  0  3.976015  0
C  C38  1  0.49665431  0.50275751  0.32659382  1  0.014263  0  -0.014122  -0.028655  0  3.955395  0
C  C39  1  0.50300538  0.49686238  0.67506737  1  -0.011597  0  -0.014032  -0.03073  0  3.952403  0
C  C40  1  0.57679874  0.48563347  0.30979962  1  0.024925  0  -0.080771  -0.077318  0  3.977531  0
C  C41  1  0.58440375  0.47895334  0.71757782  1  0.004071  0  -0.077517  -0.073199  0  3.962571  0
C  C42  1  0.57583376  0.48669130  0.25113877  1  0.014431  0  -0.086403  -0.155587  0  3.984723  0
C  C43  1  0.58581405  0.47741983  0.77638279  1  -0.016826  0  -0.083197  -0.150831  0  3.974757  0
C  C44  1  0.49455877  0.50524232  0.20940065  1  0.243618  0  0.090457  0.195515  0  4.013945  0
C  C45  1  0.50567705  0.49463962  0.79256599  1  0.286437  0  0.091166  0.200639  0  4.013423  0
C  C46  1  0.60387728  0.75738752  0.49595443  1  -0.035558  0  -0.020695  -0.029763  0  3.983666  0
C  C47  1  0.39493293  0.24263332  0.46625134  1  -0.00326  0  -0.021516  -0.032352  0  3.985959  0
C  C48  1  0.72672757  0.88064169  0.50097477  1  -0.036565  0  -0.094356  -0.139335  0  4.006179  0
C  C49  1  0.27055930  0.11937274  0.43423101  1  0.020243  0  -0.09417  -0.139102  0  4.006709  0
C  C50  1  0.70179060  0.79331127  0.50668906  1  -0.018746  0  -0.090991  -0.100585  0  4.015491  0
C  C51  1  0.29661063  0.20669558  0.44776642  1  -0.085706  0  -0.090502  -0.098726  0  4.011726  0
C  C52  1  0.53342315  0.80948927  0.47817613  1  -0.017624  0  -0.08221  -0.132058  0  3.933205  0
C  C53  1  0.46454860  0.19058531  0.46900165  1  -0.013745  0  -0.080082  -0.12889  0  3.93721  0
C  C54  1  0.49756602  0.50132988  0.38978841  1  1.56469  0  0.21282  0.588163  0  4.178387  0
C  C55  1  0.50187477  0.49859449  0.61173386  1  1.588224  0  0.216206  0.595091  0  4.17118  0
C  C56  1  0.55651884  0.89886791  0.47205290  1  -0.062475  0  -0.002926  0.036069  0  3.946349  0
C  C57  1  0.44029368  0.10118653  0.45556457  1  -0.098174  0  -0.002961  0.032731  0  3.948996  0
C  C58  1  0.65583925  0.93538219  0.48487544  1  0.000417  0  -0.007435  0.079725  0  4.014304  0
C  C59  1  0.34076509  0.06464540  0.43874138  1  0.100576  0  -0.007066  0.083192  0  4.012412  0
C  C60  1  0.48387500  0.95465394  0.45701498  1  -0.02316  0  -0.003115  0.034664  0  3.953463  0
C  C61  1  0.51241210  0.04538653  0.46161302  1  0.002949  0  -0.003375  0.035729  0  3.955318  0
C  C62  1  0.61212310  0.07928997  0.47307735  1  -0.006413  0  -0.092947  -0.129842  0  4.027532  0
C  C63  1  0.38378627  0.92078055  0.43852459  1  -0.052122  0  -0.095663  -0.128496  0  4.029477  0
C  C64  1  0.68087818  0.02651912  0.48299678  1  -0.0332  0  -0.094769  -0.139261  0  4.035164  0
C  C65  1  0.31505758  0.97356801  0.42855446  1  -0.092707  0  -0.096042  -0.137757  0  4.031148  0
C  C66  1  0.16386713  0.64646776  0.41849811  1  0.002393  0  -0.007202  0.020611  0  3.948236  0
C  C67  1  0.83587558  0.35310690  0.58208862  1  -0.051777  0  -0.008394  0.02075  0  3.951292  0
C  C68  1  0.25319355  0.62110816  0.43096407  1  0.477598  0  0.044813  0.028247  0  3.928562  0
C  C69  1  0.74669516  0.37872433  0.57002829  1  0.483062  0  0.044455  0.028564  0  3.925609  0
C  C70  1  0.20943656  0.51385538  0.49067507  1  0.547243  0  0.07021  0.063044  0  3.878315  0
C  C71  1  0.79073400  0.48726415  0.51114118  1  0.557539  0  0.069158  0.064108  0  3.877434  0
C  C72  1  0.11621347  0.53458627  0.48048218  1  0.014444  0  0.006745  0.001251  0  3.940821  0
C  C73  1  0.88363032  0.46599207  0.52069280  1  -0.011383  0  0.006924  -0.001112  0  3.949288  0
C  C74  1  0.09170801  0.60378719  0.44274436  1  0.003854  0  0.004138  0.057432  0  3.997224  0
C  C75  1  0.90801162  0.39635903  0.55802947  1  0.012996  0  0.002986  0.056914  0  3.998829  0
C  C76  1  0.45021385  0.42466495  0.87159767  1  1.327924  0  0.243607  0.437965  0  4.098937  0
C  C77  1  0.55044815  0.57522183  0.13060159  1  1.339089  0  0.243728  0.433532  0  4.101185  0
C  C78  1  0.04618043  0.48825298  0.50662983  1  0.022025  0  0.007498  0.042235  0  3.95707  0
C  C79  1  0.95356615  0.51222428  0.49440119  1  -0.041374  0  0.007775  0.042654  0  3.960159  0
C  C80  1  0.93173442  0.58140486  0.45631404  1  -0.038294  0  -0.070258  -0.09755  0  3.957212  0
C  C81  1  0.06794658  0.41878792  0.54445968  1  -0.056864  0  -0.069978  -0.098834  0  3.959379  0
C  C82  1  0.99780645  0.62558851  0.43148528  1  -0.035458  0  -0.083572  -0.115071  0  3.980978  0
C  C83  1  0.00180835  0.37438320  0.56912018  1  -0.000456  0  -0.083518  -0.11259  0  3.979809  0
C  C84  1  0.56129528  0.56648931  0.88941174  1  1.352291  0  0.244643  0.438785  0  4.097773  0
C  C85  1  0.43897083  0.43362251  0.11265959  1  1.352273  0  0.244603  0.434209  0  4.100394  0
C  C86  1  0.55775758  0.56725907  0.95119520  1  -0.022928  0  -0.003109  -0.058271  0  3.983027  0
C  C87  1  0.44277522  0.43272999  0.05097211  1  -0.046752  0  -0.003184  -0.058518  0  3.985552  0
C  C88  1  0.50187626  0.49876012  0.97143225  1  0.022696  0  0.003874  0.02871  0  4.003533  0
C  C89  1  0.49882747  0.50113868  0.03078655  1  0.031727  0  0.004753  0.031081  0  4.002138  0
C  C90  1  0.44879869  0.42805672  0.93371579  1  -0.055729  0  -0.00357  -0.057329  0  3.981107  0
C  C91  1  0.55191096  0.57184794  0.06850525  1  -0.050549  0  -0.003198  -0.057061  0  3.98443  0
C  C92  1  0.60897620  0.63610249  0.98903325  1  -0.021164  0  -0.060914  -0.067698  0  3.927871  0
C  C93  1  0.39154529  0.36388499  0.01317423  1  0.003383  0  -0.061148  -0.067509  0  3.927537  0
C  C94  1  0.60610606  0.63837025  0.04758335  1  0.004089  0  -0.061295  -0.069471  0  3.930437  0
C  C95  1  0.39454771  0.36156522  0.95466037  1  -0.023583  0  -0.061  -0.068824  0  3.928747  0
Br  Br96  1  0.14099161  0.73959922  0.36803324  1  -0.03895  0  0.059622  -0.03514  0  1.37775  0
Br  Br97  1  0.85847813  0.25868823  0.63128241  1  -0.031828  0  0.048255  -0.043882  0  1.341582  0
N  N98  1  0.50651366  0.49480056  0.85351072  1  -1.162046  0  -0.229913  -0.226645  0  3.577961  0
N  N99  1  0.49392947  0.50517302  0.14854962  1  -1.167736  0  -0.229828  -0.211204  0  3.565933  0
N  N100  1  0.27440875  0.55531970  0.46672544  1  -1.237771  0  -0.315531  -0.16368  0  3.545509  0
N  N101  1  0.72588188  0.44547732  0.53509054  1  -1.240687  0  -0.316028  -0.166406  0  3.545766  0
O  O102  1  0.63913572  0.61550739  0.51676340  1  -1.152685  0  -0.320404  -0.545535  0  2.292157  0
O  O103  1  0.36134021  0.38485815  0.47544309  1  -1.153063  0  -0.321088  -0.54628  0  2.291715  0
O  O104  1  0.48474888  0.63847982  0.49730299  1  -1.163903  0  -0.321737  -0.558674  0  2.350479  0
O  O105  1  0.51605003  0.36162099  0.50389468  1  -1.165781  0  -0.321972  -0.559217  0  2.350381  0
O  O106  1  0.57413368  0.48593492  0.42642862  1  -1.177874  0  -0.319343  -0.553152  0  2.326851  0
O  O107  1  0.42317004  0.50828498  0.57475269  1  -1.1744  0  -0.319711  -0.554679  0  2.325447  0
O  O108  1  0.42164393  0.51570003  0.40192827  1  -1.158767  0  -0.318522  -0.54662  0  2.317193  0
O  O109  1  0.57981227  0.49029173  0.59980125  1  -1.161732  0  -0.318753  -0.546176  0  2.318271  0
O  O110  1  0.40524448  0.36491333  0.83710006  1  -1.093472  0  -0.277663  -0.434302  0  2.061179  0
O  O111  1  0.59554465  0.63482458  0.16518883  1  -1.100063  0  -0.277323  -0.434075  0  2.064014  0
O  O112  1  0.60811636  0.62454412  0.86961636  1  -1.098808  0  -0.274889  -0.430088  0  2.062052  0
O  O113  1  0.39181078  0.37577700  0.13241386  1  -1.098557  0  -0.275083  -0.430838  0  2.063776  0
