# generated using pymatgen
data_CoH12(C5O3)2
_symmetry_space_group_name_H-M   'P 1'
_cell_length_a   5.31741935
_cell_length_b   9.15691561
_cell_length_c   10.25560362
_cell_angle_alpha   100.72426542
_cell_angle_beta   90.00370603
_cell_angle_gamma   90.00074702
_symmetry_Int_Tables_number   1
_chemical_formula_structural   CoH12(C5O3)2
_chemical_formula_sum   'Co2 H24 C20 O12'
_cell_volume   490.63550222
_cell_formula_units_Z   2
loop_
 _symmetry_equiv_pos_site_id
 _symmetry_equiv_pos_as_xyz
  1  'x, y, z'
loop_
 _atom_site_type_symbol
 _atom_site_label
 _atom_site_symmetry_multiplicity
 _atom_site_fract_x
 _atom_site_fract_y
 _atom_site_fract_z
 _atom_site_occupancy
 _atom_site_hle17_ddec_charge
 _atom_site_hle17_ddec_spin_density
 _atom_site_hle17_ddec_sum_bond_order
 _atom_site_hle17_magmom
 _atom_site_hse06_10hf_ddec_charge
 _atom_site_hse06_10hf_ddec_spin_density
 _atom_site_hse06_10hf_ddec_sum_bond_order
 _atom_site_hse06_10hf_magmom
 _atom_site_hse06_ddec_charge
 _atom_site_hse06_ddec_spin_density
 _atom_site_hse06_ddec_sum_bond_order
 _atom_site_hse06_magmom
 _atom_site_pbe_cm5_charge
 _atom_site_pbe_ddec_charge
 _atom_site_pbe_ddec_spin_density
 _atom_site_pbe_ddec_sum_bond_order
 _atom_site_pbe_magmom
Co  Co0  1  0.00000713  0.50000101  0.49999371  1  1.127837  -2.8398  1.776877  -2.612  1.103568  -2.85299  2.158709  -2.684  1.179162  -2.887935  2.088347  -2.75  0.635683  1.039576  -2.818518  2.214198  -2.619
Co  Co1  1  0.49999317  0.99999656  0.50000111  1  1.127982  -2.839745  1.776824  -2.612  1.103919  -2.853067  2.158541  -2.684  1.179499  -2.88798  2.088167  -2.75  0.635844  1.039909  -2.818562  2.214096  -2.619
H  H2  1  0.24020193  0.42468074  0.79745912  1  0.100553  0.000153  0.948164  0.0  0.114664  0.000147  1.003259  0.0  0.117223  0.00015  1.002615  0.0  0.099643  0.112793  0.000132  1.003622  0.0
H  H3  1  0.74016279  0.07528614  0.20245454  1  0.100767  0.000154  0.94817  0.0  0.114952  0.000147  1.003096  0.0  0.117477  0.00015  1.002487  0.0  0.099696  0.113119  0.000132  1.003425  0.0
H  H4  1  0.75981057  0.57533878  0.20253743  1  0.100645  0.000156  0.948227  0.0  0.114762  0.000147  1.003265  0.0  0.117309  0.00015  1.002645  0.0  0.099678  0.112892  0.000132  1.003632  0.0
H  H5  1  0.25983466  0.92470441  0.79756053  1  0.10071  0.000135  0.948366  0.0  0.114902  0.000147  1.003274  0.0  0.117428  0.00015  1.002664  0.0  0.0997  0.113076  0.000132  1.003595  0.0
H  H6  1  0.90306201  0.37308963  0.02416624  1  0.087737  -9e-06  0.984423  0.0  0.099609  -2.8e-05  1.047074  0.0  0.101351  -2.4e-05  1.048073  0.0  0.097464  0.098434  -3.5e-05  1.046463  0.0
H  H7  1  0.40298514  0.12701907  0.97589876  1  0.087901  -1.1e-05  0.984438  0.0  0.099767  -2.8e-05  1.047049  0.0  0.101504  -2.4e-05  1.048108  0.0  0.097541  0.098589  -3.5e-05  1.046434  0.0
H  H8  1  0.09695048  0.62691102  0.97582031  1  0.087868  -1.5e-05  0.984315  0.0  0.099714  -2.8e-05  1.04696  0.0  0.101444  -2.4e-05  1.047997  0.0  0.0975  0.098539  -3.5e-05  1.046351  0.0
H  H9  1  0.59700479  0.87298268  0.02409090  1  0.0879  -5e-06  0.984352  0.0  0.099798  -2.8e-05  1.046949  0.0  0.101539  -2.4e-05  1.047987  0.0  0.097551  0.098621  -3.5e-05  1.046332  0.0
H  H10  1  0.54340844  0.16590256  0.77664361  1  0.132975  0.000324  0.953869  0.0  0.143239  0.000231  1.019345  0.0  0.145641  0.000283  1.017993  0.0  0.106574  0.141199  0.000123  1.020913  0.0
H  H11  1  0.04306785  0.33398753  0.22339024  1  0.132617  0.000313  0.954016  0.0  0.143103  0.000231  1.019392  0.0  0.14551  0.000284  1.018032  0.0  0.10648  0.141067  0.000123  1.02097  0.0
H  H12  1  0.45657209  0.83412470  0.22336887  1  0.133099  0.000331  0.953829  0.0  0.143314  0.000231  1.019305  0.0  0.145717  0.000283  1.017949  0.0  0.10658  0.141274  0.000123  1.020878  0.0
H  H13  1  0.95695969  0.66599860  0.77661823  1  0.13266  0.000326  0.953925  0.0  0.143066  0.000231  1.01936  0.0  0.145475  0.000284  1.017997  0.0  0.106474  0.14103  0.000123  1.020936  0.0
H  H14  1  0.85574221  0.21781629  0.81865733  1  0.126856  0.000328  0.925005  0.0  0.140912  -0.000121  0.987178  0.0  0.143298  -0.000107  0.986815  0.0  0.108887  0.138988  -9.8e-05  0.987744  0.0
H  H15  1  0.35546948  0.28239820  0.18146930  1  0.126835  0.000305  0.925292  0.0  0.141017  -0.000121  0.987334  0.0  0.14339  -0.000107  0.987002  0.0  0.108929  0.139102  -9.9e-05  0.987895  0.0
H  H16  1  0.14427593  0.78219761  0.18135875  1  0.126816  0.000331  0.925287  0.0  0.140872  -0.00012  0.987391  0.0  0.143255  -0.000108  0.987032  0.0  0.108886  0.138953  -9.8e-05  0.987956  0.0
H  H17  1  0.64452985  0.71759461  0.81853445  1  0.126917  0.000318  0.925288  0.0  0.141104  -0.000121  0.987258  0.0  0.143476  -0.000107  0.986926  0.0  0.108972  0.139188  -9.9e-05  0.987819  0.0
H  H18  1  0.33736616  0.68065542  0.57047264  1  0.415549  0.000757  0.888668  0.001  0.383178  0.000229  0.965013  0.0  0.394586  0.000402  0.948575  0.0  0.294053  0.375338  6.8e-05  0.976192  0.0
H  H19  1  0.83730915  0.81932869  0.42949324  1  0.415553  0.000752  0.888765  0.001  0.38319  0.000228  0.965003  0.0  0.394617  0.000401  0.948553  0.0  0.294067  0.375341  6.8e-05  0.976175  0.0
H  H20  1  0.66264070  0.31934409  0.42952444  1  0.415463  0.000755  0.888809  0.001  0.383167  0.000229  0.965005  0.0  0.394588  0.000402  0.948563  0.0  0.29409  0.375314  6.8e-05  0.976186  0.0
H  H21  1  0.16267890  0.18066966  0.57051729  1  0.415421  0.000754  0.888751  0.001  0.383095  0.000228  0.965099  0.0  0.394504  0.000401  0.948657  0.0  0.294052  0.375249  6.8e-05  0.976274  0.0
H  H22  1  0.46216482  0.54709857  0.62663889  1  0.420507  0.000419  0.849562  0.0  0.394257  -0.000137  0.924167  -0.001  0.4037  -1.5e-05  0.913723  -0.001  0.306168  0.387243  -0.000261  0.931653  -0.001
H  H23  1  0.96211653  0.95286352  0.37332409  1  0.420899  0.000414  0.84906  0.0  0.394578  -0.000136  0.923862  -0.001  0.404019  -1.3e-05  0.913409  -0.001  0.306257  0.387547  -0.000259  0.93141  -0.001
H  H24  1  0.53784015  0.45289206  0.37335084  1  0.42055  0.000414  0.849554  0.0  0.394289  -0.000137  0.924188  -0.001  0.403733  -1.5e-05  0.913742  -0.001  0.306178  0.387269  -0.000261  0.931695  -0.001
H  H25  1  0.03789973  0.04713595  0.62668566  1  0.420878  0.000415  0.84912  0.0  0.394549  -0.000137  0.923923  -0.001  0.40399  -1.4e-05  0.913477  -0.001  0.306262  0.387515  -0.00026  0.931476  -0.001
C  C26  1  0.35662234  0.45739777  0.88568203  1  -0.115145  -0.00015  3.723465  0.0  -0.133972  -4.3e-05  3.971735  0.0  -0.136289  2.6e-05  3.992045  0.0  -0.096673  -0.131661  -0.000225  3.957531  0.0
C  C27  1  0.85656397  0.04260269  0.11424864  1  -0.11572  -0.000143  3.723444  0.0  -0.134604  -4.3e-05  3.971722  0.0  -0.136897  2.8e-05  3.992043  0.0  -0.096889  -0.132317  -0.000226  3.957517  0.0
C  C28  1  0.64339392  0.54260839  0.11432105  1  -0.115266  -0.000168  3.723419  0.0  -0.134031  -4.2e-05  3.971766  0.0  -0.136345  2.7e-05  3.99209  0.0  -0.096728  -0.131725  -0.000225  3.957572  0.0
C  C29  1  0.14343537  0.95741683  0.88574889  1  -0.11558  -0.00014  3.723719  0.0  -0.134461  -4.3e-05  3.972013  0.0  -0.136753  2.7e-05  3.99233  0.0  -0.096906  -0.132179  -0.000225  3.957805  0.0
C  C30  1  0.58460699  0.38465599  0.89767172  1  0.113152  -0.000497  3.766765  0.0  0.131335  -0.000295  4.004363  0.0  0.132239  -0.000146  4.02838  0.0  -0.015492  0.130603  -0.000347  3.988069  0.0
C  C31  1  0.08457483  0.11535061  0.10234758  1  0.113781  -0.000502  3.767073  0.0  0.132072  -0.000296  4.004592  0.0  0.132998  -0.000148  4.028584  0.0  -0.015271  0.131335  -0.000347  3.988314  0.0
C  C32  1  0.41538294  0.61533237  0.10233421  1  0.113401  -0.000475  3.766137  0.0  0.13136  -0.000296  4.003979  0.0  0.13226  -0.000147  4.027993  0.0  -0.015416  0.130629  -0.000347  3.98769  0.0
C  C33  1  0.91542450  0.88464777  0.89765321  1  0.113754  -0.000478  3.766806  0.0  0.131963  -0.000296  4.004391  0.0  0.132888  -0.000149  4.028384  0.0  -0.015266  0.131227  -0.000347  3.988115  0.0
C  C34  1  0.72522895  0.42851190  0.01367364  1  -0.120125  -9.8e-05  3.751146  0.0  -0.139888  -9.2e-05  3.998471  0.0  -0.142401  -4.2e-05  4.020044  0.0  -0.094122  -0.13867  -0.000133  3.984082  0.0
C  C35  1  0.22519645  0.07155253  0.98637704  1  -0.120413  -9.4e-05  3.751688  0.0  -0.140179  -9.2e-05  3.99888  0.0  -0.142721  -4.1e-05  4.02045  0.0  -0.094166  -0.138947  -0.000133  3.98449  0.0
C  C36  1  0.27476286  0.57148202  0.98633225  1  -0.120349  -0.0001  3.751037  0.0  -0.140036  -9.2e-05  3.998465  0.0  -0.14255  -4.3e-05  4.02003  0.0  -0.094197  -0.138821  -0.000133  3.984077  0.0
C  C37  1  0.77481605  0.92843585  0.01362207  1  -0.120392  -0.000123  3.751502  0.0  -0.140177  -9.2e-05  3.998728  0.0  -0.142712  -4.1e-05  4.020297  0.0  -0.094177  -0.138944  -0.000132  3.984336  0.0
C  C38  1  0.67354034  0.26015941  0.79020041  1  -0.324745  -0.003014  3.679397  -0.005  -0.367952  -0.001946  3.913668  -0.003  -0.374537  -0.001178  3.920214  -0.002  -0.161872  -0.363147  -0.002562  3.909633  -0.004
C  C39  1  0.17343261  0.23982647  0.20983882  1  -0.324764  -0.002973  3.680416  -0.005  -0.368468  -0.001942  3.914872  -0.003  -0.375078  -0.001173  3.921438  -0.002  -0.161929  -0.363666  -0.002558  3.91084  -0.004
C  C40  1  0.32646087  0.73985452  0.20980690  1  -0.324981  -0.00303  3.67956  -0.005  -0.368021  -0.001946  3.913808  -0.003  -0.374603  -0.001174  3.920346  -0.002  -0.161929  -0.363217  -0.002561  3.909781  -0.004
C  C41  1  0.82657800  0.76015302  0.79015684  1  -0.324992  -0.003  3.680365  -0.005  -0.368524  -0.001941  3.914604  -0.003  -0.375129  -0.001174  3.921154  -0.002  -0.161939  -0.363723  -0.002558  3.910574  -0.004
C  C42  1  0.71530677  0.30388992  0.65619331  1  0.728639  0.012036  3.742952  0.008  0.689686  0.000786  4.036129  0.0  0.727598  2.2e-05  4.025847  -0.001  0.226346  0.662094  0.002028  4.04283  0.001
C  C43  1  0.21525937  0.19614138  0.34380574  1  0.728811  0.011989  3.743524  0.008  0.689981  0.000788  4.03657  0.0  0.727884  2.7e-05  4.026268  -0.001  0.226247  0.662388  0.002023  4.043262  0.001
C  C44  1  0.28468880  0.69611850  0.34379747  1  0.728773  0.012024  3.743031  0.008  0.689641  0.000786  4.036308  0.0  0.727542  2.1e-05  4.026029  -0.001  0.226321  0.662049  0.002028  4.043011  0.001
C  C45  1  0.78472492  0.80385588  0.65619973  1  0.728807  0.012006  3.743628  0.008  0.68998  0.000785  4.036599  0.0  0.727883  2.5e-05  4.026302  -0.001  0.226278  0.662394  0.00202  4.043282  0.001
O  O46  1  0.80479125  0.43340619  0.65445518  1  -0.652892  -0.036627  2.067895  -0.066  -0.611705  -0.026819  2.331727  -0.043  -0.646658  -0.02021  2.320337  -0.033  -0.311899  -0.58405  -0.034165  2.338645  -0.055
O  O47  1  0.30470378  0.06661671  0.34553663  1  -0.652869  -0.036627  2.067471  -0.066  -0.611777  -0.026818  2.331197  -0.043  -0.646705  -0.020209  2.319783  -0.033  -0.311826  -0.584086  -0.034172  2.338088  -0.055
O  O48  1  0.19519680  0.56660116  0.34552567  1  -0.652703  -0.036623  2.067666  -0.066  -0.611644  -0.026822  2.331679  -0.043  -0.646574  -0.020215  2.320271  -0.033  -0.311852  -0.583983  -0.034169  2.338595  -0.055
O  O49  1  0.69526546  0.93337391  0.65445700  1  -0.652851  -0.036638  2.067575  -0.066  -0.611763  -0.026819  2.331304  -0.043  -0.646688  -0.020209  2.319885  -0.033  -0.311859  -0.58407  -0.034174  2.338191  -0.055
O  O50  1  0.66734042  0.21179117  0.54879079  1  -0.662451  -0.029738  2.133348  -0.059  -0.612056  -0.024706  2.388116  -0.044  -0.647116  -0.01901  2.375902  -0.034  -0.309397  -0.586397  -0.029625  2.398014  -0.052
O  O51  1  0.16733334  0.28818818  0.45121794  1  -0.662713  -0.029709  2.134185  -0.059  -0.612112  -0.024683  2.388668  -0.044  -0.647185  -0.018993  2.37649  -0.034  -0.309323  -0.586389  -0.02963  2.398492  -0.052
O  O52  1  0.33263071  0.78820499  0.45121060  1  -0.66303  -0.029741  2.133813  -0.059  -0.612126  -0.024708  2.38821  -0.044  -0.647177  -0.019009  2.375992  -0.034  -0.309406  -0.586467  -0.029628  2.398113  -0.052
O  O53  1  0.83265847  0.71181799  0.54878416  1  -0.662596  -0.029709  2.133962  -0.059  -0.61209  -0.024681  2.388542  -0.044  -0.647155  -0.018989  2.376351  -0.034  -0.30933  -0.586376  -0.029628  2.398365  -0.052
O  O54  1  0.30352956  0.60081220  0.62315509  1  -0.814277  -0.023988  1.943598  -0.045  -0.783029  -0.020706  2.171006  -0.034  -0.808135  -0.016187  2.140982  -0.028  -0.567561  -0.762556  -0.025622  2.190814  -0.041
O  O55  1  0.80345314  0.89916769  0.37681615  1  -0.814796  -0.023974  1.943168  -0.045  -0.783521  -0.020702  2.170454  -0.034  -0.808651  -0.016185  2.140365  -0.028  -0.567717  -0.763017  -0.025619  2.190366  -0.041
O  O56  1  0.69647730  0.39918730  0.37684296  1  -0.814358  -0.023981  1.943806  -0.045  -0.783112  -0.020705  2.171213  -0.034  -0.808217  -0.016187  2.141099  -0.028  -0.567612  -0.76262  -0.02562  2.191083  -0.041
O  O57  1  0.19656688  0.10082626  0.62317999  1  -0.814604  -0.023981  1.943398  -0.045  -0.783354  -0.020705  2.170746  -0.034  -0.808451  -0.016188  2.140707  -0.028  -0.567654  -0.762856  -0.025623  2.190637  -0.041
