# generated using pymatgen
data_ZnH24C28(NO2)2
_symmetry_space_group_name_H-M   'P 1'
_cell_length_a   10.12923845
_cell_length_b   11.10089641
_cell_length_c   11.19899444
_cell_angle_alpha   88.00222982
_cell_angle_beta   71.20999167
_cell_angle_gamma   79.56066732
_symmetry_Int_Tables_number   1
_chemical_formula_structural   ZnH24C28(NO2)2
_chemical_formula_sum   'Zn2 H48 C56 N4 O8'
_cell_volume   1172.03730369
_cell_formula_units_Z   2
loop_
 _symmetry_equiv_pos_site_id
 _symmetry_equiv_pos_as_xyz
  1  'x, y, z'
loop_
 _atom_site_type_symbol
 _atom_site_label
 _atom_site_symmetry_multiplicity
 _atom_site_fract_x
 _atom_site_fract_y
 _atom_site_fract_z
 _atom_site_occupancy
 _atom_site_pbe_bader_spin_density
 _atom_site_pbe_cm5_charge
 _atom_site_pbe_ddec_charge
 _atom_site_pbe_ddec_spin_density
 _atom_site_pbe_ddec_sum_bond_order
 _atom_site_pbe_magmom
Zn  Zn0  1  0.57205882  0.61435153  0.58571535  1  0  0.684585  0.816003  0  2.291593  0
Zn  Zn1  1  0.42794182  0.38564865  0.41428639  1  0  0.684575  0.816046  0  2.291609  0
H  H2  1  0.55825757  0.39484508  0.76376945  1  0  0.12002  0.092008  0  1.017942  0
H  H3  1  0.44174089  0.60515054  0.23623038  1  0  0.120022  0.092031  0  1.017918  0
H  H4  1  0.71490562  0.19753821  0.78154636  1  0  0.106679  0.112921  0  1.025367  0
H  H5  1  0.28509367  0.80245835  0.21844963  1  0  0.106677  0.112916  0  1.025387  0
H  H6  1  0.04905671  0.31526415  0.47556963  1  0  0.112756  0.127903  0  1.024183  0
H  H7  1  0.95094592  0.68474152  0.52443403  1  0  0.112744  0.127874  0  1.024275  0
H  H8  1  0.87619405  0.50418862  0.46861671  1  0  0.116346  0.084884  0  1.03741  0
H  H9  1  0.12380203  0.49581341  0.53138454  1  0  0.116339  0.084884  0  1.037422  0
H  H10  1  0.25643888  0.69774890  0.70343100  1  0  0.119329  0.092992  0  1.016497  0
H  H11  1  0.74356167  0.30224672  0.29656822  1  0  0.119327  0.093042  0  1.016448  0
H  H12  1  0.07089482  0.88045425  0.70776586  1  0  0.10716  0.111197  0  1.014055  0
H  H13  1  0.92910679  0.11954136  0.29223483  1  0  0.107179  0.11119  0  1.014102  0
H  H14  1  0.38666863  0.02698206  0.40911888  1  0  0.108045  0.118811  0  1.029847  0
H  H15  1  0.61333071  0.97301446  0.59088335  1  0  0.108021  0.118763  0  1.029852  0
H  H16  1  0.55919135  0.83290266  0.41619317  1  0  0.119293  0.097088  0  1.004738  0
H  H17  1  0.44080691  0.16709388  0.58380492  1  0  0.119288  0.097101  0  1.004718  0
H  H18  1  0.93551203  0.05694760  0.70260012  1  0  0.099682  0.092759  0  1.042402  0
H  H19  1  0.06448877  0.94305171  0.29739624  1  0  0.099676  0.092726  0  1.042423  0
H  H20  1  0.17122465  0.15261515  0.49033228  1  0  0.108193  0.125313  0  1.048614  0
H  H21  1  0.82877901  0.84738049  0.50966423  1  0  0.108188  0.125294  0  1.048653  0
H  H22  1  0.47777604  0.74168054  0.00574057  1  0  0.101829  0.10117  0  1.007904  0
H  H23  1  0.52223001  0.25831875  0.99425870  1  0  0.101791  0.101141  0  1.007945  0
H  H24  1  0.51598473  0.85503769  0.17826130  1  0  0.093761  0.089673  0  1.026234  0
H  H25  1  0.48402191  0.14495884  0.82173965  1  0  0.093753  0.089624  0  1.026323  0
H  H26  1  0.83202871  0.01747718  0.90146298  1  0  0.091185  0.087589  0  1.022787  0
H  H27  1  0.16797176  0.98252391  0.09854145  1  0  0.091196  0.087573  0  1.022832  0
H  H28  1  0.79311400  0.90311829  0.72970180  1  0  0.09507  0.08826  0  1.042672  0
H  H29  1  0.20688569  0.09688648  0.27030009  1  0  0.095044  0.088194  0  1.042576  0
H  H30  1  0.80437874  0.96468832  0.16690239  1  0  0.087696  0.124311  0  1.007384  0
H  H31  1  0.19562251  0.03530909  0.83310282  1  0  0.087663  0.124277  0  1.007336  0
H  H32  1  0.61982261  0.00779899  0.24430201  1  0  0.088716  0.127929  0  1.012177  0
H  H33  1  0.38017844  0.99219935  0.75570145  1  0  0.088728  0.127922  0  1.012173  0
H  H34  1  0.71080294  0.10526806  0.13123645  1  0  0.091873  0.134222  0  1.004434  0
H  H35  1  0.28919934  0.89472937  0.86876666  1  0  0.091853  0.134196  0  1.004428  0
H  H36  1  0.13782862  0.28741107  0.79334826  1  0  0.096821  0.095748  0  1.016967  0
H  H37  1  0.86217208  0.71259372  0.20665064  1  0  0.096855  0.095813  0  1.01687  0
H  H38  1  0.01696777  0.27421293  0.02506836  1  0  0.094046  0.093434  0  1.003534  0
H  H39  1  0.98303121  0.72579004  0.97492843  1  0  0.094063  0.093441  0  1.003547  0
H  H40  1  0.24496890  0.53997622  0.09605133  1  0  0.093356  0.096656  0  1.0127  0
H  H41  1  0.75502822  0.46002580  0.90394961  1  0  0.09335  0.096637  0  1.012654  0
H  H42  1  0.36135790  0.55626874  0.86573789  1  0  0.10088  0.116542  0  1.054429  0
H  H43  1  0.63864093  0.44373511  0.13426428  1  0  0.100856  0.116517  0  1.054449  0
H  H44  1  0.97244580  0.33961351  0.23771202  1  0  0.085133  0.1176  0  1.032074  0
H  H45  1  0.02755274  0.66038668  0.76228855  1  0  0.085145  0.117614  0  1.032068  0
H  H46  1  0.99616375  0.49155449  0.25591359  1  0  0.088321  0.12611  0  1.029138  0
H  H47  1  0.00383566  0.50844661  0.74408849  1  0  0.08833  0.126109  0  1.029147  0
H  H48  1  0.12815865  0.36603077  0.26491935  1  0  0.088207  0.130141  0  1.042441  0
H  H49  1  0.87184198  0.63396943  0.73507971  1  0  0.088197  0.130122  0  1.042452  0
C  C50  1  0.66759854  0.37289531  0.70164795  1  0  0.050916  0.103457  0  3.933244  0
C  C51  1  0.33240076  0.62710124  0.29835072  1  0  0.05091  0.103417  0  3.933116  0
C  C52  1  0.75552032  0.26384081  0.71130379  1  0  -0.084408  -0.187002  0  3.926903  0
C  C53  1  0.24447964  0.73615757  0.28869463  1  0  -0.084419  -0.187034  0  3.926813  0
C  C54  1  0.89587647  0.23794337  0.62889666  1  0  0.008949  0.151697  0  4.019106  0
C  C55  1  0.10412606  0.76205775  0.37110360  1  0  0.008943  0.15171  0  4.018905  0
C  C56  1  0.94128708  0.32827714  0.54152022  1  0  -0.078473  -0.1709  0  3.893895  0
C  C57  1  0.05871318  0.67172488  0.45848158  1  0  -0.078471  -0.170887  0  3.893829  0
C  C58  1  0.84634350  0.43395104  0.53735356  1  0  0.04732  0.093817  0  3.940006  0
C  C59  1  0.15365485  0.56605007  0.46264704  1  0  0.04734  0.093834  0  3.94009  0
C  C60  1  0.27932853  0.77299910  0.63941012  1  0  0.049776  0.099191  0  3.934831  0
C  C61  1  0.72067115  0.22699561  0.36058760  1  0  0.049821  0.09921  0  3.934773  0
C  C62  1  0.17746995  0.87533235  0.64093022  1  0  -0.08004  -0.174515  0  3.934613  0
C  C63  1  0.82252870  0.12466235  0.35906870  1  0  -0.080045  -0.174525  0  3.934711  0
C  C64  1  0.21462020  0.97176027  0.55916334  1  0  0.008024  0.147578  0  4.014637  0
C  C65  1  0.78537738  0.02823445  0.44083321  1  0  0.008035  0.147726  0  4.014493  0
C  C66  1  0.35415617  0.95481219  0.47474097  1  0  -0.083553  -0.186272  0  3.932864  0
C  C67  1  0.64584160  0.04518162  0.52525466  1  0  -0.083573  -0.186282  0  3.932877  0
C  C68  1  0.44954422  0.84886226  0.47854113  1  0  0.044992  0.085684  0  3.956799  0
C  C69  1  0.55045480  0.15113063  0.52145594  1  0  0.045025  0.085715  0  3.956895  0
C  C70  1  0.98571789  0.12081206  0.63391663  1  0  -0.083058  -0.121735  0  3.953342  0
C  C71  1  0.01428463  0.87918906  0.36608274  1  0  -0.083054  -0.12169  0  3.953301  0
C  C72  1  0.12146463  0.08792851  0.55849784  1  0  -0.077753  -0.116075  0  3.92109  0
C  C73  1  0.87853656  0.91206896  0.44149934  1  0  -0.077757  -0.116136  0  3.921034  0
C  C74  1  0.61134981  0.74534894  0.75679095  1  0  0.189618  0.545324  0  4.239426  0
C  C75  1  0.38865045  0.25465308  0.24320996  1  0  0.189641  0.545388  0  4.23929  0
C  C76  1  0.63238299  0.81618291  0.85801649  1  0  -0.023813  -0.041936  0  3.986305  0
C  C77  1  0.36761707  0.18382004  0.14198355  1  0  -0.023811  -0.041938  0  3.98626  0
C  C78  1  0.55444680  0.80320412  0.98457446  1  0  -0.078669  -0.074326  0  3.979387  0
C  C79  1  0.44555657  0.19679792  0.01542463  1  0  -0.078592  -0.074267  0  3.979382  0
C  C80  1  0.57650243  0.86618201  0.07968955  1  0  -0.091783  -0.142104  0  3.97155  0
C  C81  1  0.42349905  0.13381911  0.92031101  1  0  -0.091805  -0.142071  0  3.971607  0
C  C82  1  0.67652137  0.94377333  0.05127318  1  0  -0.002641  0.184203  0  3.96896  0
C  C83  1  0.32348013  0.05622777  0.94872917  1  0  -0.002647  0.184103  0  3.969132  0
C  C84  1  0.75399288  0.95675553  0.92413905  1  0  -0.102896  -0.165997  0  4.00562  0
C  C85  1  0.24600719  0.04324741  0.07586278  1  0  -0.102924  -0.165959  0  4.005754  0
C  C86  1  0.73261639  0.89390008  0.82861136  1  0  -0.092688  -0.102233  0  4.019955  0
C  C87  1  0.26738327  0.10610470  0.17138875  1  0  -0.092639  -0.102149  0  4.019817  0
C  C88  1  0.70384471  0.00901268  0.15351918  1  0  -0.241243  -0.417266  0  3.967525  0
C  C89  1  0.29615738  0.99098566  0.84648397  1  0  -0.241193  -0.417135  0  3.967493  0
C  C90  1  0.32596551  0.43254966  0.67635233  1  0  0.204056  0.564834  0  4.217612  0
C  C91  1  0.67403388  0.56745146  0.32364707  1  0  0.204011  0.564751  0  4.217552  0
C  C92  1  0.25710705  0.42182540  0.81496336  1  0  -0.03312  -0.067639  0  4.018821  0
C  C93  1  0.74289195  0.57817756  0.18503611  1  0  -0.033046  -0.067589  0  4.018851  0
C  C94  1  0.16047741  0.34219177  0.86093862  1  0  -0.086816  -0.082868  0  3.995647  0
C  C95  1  0.83952206  0.65781393  0.13906152  1  0  -0.086812  -0.082842  0  3.995554  0
C  C96  1  0.09365418  0.33521261  0.99018082  1  0  -0.093439  -0.143998  0  3.977174  0
C  C97  1  0.90634482  0.66479034  0.00981864  1  0  -0.093481  -0.14407  0  3.977249  0
C  C98  1  0.12277252  0.40596688  0.07664434  1  0  -0.001406  0.185428  0  3.95243  0
C  C99  1  0.87722439  0.59403607  0.92335574  1  0  -0.001418  0.185395  0  3.952527  0
C  C100  1  0.22092981  0.48449169  0.02975601  1  0  -0.093329  -0.133789  0  3.954375  0
C  C101  1  0.77906921  0.51551125  0.97024523  1  0  -0.093344  -0.133756  0  3.954419  0
C  C102  1  0.28685972  0.49347912  0.90080971  1  0  -0.092888  -0.109129  0  3.985454  0
C  C103  1  0.71314138  0.50652382  0.09919091  1  0  -0.092904  -0.109156  0  3.985574  0
C  C104  1  0.05107055  0.40008773  0.21602579  1  0  -0.245504  -0.425073  0  3.958856  0
C  C105  1  0.94892780  0.59991338  0.78397481  1  0  -0.245508  -0.425058  0  3.958893  0
N  N106  1  0.71101366  0.45640602  0.61465932  1  0  -0.318227  -0.220237  0  3.513479  0
N  N107  1  0.28898337  0.54359143  0.38534088  1  0  -0.318226  -0.220215  0  3.513518  0
N  N108  1  0.41385735  0.75973950  0.56071472  1  0  -0.31752  -0.214885  0  3.505335  0
N  N109  1  0.58614234  0.24025521  0.43928389  1  0  -0.31755  -0.215035  0  3.5054  0
O  O110  1  0.69180257  0.75046306  0.64265020  1  0  -0.329459  -0.572414  0  2.224935  0
O  O111  1  0.30819826  0.24953622  0.35735061  1  0  -0.329469  -0.572444  0  2.224907  0
O  O112  1  0.51470829  0.67993267  0.78564140  1  0  -0.323573  -0.55639  0  2.236427  0
O  O113  1  0.48529218  0.32006842  0.21436215  1  0  -0.323601  -0.556441  0  2.23637  0
O  O114  1  0.40695825  0.51019781  0.63735963  1  0  -0.323534  -0.582222  0  2.448161  0
O  O115  1  0.59304110  0.48980334  0.36263442  1  0  -0.323502  -0.582182  0  2.448155  0
O  O116  1  0.29931609  0.36329013  0.60072884  1  0  -0.322787  -0.553463  0  2.296849  0
O  O117  1  0.70068494  0.63670823  0.39927283  1  0  -0.322806  -0.553441  0  2.296809  0
