# generated using pymatgen
data_CsPH4(CO3)2
_symmetry_space_group_name_H-M   'P 1'
_cell_length_a   5.12499278
_cell_length_b   9.03373260
_cell_length_c   15.13954461
_cell_angle_alpha   90.00037066
_cell_angle_beta   89.99999976
_cell_angle_gamma   90.00007534
_symmetry_Int_Tables_number   1
_chemical_formula_structural   CsPH4(CO3)2
_chemical_formula_sum   'Cs4 P4 H16 C8 O24'
_cell_volume   700.92782625
_cell_formula_units_Z   4
loop_
 _symmetry_equiv_pos_site_id
 _symmetry_equiv_pos_as_xyz
  1  'x, y, z'
loop_
 _atom_site_type_symbol
 _atom_site_label
 _atom_site_symmetry_multiplicity
 _atom_site_fract_x
 _atom_site_fract_y
 _atom_site_fract_z
 _atom_site_occupancy
 _atom_site_hle17_bader_spin_density
 _atom_site_hle17_ddec_charge
 _atom_site_hle17_ddec_spin_density
 _atom_site_hle17_ddec_sum_bond_order
 _atom_site_hle17_magmom
 _atom_site_hse06_10hf_bader_spin_density
 _atom_site_hse06_10hf_ddec_charge
 _atom_site_hse06_10hf_ddec_spin_density
 _atom_site_hse06_10hf_ddec_sum_bond_order
 _atom_site_hse06_10hf_magmom
 _atom_site_hse06_bader_spin_density
 _atom_site_hse06_ddec_charge
 _atom_site_hse06_ddec_spin_density
 _atom_site_hse06_ddec_sum_bond_order
 _atom_site_hse06_magmom
 _atom_site_pbe_bader_spin_density
 _atom_site_pbe_cm5_charge
 _atom_site_pbe_ddec_charge
 _atom_site_pbe_ddec_spin_density
 _atom_site_pbe_ddec_sum_bond_order
 _atom_site_pbe_magmom
Cs  Cs0  1  0.78054366  0.10633161  0.58592602  1  0  0.967801  0  0.58593  0  0  0.912347  0  0.821531  0  0  0.92893  0  0.79636  0  0  0.937462  0.900129  0  0.839319  0
Cs  Cs1  1  0.71945571  0.89366677  0.08592703  1  0  0.967848  0  0.585877  0  0  0.912379  0  0.821476  0  0  0.92895  0  0.796294  0  0  0.937437  0.900162  0  0.839256  0
Cs  Cs2  1  0.21945661  0.60633359  0.91407358  1  0  0.967847  0  0.585873  0  0  0.912376  0  0.821476  0  0  0.928949  0  0.796294  0  0  0.93744  0.900153  0  0.839272  0
Cs  Cs3  1  0.28054329  0.39366798  0.41407398  1  0  0.967799  0  0.585927  0  0  0.912336  0  0.821535  0  0  0.92892  0  0.796363  0  0  0.937457  0.900118  0  0.839325  0
P  P4  1  0.28676217  0.68842441  0.63487181  1  0  1.464378  0  4.769104  0  0  1.301508  0  5.278274  0  0  1.351627  0  5.237532  0  0  0.359945  1.266617  0  5.305941  0
P  P5  1  0.21323968  0.31157302  0.13487190  1  0  1.464325  0  4.769143  0  0  1.301465  0  5.278331  0  0  1.351562  0  5.237579  0  0  0.3599  1.266574  0  5.305996  0
P  P6  1  0.71323829  0.18842652  0.86512810  1  0  1.464388  0  4.769095  0  0  1.301511  0  5.278263  0  0  1.351626  0  5.237516  0  0  0.359923  1.266618  0  5.305934  0
P  P7  1  0.78676107  0.81157489  0.36512814  1  0  1.464347  0  4.769123  0  0  1.301475  0  5.278304  0  0  1.351593  0  5.237558  0  0  0.359933  1.266584  0  5.305974  0
H  H8  1  0.51271580  0.80400846  0.52546650  1  0  0.443536  0  0.861305  0  0  0.407142  0  0.933169  0  0  0.419329  0  0.915619  0  0  0.30844  0.398592  0  0.945455  0
H  H9  1  0.98728162  0.19599037  0.02546614  1  0  0.443524  0  0.861319  0  0  0.407124  0  0.933188  0  0  0.41931  0  0.915638  0  0  0.308433  0.398573  0  0.945474  0
H  H10  1  0.48728298  0.30400937  0.97453386  1  0  0.443523  0  0.861319  0  0  0.407129  0  0.933181  0  0  0.419316  0  0.915631  0  0  0.308446  0.398578  0  0.945467  0
H  H11  1  0.01271692  0.69599174  0.47453345  1  0  0.443491  0  0.861366  0  0  0.407091  0  0.933238  0  0  0.419278  0  0.915686  0  0  0.308428  0.39854  0  0.945523  0
H  H12  1  0.60481513  0.53733237  0.71287915  1  0  0.119655  0  0.903405  0  0  0.127092  0  0.95639  0  0  0.13073  0  0.954233  0  0  0.133921  0.124469  0  0.958131  0
H  H13  1  0.89518033  0.46266296  0.21287916  1  0  0.119711  0  0.903314  0  0  0.127146  0  0.956333  0  0  0.130766  0  0.954169  0  0  0.133919  0.124522  0  0.95808  0
H  H14  1  0.39517913  0.03733561  0.78712084  1  0  0.119674  0  0.903388  0  0  0.127073  0  0.95641  0  0  0.130701  0  0.954258  0  0  0.133918  0.124456  0  0.958154  0
H  H15  1  0.10481492  0.96266790  0.28712146  1  0  0.119655  0  0.903413  0  0  0.127092  0  0.956398  0  0  0.13073  0  0.954241  0  0  0.13392  0.12447  0  0.958139  0
H  H16  1  0.79919395  0.54984150  0.57988310  1  0  0.388061  0  0.904031  0  0  0.363471  0  0.975231  0  0  0.373473  0  0.964029  0  0  0.301618  0.356429  0  0.983059  0
H  H17  1  0.70080541  0.45015903  0.07988306  1  0  0.38806  0  0.904044  0  0  0.363451  0  0.975258  0  0  0.373448  0  0.964069  0  0  0.301623  0.356409  0  0.983084  0
H  H18  1  0.20080619  0.04984161  0.92011694  1  0  0.388066  0  0.904012  0  0  0.363473  0  0.975215  0  0  0.373474  0  0.964016  0  0  0.301612  0.356431  0  0.983043  0
H  H19  1  0.29919566  0.95015892  0.42011685  1  0  0.388067  0  0.904028  0  0  0.363459  0  0.975242  0  0  0.373458  0  0.964048  0  0  0.301621  0.356417  0  0.98307  0
H  H20  1  0.01460918  0.33244366  0.75645867  1  0  0.429735  0  0.877693  0  0  0.395531  0  0.946431  0  0  0.408747  0  0.927861  0  0  0.305893  0.386314  0  0.959353  0
H  H21  1  0.48539072  0.66755398  0.25645946  1  0  0.429736  0  0.877647  0  0  0.395542  0  0.946404  0  0  0.408756  0  0.927836  0  0  0.305894  0.386325  0  0.959327  0
H  H22  1  0.98539161  0.83244657  0.74354048  1  0  0.429741  0  0.87763  0  0  0.395557  0  0.946379  0  0  0.408771  0  0.927811  0  0  0.305911  0.38634  0  0.9593  0
H  H23  1  0.51460970  0.16755684  0.24354133  1  0  0.429758  0  0.877683  0  0  0.395559  0  0.946393  0  0  0.408775  0  0.927822  0  0  0.305905  0.38634  0  0.959319  0
C  C24  1  0.48627055  0.51804097  0.65304178  1  0  -0.200022  0  3.698401  0  0  -0.203109  0  3.957801  0  0  -0.209162  0  3.96099  0  0  -0.011958  -0.199228  0  3.955851  0
C  C25  1  0.01372545  0.48195223  0.15304384  1  0  -0.200124  0  3.698393  0  0  -0.203334  0  3.95793  0  0  -0.209305  0  3.960977  0  0  -0.011978  -0.199455  0  3.955974  0
C  C26  1  0.51372562  0.01804716  0.84695682  1  0  -0.200163  0  3.698606  0  0  -0.203229  0  3.958023  0  0  -0.20927  0  3.961182  0  0  -0.011952  -0.199355  0  3.956075  0
C  C27  1  0.98627179  0.98195848  0.34695817  1  0  -0.200034  0  3.698385  0  0  -0.203127  0  3.957788  0  0  -0.20918  0  3.960976  0  0  -0.011964  -0.199247  0  3.955841  0
C  C28  1  0.29959892  0.39126174  0.67199521  1  0  0.707991  0  3.805833  0  0  0.65612  0  4.110077  0  0  0.690165  0  4.099537  0  0  0.224844  0.632862  0  4.116928  0
C  C29  1  0.20040099  0.60873499  0.17199842  1  0  0.708212  0  3.805309  0  0  0.656489  0  4.10939  0  0  0.690534  0  4.098824  0  0  0.225008  0.63324  0  4.116235  0
C  C30  1  0.70040006  0.89126536  0.82800153  1  0  0.708305  0  3.805248  0  0  0.65646  0  4.10947  0  0  0.690522  0  4.098907  0  0  0.224993  0.633211  0  4.116321  0
C  C31  1  0.79959735  0.10873897  0.32800479  1  0  0.708023  0  3.805835  0  0  0.656164  0  4.110057  0  0  0.690211  0  4.099517  0  0  0.224851  0.632906  0  4.116913  0
O  O32  1  0.20500017  0.74572012  0.72487727  1  0  -0.841539  0  1.989796  0  0  -0.770009  0  2.243769  0  0  -0.795602  0  2.223567  0  0  -0.42366  -0.751937  0  2.257198  0
O  O33  1  0.29500168  0.25427828  0.22487714  1  0  -0.841499  0  1.9898  0  0  -0.769968  0  2.243762  0  0  -0.795552  0  2.223551  0  0  -0.423649  -0.751896  0  2.257192  0
O  O34  1  0.79500042  0.24572131  0.77512286  1  0  -0.841502  0  1.989754  0  0  -0.769979  0  2.243735  0  0  -0.795568  0  2.223529  0  0  -0.423652  -0.751906  0  2.257164  0
O  O35  1  0.70500089  0.75428022  0.27512268  1  0  -0.84153  0  1.989787  0  0  -0.769996  0  2.243763  0  0  -0.79559  0  2.223566  0  0  -0.423662  -0.751923  0  2.257192  0
O  O36  1  0.48071965  0.80451802  0.59249626  1  0  -0.783643  0  2.066353  0  0  -0.71311  0  2.307423  0  0  -0.73476  0  2.281342  0  0  -0.442577  -0.697834  0  2.325137  0
O  O37  1  0.01928220  0.19548006  0.09249589  1  0  -0.783609  0  2.066388  0  0  -0.713072  0  2.307489  0  0  -0.734723  0  2.281413  0  0  -0.442569  -0.697797  0  2.325202  0
O  O38  1  0.51928303  0.30452044  0.90750477  1  0  -0.783622  0  2.066356  0  0  -0.71308  0  2.307416  0  0  -0.734728  0  2.281332  0  0  -0.442593  -0.697803  0  2.325131  0
O  O39  1  0.98072023  0.69548254  0.40750369  1  0  -0.783579  0  2.066415  0  0  -0.713035  0  2.307487  0  0  -0.734684  0  2.281405  0  0  -0.442555  -0.697758  0  2.3252  0
O  O40  1  0.06921841  0.65028913  0.56945960  1  0  -0.862436  0  2.007328  0  0  -0.775097  0  2.246057  0  0  -0.800715  0  2.226056  0  0  -0.379964  -0.757082  0  2.259482  0
O  O41  1  0.43077955  0.34970980  0.06945983  1  0  -0.862465  0  2.007379  0  0  -0.775105  0  2.246095  0  0  -0.800722  0  2.226102  0  0  -0.379946  -0.75709  0  2.25952  0
O  O42  1  0.93078002  0.15028989  0.93054017  1  0  -0.862477  0  2.007346  0  0  -0.775116  0  2.246061  0  0  -0.800736  0  2.226064  0  0  -0.37995  -0.757101  0  2.259487  0
O  O43  1  0.56921934  0.84971112  0.43054035  1  0  -0.862434  0  2.007311  0  0  -0.775093  0  2.246037  0  0  -0.800707  0  2.226035  0  0  -0.379957  -0.757078  0  2.259463  0
O  O44  1  0.64261024  0.48352112  0.57874159  1  0  -0.567212  0  2.143849  0  0  -0.529283  0  2.370966  0  0  -0.543513  0  2.361873  0  0  -0.460602  -0.519027  0  2.37711  0
O  O45  1  0.85739302  0.51647718  0.07874247  1  0  -0.567162  0  2.143904  0  0  -0.529185  0  2.371079  0  0  -0.54344  0  2.361962  0  0  -0.460575  -0.518929  0  2.377221  0
O  O46  1  0.35739286  0.98352328  0.92125748  1  0  -0.567169  0  2.143976  0  0  -0.529235  0  2.371083  0  0  -0.543471  0  2.361989  0  0  -0.460571  -0.518978  0  2.377229  0
O  O47  1  0.14261095  0.01648058  0.42125841  1  0  -0.567235  0  2.143849  0  0  -0.529291  0  2.371002  0  0  -0.543519  0  2.361912  0  0  -0.46061  -0.519033  0  2.377146  0
O  O48  1  0.27308754  0.28472077  0.62123720  1  0  -0.672595  0  1.992965  0  0  -0.630905  0  2.231812  0  0  -0.653213  0  2.222647  0  0  -0.472814  -0.615514  0  2.237854  0
O  O49  1  0.22691042  0.71527319  0.12124083  1  0  -0.672769  0  1.992706  0  0  -0.631116  0  2.231493  0  0  -0.653403  0  2.22226  0  0  -0.472908  -0.615729  0  2.237533  0
O  O50  1  0.72691119  0.78472607  0.87875978  1  0  -0.672794  0  1.992648  0  0  -0.631107  0  2.231518  0  0  -0.653397  0  2.222282  0  0  -0.47291  -0.615717  0  2.237558  0
O  O51  1  0.77308816  0.21527770  0.37876280  1  0  -0.672585  0  1.993018  0  0  -0.630905  0  2.231876  0  0  -0.653212  0  2.222707  0  0  -0.472808  -0.615513  0  2.237919  0
O  O52  1  0.16598705  0.41195453  0.74497499  1  0  -0.593733  0  2.125396  0  0  -0.541703  0  2.351936  0  0  -0.566054  0  2.334618  0  0  -0.380548  -0.524793  0  2.363429  0
O  O53  1  0.33401481  0.58804188  0.24497746  1  0  -0.59378  0  2.125332  0  0  -0.541815  0  2.351863  0  0  -0.566173  0  2.334536  0  0  -0.380591  -0.52491  0  2.363355  0
O  O54  1  0.83401588  0.91195856  0.75502183  1  0  -0.593794  0  2.125227  0  0  -0.541821  0  2.351833  0  0  -0.566168  0  2.33448  0  0  -0.380617  -0.524918  0  2.363336  0
O  O55  1  0.66598738  0.08804497  0.25502435  1  0  -0.593751  0  2.125345  0  0  -0.541736  0  2.351882  0  0  -0.566085  0  2.334555  0  0  -0.380558  -0.524825  0  2.363376  0
