# generated using pymatgen
data_FeH12C12(SN7)2
_symmetry_space_group_name_H-M   'P 1'
_cell_length_a   7.88401599
_cell_length_b   7.88138111
_cell_length_c   16.97887960
_cell_angle_alpha   89.41814881
_cell_angle_beta   89.37137229
_cell_angle_gamma   106.78085772
_symmetry_Int_Tables_number   1
_chemical_formula_structural   FeH12C12(SN7)2
_chemical_formula_sum   'Fe2 H24 C24 S4 N28'
_cell_volume   1009.93016248
_cell_formula_units_Z   2
loop_
 _symmetry_equiv_pos_site_id
 _symmetry_equiv_pos_as_xyz
  1  'x, y, z'
loop_
 _atom_site_type_symbol
 _atom_site_label
 _atom_site_symmetry_multiplicity
 _atom_site_fract_x
 _atom_site_fract_y
 _atom_site_fract_z
 _atom_site_occupancy
 _atom_site_hle17_bader_spin_density
 _atom_site_hle17_ddec_charge
 _atom_site_hle17_ddec_spin_density
 _atom_site_hle17_ddec_sum_bond_order
 _atom_site_hle17_magmom
 _atom_site_hse06_10hf_bader_spin_density
 _atom_site_hse06_10hf_ddec_charge
 _atom_site_hse06_10hf_ddec_spin_density
 _atom_site_hse06_10hf_ddec_sum_bond_order
 _atom_site_hse06_10hf_magmom
 _atom_site_hse06_bader_spin_density
 _atom_site_hse06_ddec_charge
 _atom_site_hse06_ddec_spin_density
 _atom_site_hse06_ddec_sum_bond_order
 _atom_site_hse06_magmom
 _atom_site_pbe_bader_spin_density
 _atom_site_pbe_cm5_charge
 _atom_site_pbe_ddec_charge
 _atom_site_pbe_ddec_spin_density
 _atom_site_pbe_ddec_sum_bond_order
 _atom_site_pbe_magmom
Fe  Fe0  1  0.00000532  0.99997455  0.49925545  1  0  0.529751  0  3.366085  0  0  0.504614  0  3.844339  0  0  0.541247  0  3.794954  0  0  0.816224  0.487482  0  3.870339  0
Fe  Fe1  1  0.00665366  0.00601669  0.00934466  1  0  0.558965  0  3.053878  0  0  0.512573  0  3.551173  0  0  0.568071  0  3.486596  0  0  0.714116  0.481302  0  3.589747  0
H  H2  1  0.58834193  0.83623848  0.55721899  1  0  0.104013  0  0.943529  0  0  0.108803  0  1.010247  0  0  0.110352  0  1.008226  0  0  0.134272  0.107633  0  1.011874  0
H  H3  1  0.42001565  0.16647366  0.06182243  1  0  0.107357  0  0.93891  0  0  0.111975  0  1.004475  0  0  0.113679  0  1.002229  0  0  0.135203  0.110546  0  1.006506  0
H  H4  1  0.16386241  0.41158680  0.44101958  1  0  0.105061  0  0.941752  0  0  0.109131  0  1.009224  0  0  0.110812  0  1.007002  0  0  0.134707  0.107787  0  1.011109  0
H  H5  1  0.83856655  0.57318742  0.93903742  1  0  0.102504  0  0.934748  0  0  0.108133  0  1.00025  0  0  0.109222  0  0.998947  0  0  0.134725  0.107389  0  1.001256  0
H  H6  1  0.41163229  0.16389801  0.44105939  1  0  0.105008  0  0.941799  0  0  0.10911  0  1.009232  0  0  0.11079  0  1.007015  0  0  0.134655  0.107763  0  1.011118  0
H  H7  1  0.57253617  0.83855010  0.93874326  1  0  0.102077  0  0.934143  0  0  0.10766  0  0.999859  0  0  0.108744  0  0.998545  0  0  0.134347  0.106909  0  1.000884  0
H  H8  1  0.83633822  0.58832254  0.55726111  1  0  0.103809  0  0.942952  0  0  0.108546  0  1.009812  0  0  0.110094  0  1.007787  0  0  0.13419  0.107497  0  1.011359  0
H  H9  1  0.16675325  0.41969902  0.06194081  1  0  0.10674  0  0.939817  0  0  0.111599  0  1.00516  0  0  0.113284  0  1.002951  0  0  0.135245  0.110162  0  1.007188  0
H  H10  1  0.98657590  0.27889558  0.63815798  1  0  0.116181  0  0.964008  0  0  0.117914  0  1.037031  0  0  0.12072  0  1.032668  0  0  0.142226  0.11588  0  1.040315  0
H  H11  1  0.01701700  0.72403920  0.14842328  1  0  0.118501  0  0.962228  0  0  0.119602  0  1.035041  0  0  0.122482  0  1.030493  0  0  0.143164  0.11735  0  1.038826  0
H  H12  1  0.72055815  0.01358316  0.36066712  1  0  0.116469  0  0.96471  0  0  0.118144  0  1.037753  0  0  0.121022  0  1.03334  0  0  0.142141  0.11593  0  1.041166  0
H  H13  1  0.28351086  0.97584436  0.85553595  1  0  0.11429  0  0.967225  0  0  0.116612  0  1.038625  0  0  0.119177  0  1.035182  0  0  0.141506  0.114736  0  1.041155  0
H  H14  1  0.01376309  0.72050852  0.36061358  1  0  0.116352  0  0.965027  0  0  0.117908  0  1.038195  0  0  0.120771  0  1.033795  0  0  0.142048  0.115697  0  1.041592  0
H  H15  1  0.97536324  0.28350309  0.85540878  1  0  0.114195  0  0.96774  0  0  0.117038  0  1.038558  0  0  0.119526  0  1.035234  0  0  0.14165  0.11517  0  1.041088  0
H  H16  1  0.27875859  0.98681052  0.63819070  1  0  0.116296  0  0.963564  0  0  0.117666  0  1.037068  0  0  0.120473  0  1.032691  0  0  0.142137  0.115832  0  1.04047  0
H  H17  1  0.72439076  0.01661043  0.14846712  1  0  0.118489  0  0.962428  0  0  0.119675  0  1.03512  0  0  0.122581  0  1.030561  0  0  0.143146  0.117313  0  1.038942  0
H  H18  1  0.56609658  0.27485681  0.74414766  1  0  0.098507  0  0.947765  0  0  0.100022  0  1.027864  0  0  0.101691  0  1.025502  0  0  0.120333  0.098784  0  1.029754  0
H  H19  1  0.43438292  0.72608849  0.25364398  1  0  0.099721  0  0.94764  0  0  0.100326  0  1.027666  0  0  0.101955  0  1.025514  0  0  0.121145  0.099077  0  1.029379  0
H  H20  1  0.72620186  0.43423930  0.25374233  1  0  0.099929  0  0.94701  0  0  0.100577  0  1.027239  0  0  0.102218  0  1.02508  0  0  0.121123  0.099216  0  1.028977  0
H  H21  1  0.27441220  0.56629457  0.74420602  1  0  0.098888  0  0.947308  0  0  0.099864  0  1.027649  0  0  0.10153  0  1.025268  0  0  0.120527  0.098805  0  1.029673  0
H  H22  1  0.80130106  0.37737327  0.74429048  1  0  0.102006  0  0.949326  0  0  0.102829  0  1.030986  0  0  0.104923  0  1.028708  0  0  0.133431  0.101366  0  1.032594  0
H  H23  1  0.19952343  0.62208296  0.25425179  1  0  0.101896  0  0.94865  0  0  0.102672  0  1.029824  0  0  0.104577  0  1.027815  0  0  0.13347  0.101257  0  1.031379  0
H  H24  1  0.62222990  0.19929217  0.25433861  1  0  0.101855  0  0.948506  0  0  0.102551  0  1.029874  0  0  0.104472  0  1.027834  0  0  0.133366  0.101063  0  1.031407  0
H  H25  1  0.37705202  0.80154182  0.74433921  1  0  0.102028  0  0.948954  0  0  0.102589  0  1.030524  0  0  0.104635  0  1.028286  0  0  0.133508  0.101299  0  1.032307  0
C  C26  1  0.29763992  0.29778074  0.57357305  1  0  0.248108  0  4.052102  0  0  0.239728  0  4.358734  0  0  0.263219  0  4.368296  0  0  0.122733  0.223928  0  4.352115  0
C  C27  1  0.70013647  0.69976511  0.08039782  1  0  0.260198  0  4.050783  0  0  0.252178  0  4.355772  0  0  0.277168  0  4.364782  0  0  0.123069  0.235265  0  4.349643  0
C  C28  1  0.70271297  0.70256324  0.42455487  1  0  0.247533  0  4.05186  0  0  0.238969  0  4.358827  0  0  0.262392  0  4.368118  0  0  0.123489  0.223189  0  4.352511  0
C  C29  1  0.30089992  0.30096371  0.92413569  1  0  0.260615  0  4.056197  0  0  0.252293  0  4.36186  0  0  0.277267  0  4.371215  0  0  0.122358  0.235403  0  4.355545  0
C  C30  1  0.65793193  0.95145433  0.59058043  1  0  0.197322  0  3.646073  0  0  0.148913  0  3.927074  0  0  0.16116  0  3.939729  0  0  0.150919  0.140856  0  3.918579  0
C  C31  1  0.34919750  0.05109898  0.09666131  1  0  0.202842  0  3.634788  0  0  0.154427  0  3.915087  0  0  0.167949  0  3.927145  0  0  0.153229  0.145137  0  3.907599  0
C  C32  1  0.04866972  0.34204747  0.40767773  1  0  0.199884  0  3.643858  0  0  0.151159  0  3.925727  0  0  0.164019  0  3.937706  0  0  0.151101  0.142447  0  3.917897  0
C  C33  1  0.95369154  0.64521094  0.90421682  1  0  0.200882  0  3.672206  0  0  0.153564  0  3.953688  0  0  0.165164  0  3.968365  0  0  0.153304  0.145856  0  3.94351  0
C  C34  1  0.34211108  0.04868283  0.40768835  1  0  0.199826  0  3.643517  0  0  0.151  0  3.925413  0  0  0.163862  0  3.937385  0  0  0.150999  0.142306  0  3.917582  0
C  C35  1  0.64459458  0.95376486  0.90397582  1  0  0.200316  0  3.67311  0  0  0.153168  0  3.954589  0  0  0.164749  0  3.9693  0  0  0.152964  0.145481  0  3.944359  0
C  C36  1  0.95144726  0.65799422  0.59064115  1  0  0.197641  0  3.645317  0  0  0.149264  0  3.926483  0  0  0.161569  0  3.939146  0  0  0.151234  0.141425  0  3.918323  0
C  C37  1  0.05140288  0.34883867  0.09677927  1  0  0.204343  0  3.634369  0  0  0.155705  0  3.914678  0  0  0.169163  0  3.9267  0  0  0.153683  0.146336  0  3.907165  0
C  C38  1  0.86487104  0.17350319  0.63074901  1  0  0.173212  0  3.577837  0  0  0.107365  0  3.845321  0  0  0.124821  0  3.85397  0  0  0.166321  0.095203  0  3.83996  0
C  C39  1  0.13946458  0.82920989  0.14001533  1  0  0.175088  0  3.573258  0  0  0.109367  0  3.841532  0  0  0.128182  0  3.849679  0  0  0.166442  0.095683  0  3.837319  0
C  C40  1  0.82619657  0.13520100  0.36786259  1  0  0.170858  0  3.577966  0  0  0.104954  0  3.845078  0  0  0.122441  0  3.853763  0  0  0.165419  0.09316  0  3.839548  0
C  C41  1  0.17686241  0.85396543  0.86293824  1  0  0.175755  0  3.612223  0  0  0.110677  0  3.878673  0  0  0.126139  0  3.890111  0  0  0.169159  0.100515  0  3.870683  0
C  C42  1  0.13535829  0.82615584  0.36782198  1  0  0.170842  0  3.578003  0  0  0.104972  0  3.845359  0  0  0.122502  0  3.853971  0  0  0.165365  0.093201  0  3.839807  0
C  C43  1  0.85343709  0.17690702  0.86277860  1  0  0.174807  0  3.616921  0  0  0.108844  0  3.883154  0  0  0.124205  0  3.894729  0  0  0.168492  0.098723  0  3.875223  0
C  C44  1  0.17337627  0.86506675  0.63079639  1  0  0.172986  0  3.577396  0  0  0.1075  0  3.844909  0  0  0.125015  0  3.85357  0  0  0.16616  0.093481  0  3.840708  0
C  C45  1  0.82954625  0.13905967  0.14008718  1  0  0.175525  0  3.574071  0  0  0.109854  0  3.841994  0  0  0.128571  0  3.850149  0  0  0.166924  0.096602  0  3.837537  0
C  C46  1  0.69627179  0.25091221  0.74474872  1  0  0.059117  0  3.62538  0  0  -0.028087  0  3.882274  0  0  -0.019687  0  3.890302  0  0  0.063822  -0.033935  0  3.877116  0
C  C47  1  0.30381498  0.74903863  0.25353039  1  0  0.056891  0  3.627411  0  0  -0.027636  0  3.883053  0  0  -0.019217  0  3.891308  0  0  0.063496  -0.033499  0  3.877756  0
C  C48  1  0.74913977  0.30361521  0.25360651  1  0  0.056772  0  3.626659  0  0  -0.027954  0  3.88204  0  0  -0.019536  0  3.890268  0  0  0.063819  -0.033372  0  3.876505  0
C  C49  1  0.25056856  0.69655658  0.74482618  1  0  0.0584  0  3.624179  0  0  -0.027124  0  3.880408  0  0  -0.018718  0  3.888639  0  0  0.06349  -0.034833  0  3.876355  0
S  S50  1  0.45040242  0.45052846  0.61651560  1  0  -0.393911  0  1.9939  0  0  -0.388342  0  2.283796  0  0  -0.39908  0  2.275086  0  0  -0.209799  -0.3809  0  2.290051  0
S  S51  1  0.54132150  0.54105079  0.11956447  1  0  -0.404745  0  1.982324  0  0  -0.399159  0  2.268064  0  0  -0.409411  0  2.258932  0  0  -0.217525  -0.391824  0  2.274614  0
S  S52  1  0.55025100  0.55022908  0.38118711  1  0  -0.397897  0  1.995874  0  0  -0.391321  0  2.286508  0  0  -0.402435  0  2.277766  0  0  -0.211666  -0.383406  0  2.292672  0
S  S53  1  0.45234217  0.45276295  0.87691760  1  0  -0.400566  0  1.976937  0  0  -0.396283  0  2.26057  0  0  -0.405649  0  2.251829  0  0  -0.21836  -0.390032  0  2.266958  0
N  N54  1  0.18499706  0.18513062  0.54271927  1  0  -0.490468  0  3.231892  0  0  -0.459473  0  3.529842  0  0  -0.47814  0  3.532986  0  0  -0.428499  -0.448129  0  3.526871  0
N  N55  1  0.81717625  0.81666517  0.05244516  1  0  -0.495625  0  3.206841  0  0  -0.46264  0  3.510443  0  0  -0.484058  0  3.510358  0  0  -0.428664  -0.449586  0  3.509904  0
N  N56  1  0.81515818  0.81496249  0.45562766  1  0  -0.488076  0  3.232218  0  0  -0.45744  0  3.530433  0  0  -0.475639  0  3.533458  0  0  -0.428525  -0.446539  0  3.52768  0
N  N57  1  0.18953728  0.18930947  0.95842930  1  0  -0.500071  0  3.208698  0  0  -0.467055  0  3.514375  0  0  -0.488839  0  3.513809  0  0  -0.429627  -0.453749  0  3.514262  0
N  N58  1  0.71753944  0.15354671  0.67509852  1  0  0.023041  0  3.582386  0  0  0.109111  0  3.815021  0  0  0.096396  0  3.840521  0  0  -0.13388  0.117835  0  3.797785  0
N  N59  1  0.28592059  0.84709391  0.18295596  1  0  0.022286  0  3.582923  0  0  0.107823  0  3.815259  0  0  0.095189  0  3.840272  0  0  -0.134071  0.116374  0  3.798554  0
N  N60  1  0.84611492  0.28249986  0.32343471  1  0  0.022799  0  3.580974  0  0  0.110244  0  3.810728  0  0  0.097241  0  3.83659  0  0  -0.134489  0.118756  0  3.793186  0
N  N61  1  0.15256785  0.71276782  0.81571010  1  0  0.019745  0  3.583573  0  0  0.109936  0  3.810031  0  0  0.096738  0  3.836537  0  0  -0.134365  0.11894  0  3.792189  0
N  N62  1  0.28264846  0.84607381  0.32337783  1  0  0.022739  0  3.581348  0  0  0.109758  0  3.811459  0  0  0.096762  0  3.837302  0  0  -0.134439  0.118347  0  3.793954  0
N  N63  1  0.71231888  0.15283517  0.81558938  1  0  0.019289  0  3.585493  0  0  0.111426  0  3.810387  0  0  0.098351  0  3.836852  0  0  -0.134287  0.120031  0  3.792457  0
N  N64  1  0.15328723  0.71779096  0.67519108  1  0  0.023357  0  3.582714  0  0  0.10932  0  3.814655  0  0  0.096612  0  3.840082  0  0  -0.133595  0.120759  0  3.79746  0
N  N65  1  0.84724698  0.28563456  0.18302155  1  0  0.022048  0  3.582966  0  0  0.107513  0  3.815697  0  0  0.094849  0  3.840754  0  0  -0.13497  0.115619  0  3.799044  0
N  N66  1  0.58494833  0.01248307  0.65062850  1  0  -0.271959  0  2.899969  0  0  -0.261158  0  3.178747  0  0  -0.270846  0  3.193552  0  0  -0.216395  -0.254631  0  3.168722  0
N  N67  1  0.41996191  0.98797821  0.15662467  1  0  -0.268585  0  2.892355  0  0  -0.258477  0  3.171147  0  0  -0.268524  0  3.185645  0  0  -0.214942  -0.251587  0  3.161484  0
N  N68  1  0.98759137  0.41496256  0.34766621  1  0  -0.275358  0  2.901839  0  0  -0.263893  0  3.179878  0  0  -0.273922  0  3.194763  0  0  -0.216908  -0.256766  0  3.169661  0
N  N69  1  0.01027951  0.57869887  0.84090482  1  0  -0.278614  0  2.899882  0  0  -0.267029  0  3.175278  0  0  -0.277178  0  3.191017  0  0  -0.21773  -0.259554  0  3.164132  0
N  N70  1  0.41506002  0.98757177  0.34764409  1  0  -0.275325  0  2.901884  0  0  -0.263744  0  3.180086  0  0  -0.273776  0  3.194973  0  0  -0.216784  -0.256612  0  3.169842  0
N  N71  1  0.57818794  0.01054717  0.84072971  1  0  -0.278355  0  2.901548  0  0  -0.267045  0  3.176184  0  0  -0.277293  0  3.191947  0  0  -0.21763  -0.259538  0  3.165082  0
N  N72  1  0.01231949  0.58511103  0.65071436  1  0  -0.27204  0  2.900326  0  0  -0.261314  0  3.179195  0  0  -0.270997  0  3.193987  0  0  -0.216462  -0.256406  0  3.169939  0
N  N73  1  0.98811085  0.41970523  0.15670662  1  0  -0.269331  0  2.892746  0  0  -0.259188  0  3.171685  0  0  -0.269211  0  3.186178  0  0  -0.215099  -0.252014  0  3.161923  0
N  N74  1  0.83108053  0.04718241  0.57616181  1  0  -0.283763  0  3.331626  0  0  -0.239165  0  3.625228  0  0  -0.26341  0  3.640226  0  0  -0.346227  -0.223414  0  3.614008  0
N  N75  1  0.17552187  0.95667310  0.08424793  1  0  -0.283422  0  3.325844  0  0  -0.237802  0  3.627103  0  0  -0.266409  0  3.640802  0  0  -0.342873  -0.219161  0  3.617299  0
N  N76  1  0.95269640  0.16900183  0.42230586  1  0  -0.283245  0  3.33033  0  0  -0.238988  0  3.623951  0  0  -0.262947  0  3.638561  0  0  -0.345139  -0.223591  0  3.613029  0
N  N77  1  0.05343439  0.81404193  0.91974534  1  0  -0.306847  0  3.175384  0  0  -0.260246  0  3.461766  0  0  -0.286418  0  3.477909  0  0  -0.307648  -0.242281  0  3.449869  0
N  N78  1  0.16910196  0.95267497  0.42230399  1  0  -0.28308  0  3.330231  0  0  -0.238583  0  3.623647  0  0  -0.262531  0  3.638241  0  0  -0.345135  -0.223227  0  3.612753  0
N  N79  1  0.81338133  0.05337598  0.91950696  1  0  -0.306802  0  3.170647  0  0  -0.260339  0  3.456866  0  0  -0.286414  0  3.473027  0  0  -0.306249  -0.242407  0  3.444941  0
N  N80  1  0.04719196  0.83116360  0.57619589  1  0  -0.283446  0  3.330625  0  0  -0.239011  0  3.624255  0  0  -0.263409  0  3.639397  0  0  -0.346076  -0.222957  0  3.613468  0
N  N81  1  0.95711186  0.17508231  0.08435484  1  0  -0.284425  0  3.325692  0  0  -0.23867  0  3.626696  0  0  -0.267048  0  3.640224  0  0  -0.342538  -0.220149  0  3.61682  0
