# generated using pymatgen
data_CdH4C3SBrN3
_symmetry_space_group_name_H-M   'P 1'
_cell_length_a   7.01807631
_cell_length_b   9.93224775
_cell_length_c   11.62444220
_cell_angle_alpha   115.55540167
_cell_angle_beta   89.99896343
_cell_angle_gamma   90.00021131
_symmetry_Int_Tables_number   1
_chemical_formula_structural   CdH4C3SBrN3
_chemical_formula_sum   'Cd4 H16 C12 S4 Br4 N12'
_cell_volume   731.01359192
_cell_formula_units_Z   4
loop_
 _symmetry_equiv_pos_site_id
 _symmetry_equiv_pos_as_xyz
  1  'x, y, z'
loop_
 _atom_site_type_symbol
 _atom_site_label
 _atom_site_symmetry_multiplicity
 _atom_site_fract_x
 _atom_site_fract_y
 _atom_site_fract_z
 _atom_site_occupancy
 _atom_site_hle17_bader_spin_density
 _atom_site_hle17_ddec_charge
 _atom_site_hle17_ddec_spin_density
 _atom_site_hle17_ddec_sum_bond_order
 _atom_site_hle17_magmom
 _atom_site_hse06_10hf_bader_spin_density
 _atom_site_hse06_10hf_ddec_charge
 _atom_site_hse06_10hf_ddec_spin_density
 _atom_site_hse06_10hf_ddec_sum_bond_order
 _atom_site_hse06_10hf_magmom
 _atom_site_hse06_bader_spin_density
 _atom_site_hse06_ddec_charge
 _atom_site_hse06_ddec_spin_density
 _atom_site_hse06_ddec_sum_bond_order
 _atom_site_hse06_magmom
 _atom_site_pbe_bader_spin_density
 _atom_site_pbe_cm5_charge
 _atom_site_pbe_ddec_charge
 _atom_site_pbe_ddec_spin_density
 _atom_site_pbe_ddec_sum_bond_order
 _atom_site_pbe_magmom
Cd  Cd0  1  0.24469595  0.03460362  0.62092584  1  0  0.868587  0  1.970728  0  0  0.687695  0  2.442811  0  0  0.734863  0  2.406304  0  0  0.606429  0.653715  0  2.468374  0
Cd  Cd1  1  0.74468966  0.46538932  0.37907656  1  0  0.868614  0  1.970747  0  0  0.687721  0  2.442844  0  0  0.73489  0  2.406333  0  0  0.606443  0.653743  0  2.468409  0
Cd  Cd2  1  0.75530792  0.96538570  0.37907202  1  0  0.868583  0  1.970809  0  0  0.687686  0  2.442907  0  0  0.734854  0  2.406399  0  0  0.6064  0.653704  0  2.468475  0
Cd  Cd3  1  0.25530423  0.53460780  0.62092429  1  0  0.868565  0  1.970851  0  0  0.687703  0  2.44292  0  0  0.734873  0  2.406406  0  0  0.606436  0.653726  0  2.468483  0
H  H4  1  0.51400315  0.29195660  0.87108980  1  0  0.112285  0  0.9342  0  0  0.118784  0  1.0017  0  0  0.122015  0  0.997472  0  0  0.132008  0.115997  0  1.005361  0
H  H5  1  0.01400674  0.20805079  0.12891289  1  0  0.112375  0  0.934178  0  0  0.118878  0  1.001656  0  0  0.122123  0  0.997412  0  0  0.13203  0.116089  0  1.005315  0
H  H6  1  0.48601069  0.70804173  0.12890807  1  0  0.112326  0  0.9342  0  0  0.118833  0  1.001676  0  0  0.122066  0  0.997443  0  0  0.132  0.116046  0  1.005336  0
H  H7  1  0.98601280  0.79195419  0.87108926  1  0  0.112332  0  0.93409  0  0  0.118831  0  1.001584  0  0  0.12207  0  0.997345  0  0  0.131986  0.116042  0  1.005245  0
H  H8  1  0.02060394  0.42178538  0.83191768  1  0  0.101649  0  0.986118  0  0  0.115444  0  1.061986  0  0  0.116912  0  1.061551  0  0  0.091493  0.114197  0  1.062613  0
H  H9  1  0.52061185  0.07821533  0.16808066  1  0  0.101611  0  0.986102  0  0  0.11544  0  1.06192  0  0  0.116893  0  1.061494  0  0  0.091477  0.114198  0  1.062539  0
H  H10  1  0.97938995  0.57822743  0.16808661  1  0  0.101632  0  0.986079  0  0  0.115458  0  1.061946  0  0  0.116913  0  1.061517  0  0  0.091482  0.114219  0  1.062572  0
H  H11  1  0.47938632  0.92177619  0.83191891  1  0  0.101629  0  0.986105  0  0  0.115445  0  1.061963  0  0  0.116902  0  1.061529  0  0  0.091479  0.1142  0  1.062585  0
H  H12  1  0.89277266  0.39204421  0.95263493  1  0  0.106957  0  0.963457  0  0  0.126045  0  1.028417  0  0  0.126861  0  1.02838  0  0  0.095904  0.125419  0  1.028591  0
H  H13  1  0.39277816  0.10795839  0.04736355  1  0  0.10694  0  0.963457  0  0  0.126014  0  1.028435  0  0  0.126828  0  1.028399  0  0  0.095872  0.125387  0  1.028609  0
H  H14  1  0.10721411  0.60796318  0.04736125  1  0  0.106887  0  0.963465  0  0  0.12596  0  1.02847  0  0  0.126776  0  1.028432  0  0  0.095853  0.125334  0  1.028646  0
H  H15  1  0.60721574  0.89203642  0.95263985  1  0  0.106859  0  0.96345  0  0  0.125928  0  1.028461  0  0  0.126744  0  1.028422  0  0  0.095847  0.125302  0  1.028637  0
H  H16  1  0.80275917  0.52165310  0.89618077  1  0  0.107397  0  0.933956  0  0  0.123612  0  1.002873  0  0  0.124778  0  1.002082  0  0  0.097291  0.122764  0  1.003395  0
H  H17  1  0.30275647  0.97834909  0.10382093  1  0  0.107393  0  0.93399  0  0  0.123585  0  1.002933  0  0  0.124751  0  1.002141  0  0  0.097274  0.122733  0  1.003458  0
H  H18  1  0.19722902  0.47835090  0.10381583  1  0  0.107414  0  0.934032  0  0  0.12363  0  1.00294  0  0  0.124791  0  1.002156  0  0  0.0973  0.122794  0  1.003449  0
H  H19  1  0.69723172  0.02165019  0.89618418  1  0  0.107384  0  0.934036  0  0  0.123593  0  1.00295  0  0  0.124754  0  1.002166  0  0  0.097289  0.122757  0  1.003457  0
C  C20  1  0.82950586  0.21044167  0.64753655  1  0  0.303865  0  3.805814  0  0  0.267826  0  4.08479  0  0  0.286828  0  4.098298  0  0  0.205095  0.254856  0  4.075357  0
C  C21  1  0.32950885  0.28956448  0.35246485  1  0  0.303931  0  3.805929  0  0  0.267919  0  4.084883  0  0  0.286924  0  4.098379  0  0  0.205091  0.25495  0  4.075445  0
C  C22  1  0.17049943  0.78956219  0.35246517  1  0  0.303774  0  3.805946  0  0  0.267803  0  4.084816  0  0  0.286808  0  4.098318  0  0  0.20506  0.254836  0  4.075381  0
C  C23  1  0.67049501  0.71044164  0.64753687  1  0  0.303895  0  3.805989  0  0  0.267828  0  4.084995  0  0  0.286832  0  4.098498  0  0  0.205105  0.25486  0  4.07556  0
C  C24  1  0.59697437  0.24683387  0.78382831  1  0  0.177769  0  3.639483  0  0  0.109896  0  3.91242  0  0  0.125376  0  3.922351  0  0  0.159192  0.099966  0  3.905385  0
C  C25  1  0.09698413  0.25317100  0.21617165  1  0  0.177525  0  3.639314  0  0  0.109655  0  3.912223  0  0  0.125121  0  3.922147  0  0  0.159044  0.099728  0  3.905183  0
C  C26  1  0.40302664  0.75316455  0.21616615  1  0  0.177723  0  3.63935  0  0  0.109828  0  3.912273  0  0  0.125308  0  3.922214  0  0  0.159175  0.099901  0  3.905236  0
C  C27  1  0.90301831  0.74682949  0.78382963  1  0  0.177618  0  3.639275  0  0  0.109765  0  3.912191  0  0  0.125235  0  3.922127  0  0  0.159137  0.099839  0  3.905153  0
C  C28  1  0.87928880  0.41596620  0.86951627  1  0  -0.165624  0  3.634202  0  0  -0.267731  0  3.878161  0  0  -0.264602  0  3.886828  0  0  -0.139653  -0.269768  0  3.872624  0
C  C29  1  0.37929023  0.08403637  0.13048494  1  0  -0.165553  0  3.634291  0  0  -0.267655  0  3.878286  0  0  -0.264507  0  3.886965  0  0  -0.139605  -0.269693  0  3.872752  0
C  C30  1  0.12070936  0.58404000  0.13048205  1  0  -0.165574  0  3.63428  0  0  -0.267713  0  3.878279  0  0  -0.264566  0  3.886958  0  0  -0.139609  -0.269782  0  3.872754  0
C  C31  1  0.62070936  0.91596181  0.86951890  1  0  -0.1655  0  3.63415  0  0  -0.267615  0  3.878153  0  0  -0.264468  0  3.886832  0  0  -0.139595  -0.269675  0  3.872635  0
S  S32  1  0.03354392  0.22107495  0.57077089  1  0  -0.453127  0  2.151434  0  0  -0.412452  0  2.521973  0  0  -0.43318  0  2.513395  0  0  -0.202839  -0.39704  0  2.527614  0
S  S33  1  0.53353366  0.27892559  0.42923240  1  0  -0.453137  0  2.151487  0  0  -0.412458  0  2.522005  0  0  -0.433191  0  2.513429  0  0  -0.202831  -0.397044  0  2.527643  0
S  S34  1  0.96645852  0.77892890  0.42923168  1  0  -0.453104  0  2.151487  0  0  -0.412452  0  2.522008  0  0  -0.43318  0  2.513424  0  0  -0.202832  -0.397036  0  2.527647  0
S  S35  1  0.46645881  0.72107929  0.57077400  1  0  -0.453154  0  2.151527  0  0  -0.412454  0  2.522041  0  0  -0.433201  0  2.513493  0  0  -0.202844  -0.397038  0  2.527679  0
Br  Br36  1  0.12096790  0.07666546  0.84442498  1  0  -0.547654  0  0.895361  0  0  -0.483889  0  1.17469  0  0  -0.503257  0  1.155134  0  0  -0.295642  -0.469894  0  1.188529  0
Br  Br37  1  0.62095531  0.42330220  0.15557250  1  0  -0.547658  0  0.895282  0  0  -0.483915  0  1.174656  0  0  -0.503283  0  1.155098  0  0  -0.295648  -0.469921  0  1.188507  0
Br  Br38  1  0.87905021  0.92329912  0.15557113  1  0  -0.547651  0  0.895356  0  0  -0.48389  0  1.174719  0  0  -0.503259  0  1.155162  0  0  -0.295647  -0.469896  0  1.188567  0
Br  Br39  1  0.37903858  0.57670173  0.84442666  1  0  -0.547666  0  0.895344  0  0  -0.48391  0  1.174707  0  0  -0.503278  0  1.155153  0  0  -0.295651  -0.469915  0  1.188553  0
N  N40  1  0.54434733  0.13684795  0.67473717  1  0  -0.236081  0  3.207919  0  0  -0.175159  0  3.498176  0  0  -0.190963  0  3.51647  0  0  -0.251982  -0.164256  0  3.485522  0
N  N41  1  0.04436723  0.36316602  0.32526772  1  0  -0.236008  0  3.207711  0  0  -0.175084  0  3.497979  0  0  -0.190881  0  3.516271  0  0  -0.251903  -0.16418  0  3.485321  0
N  N42  1  0.45564798  0.86315261  0.32526156  1  0  -0.236178  0  3.207894  0  0  -0.17523  0  3.498138  0  0  -0.191043  0  3.516439  0  0  -0.252017  -0.164322  0  3.485482  0
N  N43  1  0.95563664  0.63683568  0.67473059  1  0  -0.235972  0  3.20773  0  0  -0.175082  0  3.498015  0  0  -0.190878  0  3.5163  0  0  -0.251924  -0.164179  0  3.48536  0
N  N44  1  0.68933843  0.11375786  0.58930900  1  0  -0.302558  0  3.177554  0  0  -0.236057  0  3.453223  0  0  -0.254639  0  3.471746  0  0  -0.264488  -0.223306  0  3.440415  0
N  N45  1  0.18934875  0.38624321  0.41069282  1  0  -0.302535  0  3.177684  0  0  -0.236084  0  3.453395  0  0  -0.254672  0  3.471911  0  0  -0.26457  -0.223335  0  3.440586  0
N  N46  1  0.31065973  0.88624154  0.41069100  1  0  -0.302373  0  3.177715  0  0  -0.235903  0  3.453349  0  0  -0.254482  0  3.471873  0  0  -0.264432  -0.223154  0  3.440539  0
N  N47  1  0.81065369  0.61375967  0.58930336  1  0  -0.30261  0  3.177711  0  0  -0.236102  0  3.453396  0  0  -0.254686  0  3.471913  0  0  -0.264562  -0.223353  0  3.440589  0
N  N48  1  0.77330222  0.29571843  0.77132638  1  0  -0.073471  0  3.525274  0  0  0.025976  0  3.746084  0  0  0.009001  0  3.768294  0  0  -0.232794  0.037341  0  3.730831  0
N  N49  1  0.27331560  0.20428460  0.22867356  1  0  -0.07347  0  3.525221  0  0  0.025997  0  3.745971  0  0  0.00902  0  3.768178  0  0  -0.232665  0.037363  0  3.730714  0
N  N50  1  0.22669025  0.70428561  0.22866852  1  0  -0.073451  0  3.525173  0  0  0.025998  0  3.745962  0  0  0.009021  0  3.768165  0  0  -0.232749  0.037362  0  3.730713  0
N  N51  1  0.72668969  0.79571476  0.77132815  1  0  -0.07341  0  3.525165  0  0  0.026059  0  3.745948  0  0  0.009084  0  3.768152  0  0  -0.232712  0.037423  0  3.730695  0
