# generated using pymatgen
data_CdH18C23(NO2)2
_symmetry_space_group_name_H-M   'P 1'
_cell_length_a   8.69853326
_cell_length_b   10.91379788
_cell_length_c   22.82824324
_cell_angle_alpha   89.19333584
_cell_angle_beta   89.99956451
_cell_angle_gamma   89.99907254
_symmetry_Int_Tables_number   1
_chemical_formula_structural   CdH18C23(NO2)2
_chemical_formula_sum   'Cd4 H72 C92 N8 O16'
_cell_volume   2166.96243448
_cell_formula_units_Z   4
loop_
 _symmetry_equiv_pos_site_id
 _symmetry_equiv_pos_as_xyz
  1  'x, y, z'
loop_
 _atom_site_type_symbol
 _atom_site_label
 _atom_site_symmetry_multiplicity
 _atom_site_fract_x
 _atom_site_fract_y
 _atom_site_fract_z
 _atom_site_occupancy
 _atom_site_pbe_bader_charge
 _atom_site_pbe_bader_spin_density
 _atom_site_pbe_cm5_charge
 _atom_site_pbe_ddec_charge
 _atom_site_pbe_ddec_spin_density
 _atom_site_pbe_ddec_sum_bond_order
 _atom_site_pbe_magmom
Cd  Cd0  1  0.57687561  0.64754708  0.01958609  1  1.262573  0  0.770615  0.875075  0  2.176689  0
Cd  Cd1  1  0.07686374  0.85245478  0.48040891  1  1.262618  0  0.770599  0.875039  0  2.176695  0
Cd  Cd2  1  0.42314717  0.35244601  0.98041511  1  1.262627  0  0.770606  0.875031  0  2.176659  0
Cd  Cd3  1  0.92310157  0.14756303  0.51959257  1  1.262458  0  0.770518  0.87497  0  2.176708  0
H  H4  1  0.69171656  0.76930259  0.14641449  1  0.113418  0  0.117508  0.089174  0  1.013791  0
H  H5  1  0.19169829  0.73068286  0.35358355  1  0.113227  0  0.117546  0.089173  0  1.013793  0
H  H6  1  0.30827289  0.23070230  0.85358816  1  0.113277  0  0.117469  0.089155  0  1.013793  0
H  H7  1  0.80828196  0.26931962  0.64641469  1  0.11343  0  0.117523  0.089188  0  1.013677  0
H  H8  1  0.64792621  0.95776710  0.20524458  1  0.087529  0  0.107987  0.110851  0  1.014135  0
H  H9  1  0.14790376  0.54221440  0.29475266  1  0.088378  0  0.107996  0.110879  0  1.014036  0
H  H10  1  0.35206554  0.04224185  0.79475285  1  0.087825  0  0.107967  0.110827  0  1.014139  0
H  H11  1  0.85208109  0.45779185  0.70524431  1  0.087193  0  0.107958  0.110845  0  1.014094  0
H  H12  1  0.45728222  0.11572608  0.16811986  1  0.097506  0  0.118123  0.124517  0  0.963845  0
H  H13  1  0.95726210  0.38426338  0.33188258  1  0.097713  0  0.118207  0.124603  0  0.963687  0
H  H14  1  0.54269689  0.88427634  0.83187925  1  0.098038  0  0.118148  0.124537  0  0.963864  0
H  H15  1  0.04273195  0.61573642  0.66811475  1  0.097694  0  0.118209  0.124573  0  0.963855  0
H  H16  1  0.27137056  0.18174194  0.09095357  1  0.193209  0  0.108617  0.133445  0  1.036767  0
H  H17  1  0.77134555  0.31824425  0.40906377  1  0.193385  0  0.108637  0.133433  0  1.036529  0
H  H18  1  0.72860624  0.81823364  0.90903693  1  0.193061  0  0.108541  0.133475  0  1.036581  0
H  H19  1  0.22863815  0.68175410  0.59094056  1  0.193204  0  0.108655  0.133449  0  1.036645  0
H  H20  1  0.13026757  0.13713816  0.99975187  1  0.106174  0  0.108201  0.127002  0  1.010271  0
H  H21  1  0.63026863  0.36287771  0.50026495  1  0.106256  0  0.108191  0.127034  0  1.010083  0
H  H22  1  0.86973453  0.86283382  0.00023771  1  0.106399  0  0.108203  0.126971  0  1.010313  0
H  H23  1  0.36974266  0.63713607  0.49974131  1  0.106306  0  0.108174  0.12703  0  1.010031  0
H  H24  1  0.07400898  0.99317576  0.91764187  1  0.109143  0  0.105546  0.103572  0  1.032308  0
H  H25  1  0.57400627  0.50684967  0.58237280  1  0.108293  0  0.105585  0.103635  0  1.032402  0
H  H26  1  0.92602530  0.00679429  0.08234901  1  0.108331  0  0.105649  0.103641  0  1.032721  0
H  H27  1  0.42599238  0.49315905  0.41762770  1  0.10831  0  0.105553  0.10358  0  1.032367  0
H  H28  1  0.13093833  0.79481709  0.86760741  1  0.070016  0  0.113764  0.118303  0  0.978418  0
H  H29  1  0.63093749  0.70522028  0.63239716  1  0.069916  0  0.113772  0.118369  0  0.978338  0
H  H30  1  0.86910745  0.20515591  0.13238087  1  0.070479  0  0.113831  0.118298  0  0.978503  0
H  H31  1  0.36904046  0.29479750  0.36760475  1  0.069745  0  0.113771  0.118342  0  0.978478  0
H  H32  1  0.33676363  0.65751352  0.90906415  1  0.190664  0  0.12081  0.105042  0  1.016628  0
H  H33  1  0.83676320  0.84250908  0.59093009  1  0.190247  0  0.120797  0.105039  0  1.016588  0
H  H34  1  0.66327180  0.34248120  0.09093970  1  0.190927  0  0.120654  0.104919  0  1.016035  0
H  H35  1  0.16320900  0.15750554  0.40906521  1  0.19061  0  0.120729  0.104958  0  1.016613  0
H  H36  1  0.83521974  0.13290195  0.89551930  1  0.057185  0  0.089226  0.080827  0  1.084507  0
H  H37  1  0.33521086  0.36710162  0.60447934  1  0.057382  0  0.089268  0.080853  0  1.084575  0
H  H38  1  0.16476971  0.86709809  0.10447497  1  0.057513  0  0.089269  0.080825  0  1.084375  0
H  H39  1  0.66479124  0.63290026  0.39552679  1  0.057226  0  0.089262  0.08082  0  1.084513  0
H  H40  1  0.90713337  0.97549975  0.82315033  1  0.05414  0  0.097414  0.093932  0  1.003215  0
H  H41  1  0.40713214  0.52449763  0.67685004  1  0.054156  0  0.097441  0.093959  0  1.003228  0
H  H42  1  0.09286413  0.02449855  0.17684260  1  0.054436  0  0.097473  0.093956  0  1.003307  0
H  H43  1  0.59288260  0.47551245  0.32315661  1  0.054513  0  0.097345  0.093735  0  1.003374  0
H  H44  1  0.06384638  0.03446029  0.73573570  1  0.082548  0  0.099769  0.100469  0  1.019098  0
H  H45  1  0.56385594  0.46553774  0.76426225  1  0.082579  0  0.099775  0.100478  0  1.019001  0
H  H46  1  0.93615572  0.96554344  0.26425817  1  0.082673  0  0.099758  0.100456  0  1.019012  0
H  H47  1  0.43615305  0.53445572  0.23574598  1  0.082681  0  0.09974  0.100465  0  1.01903  0
H  H48  1  0.15348128  0.25141331  0.72381484  1  0.062355  0  0.094473  0.089881  0  1.038892  0
H  H49  1  0.65347540  0.24857138  0.77617441  1  0.062376  0  0.094535  0.089997  0  1.038824  0
H  H50  1  0.84654496  0.74858351  0.27618553  1  0.062527  0  0.094486  0.089964  0  1.038843  0
H  H51  1  0.34653934  0.75141737  0.22382369  1  0.062507  0  0.094462  0.089961  0  1.038812  0
H  H52  1  0.07534281  0.40772004  0.79458590  1  0.048532  0  0.100289  0.101848  0  1.009163  0
H  H53  1  0.57530016  0.09226922  0.70540491  1  0.048131  0  0.100317  0.101818  0  1.009369  0
H  H54  1  0.92470527  0.59227180  0.20541968  1  0.048304  0  0.100368  0.101915  0  1.009149  0
H  H55  1  0.42468929  0.90772783  0.29459240  1  0.048222  0  0.100318  0.101862  0  1.009253  0
H  H56  1  0.85297899  0.32969119  0.93285281  1  0.055381  0  0.097577  0.077706  0  0.973687  0
H  H57  1  0.35294035  0.17032025  0.56714762  1  0.055678  0  0.09754  0.077564  0  0.97379  0
H  H58  1  0.14704610  0.67030026  0.06714575  1  0.055775  0  0.097557  0.077597  0  0.97376  0
H  H59  1  0.64702840  0.82971073  0.43286145  1  0.055726  0  0.097539  0.077713  0  0.97366  0
H  H60  1  0.76533056  0.47695238  0.82243484  1  0.02849  0  0.090867  0.101747  0  1.007874  0
H  H61  1  0.26529256  0.02306270  0.67755708  1  0.028561  0  0.09081  0.101709  0  1.007896  0
H  H62  1  0.23469683  0.52305312  0.17755993  1  0.028275  0  0.09085  0.101768  0  1.007759  0
H  H63  1  0.73468769  0.97694880  0.32244301  1  0.028279  0  0.090836  0.101727  0  1.007877  0
H  H64  1  0.65199268  0.36226645  0.85828042  1  0.057596  0  0.096463  0.112718  0  1.006276  0
H  H65  1  0.15194509  0.13773498  0.64171778  1  0.057386  0  0.096483  0.112751  0  1.006193  0
H  H66  1  0.34802550  0.63772348  0.14171418  1  0.057516  0  0.096448  0.112727  0  1.006335  0
H  H67  1  0.84801907  0.86227151  0.35828795  1  0.057559  0  0.09643  0.11273  0  1.006337  0
H  H68  1  0.95563897  0.53571023  0.94058696  1  0.089504  0  0.10464  0.138145  0  0.98457  0
H  H69  1  0.45560840  0.96430382  0.55941479  1  0.089397  0  0.10464  0.138151  0  0.984643  0
H  H70  1  0.04437117  0.46428855  0.05941168  1  0.089397  0  0.10467  0.138224  0  0.98455  0
H  H71  1  0.54434771  0.03572338  0.44058372  1  0.089803  0  0.104631  0.138158  0  0.984558  0
H  H72  1  0.02700848  0.53473919  0.86788233  1  0.020979  0  0.091846  0.103741  0  0.996131  0
H  H73  1  0.52695414  0.96526269  0.63212475  1  0.021294  0  0.091876  0.103788  0  0.996191  0
H  H74  1  0.97301316  0.46525674  0.13211759  1  0.020985  0  0.091892  0.103871  0  0.995973  0
H  H75  1  0.47299393  0.03474115  0.36787964  1  0.021064  0  0.091862  0.103768  0  0.996119  0
C  C76  1  0.60997924  0.83919917  0.13188169  1  0.529028  0  0.061743  0.11617  0  3.928861  0
C  C77  1  0.10997012  0.66078737  0.36811614  1  0.529446  0  0.061638  0.116143  0  3.928666  0
C  C78  1  0.39002285  0.16080118  0.86812048  1  0.529289  0  0.061817  0.116195  0  3.92882  0
C  C79  1  0.89003657  0.33921039  0.63188381  1  0.529168  0  0.061778  0.116222  0  3.928202  0
C  C80  1  0.58426545  0.94532909  0.16471960  1  -0.063728  0  -0.080348  -0.125886  0  3.988824  0
C  C81  1  0.08424765  0.55465674  0.33528003  1  -0.06434  0  -0.080475  -0.125986  0  3.988733  0
C  C82  1  0.41573204  0.05466990  0.83527641  1  -0.064414  0  -0.080318  -0.125861  0  3.98882  0
C  C83  1  0.91574639  0.44535405  0.66471742  1  -0.063163  0  -0.080475  -0.126026  0  3.988533  0
C  C84  1  0.47967329  0.03135032  0.14446713  1  -0.010837  0  -0.058022  -0.069865  0  3.905726  0
C  C85  1  0.97966363  0.46863769  0.35553831  1  -0.011139  0  -0.058012  -0.069963  0  3.905792  0
C  C86  1  0.52031386  0.96864961  0.85552845  1  -0.010797  0  -0.058107  -0.069916  0  3.906063  0
C  C87  1  0.02033847  0.53137001  0.64446349  1  -0.010821  0  -0.057996  -0.069886  0  3.905843  0
C  C88  1  0.40018019  0.01092513  0.09149412  1  -0.032223  0  -0.000419  0.048082  0  4.003919  0
C  C89  1  0.90017361  0.48906101  0.40851369  1  -0.032662  0  -0.000371  0.048317  0  4.004072  0
C  C90  1  0.59980811  0.98906853  0.90849964  1  -0.032516  0  -0.000328  0.048287  0  4.004333  0
C  C91  1  0.09982734  0.51094643  0.59149162  1  -0.032941  0  -0.00042  0.048381  0  4.004062  0
C  C92  1  0.43314496  0.90080537  0.06132693  1  0.5183  0  0.113859  0.10948  0  3.991253  0
C  C93  1  0.93312946  0.59918926  0.43867718  1  0.518475  0  0.113787  0.109269  0  3.991282  0
C  C94  1  0.56687553  0.09918334  0.93867160  1  0.51894  0  0.1138  0.109343  0  3.991411  0
C  C95  1  0.06686918  0.40082181  0.56132861  1  0.518281  0  0.113918  0.109382  0  3.991311  0
C  C96  1  0.28915397  0.09544875  0.06829809  1  -0.01909  0  -0.085297  -0.134255  0  3.962092  0
C  C97  1  0.78913710  0.40454928  0.43171715  1  -0.018727  0  -0.085341  -0.134352  0  3.962074  0
C  C98  1  0.71082743  0.90453847  0.93169604  1  -0.018785  0  -0.085237  -0.134311  0  3.961874  0
C  C99  1  0.21086385  0.59545263  0.56828854  1  -0.018819  0  -0.085359  -0.134345  0  3.962139  0
C  C100  1  0.21166927  0.07055126  0.01774404  1  -0.109125  0  -0.082989  -0.120957  0  3.972673  0
C  C101  1  0.71167153  0.42946229  0.48227331  1  -0.110236  0  -0.082877  -0.120981  0  3.972452  0
C  C102  1  0.78832247  0.92943320  0.98225006  1  -0.109322  0  -0.083061  -0.121079  0  3.972534  0
C  C103  1  0.28833056  0.57054430  0.51773112  1  -0.109541  0  -0.082928  -0.121133  0  3.972256  0
C  C104  1  0.23919391  0.95951175  0.98680832  1  -0.020406  0  -0.003429  0.040353  0  4.005243  0
C  C105  1  0.73917818  0.54050906  0.51320238  1  -0.018572  0  -0.00346  0.040365  0  4.005021  0
C  C106  1  0.76083232  0.04047418  0.01319062  1  -0.020489  0  -0.003384  0.040321  0  4.00521  0
C  C107  1  0.26082391  0.45949678  0.48679984  1  -0.01939  0  -0.003342  0.040609  0  4.004837  0
C  C108  1  0.35174355  0.87497922  0.00755071  1  0.45407  0  0.115822  0.113418  0  3.988329  0
C  C109  1  0.85173791  0.62502258  0.49245762  1  0.453513  0  0.115887  0.113583  0  3.988228  0
C  C110  1  0.64828154  0.12500495  0.99244733  1  0.453448  0  0.115911  0.113551  0  3.988161  0
C  C111  1  0.14826189  0.37498466  0.50755031  1  0.453084  0  0.115821  0.113525  0  3.988054  0
C  C112  1  0.15945258  0.92945005  0.93508759  1  -0.009949  0  -0.060665  -0.067388  0  3.928711  0
C  C113  1  0.65945240  0.57056324  0.56492717  1  -0.008669  0  -0.060715  -0.067387  0  3.928811  0
C  C114  1  0.84058860  0.07051675  0.06490983  1  -0.009873  0  -0.060774  -0.067306  0  3.929682  0
C  C115  1  0.34056349  0.42943124  0.43507975  1  -0.008714  0  -0.060713  -0.067461  0  3.92878  0
C  C116  1  0.19166169  0.82083928  0.90728416  1  0.00137  0  -0.077339  -0.118947  0  3.960516  0
C  C117  1  0.69165185  0.67919465  0.59271891  1  0.00059  0  -0.07758  -0.119474  0  3.960737  0
C  C118  1  0.80837375  0.17912487  0.09271192  1  0.000809  0  -0.077554  -0.11911  0  3.96115  0
C  C119  1  0.30832840  0.32082336  0.40727994  1  0.00085  0  -0.077515  -0.119204  0  3.960803  0
C  C120  1  0.30712537  0.74359854  0.93006748  1  0.471016  0  0.065566  0.122497  0  3.897828  0
C  C121  1  0.80711446  0.75641863  0.56993117  1  0.472117  0  0.065708  0.122826  0  3.89786  0
C  C122  1  0.69291121  0.25637830  0.06993048  1  0.47132  0  0.065726  0.122481  0  3.897304  0
C  C123  1  0.19286004  0.24359589  0.43006545  1  0.47113  0  0.065658  0.122676  0  3.897903  0
C  C124  1  0.94492228  0.28207569  0.84961510  1  0.016718  0  -0.008672  0.084107  0  3.934208  0
C  C125  1  0.44488209  0.21792449  0.65038498  1  0.016249  0  -0.008586  0.084071  0  3.934132  0
C  C126  1  0.05509361  0.71792130  0.15038308  1  0.016759  0  -0.008697  0.083944  0  3.934323  0
C  C127  1  0.55510046  0.78208638  0.34962343  1  0.016438  0  -0.008702  0.084019  0  3.93387  0
C  C128  1  0.90247489  0.15902963  0.85710312  1  -0.101939  0  -0.102093  -0.150197  0  4.00077  0
C  C129  1  0.40244619  0.34097676  0.64289493  1  -0.101139  0  -0.102206  -0.150258  0  4.001181  0
C  C130  1  0.09753985  0.84096634  0.14289636  1  -0.102044  0  -0.102125  -0.150063  0  4.000753  0
C  C131  1  0.59754556  0.65903064  0.35711081  1  -0.101261  0  -0.102197  -0.15027  0  4.000693  0
C  C132  1  0.94388089  0.07041494  0.81654164  1  -0.060024  0  -0.098741  -0.085873  0  4.044311  0
C  C133  1  0.44387370  0.42958365  0.68345535  1  -0.060918  0  -0.098824  -0.08603  0  4.044576  0
C  C134  1  0.05610281  0.92958621  0.18345001  1  -0.060504  0  -0.098849  -0.086085  0  4.044569  0
C  C135  1  0.55612150  0.57042094  0.31655124  1  -0.061351  0  -0.098663  -0.08563  0  4.044461  0
C  C136  1  0.03268952  0.10323008  0.76781631  1  -0.091368  0  -0.100744  -0.104107  0  4.024037  0
C  C137  1  0.53267929  0.39676093  0.73218295  1  -0.090931  0  -0.100627  -0.10392  0  4.023742  0
C  C138  1  0.96730797  0.89676626  0.23217835  1  -0.09123  0  -0.100638  -0.103926  0  4.023838  0
C  C139  1  0.46731820  0.60322904  0.26782305  1  -0.091089  0  -0.100668  -0.104078  0  4.023811  0
C  C140  1  0.08072866  0.22479313  0.76078488  1  -0.082032  0  -0.09478  -0.082422  0  4.026307  0
C  C141  1  0.58070118  0.27518660  0.73920975  1  -0.081799  0  -0.094954  -0.082672  0  4.026527  0
C  C142  1  0.91930792  0.77519803  0.23921762  1  -0.081752  0  -0.094926  -0.082548  0  4.02652  0
C  C143  1  0.41929287  0.72479994  0.26079314  1  -0.08179  0  -0.094795  -0.08242  0  4.02634  0
C  C144  1  0.03648311  0.31342993  0.80105730  1  -0.046272  0  -0.09461  -0.1404  0  3.970398  0
C  C145  1  0.53645480  0.18655394  0.69893881  1  -0.046477  0  -0.094594  -0.140271  0  3.970306  0
C  C146  1  0.96353278  0.68656706  0.19894088  1  -0.046826  0  -0.094578  -0.140423  0  3.970336  0
C  C147  1  0.46353465  0.81343911  0.30106284  1  -0.04664  0  -0.094619  -0.140476  0  3.970313  0
C  C148  1  0.88445092  0.37698335  0.89170960  1  0.04171  0  -0.080214  0.029655  0  3.860578  0
C  C149  1  0.38442271  0.12302303  0.60829157  1  0.041167  0  -0.080152  0.02986  0  3.860424  0
C  C150  1  0.11555693  0.62301814  0.10828951  1  0.040443  0  -0.080193  0.029872  0  3.860585  0
C  C151  1  0.61555869  0.87698892  0.39171466  1  0.041156  0  -0.08008  0.029844  0  3.860444  0
C  C152  1  0.73755114  0.43493162  0.86514083  1  -0.047898  0  -0.164969  -0.329182  0  3.888542  0
C  C153  1  0.23750284  0.06507195  0.63485060  1  -0.048301  0  -0.165046  -0.329256  0  3.888533  0
C  C154  1  0.26246705  0.56506482  0.13485252  1  -0.04799  0  -0.164993  -0.329297  0  3.888502  0
C  C155  1  0.76245901  0.93493321  0.36514855  1  -0.048079  0  -0.164989  -0.32927  0  3.888581  0
C  C156  1  0.66588480  0.53217403  0.90368133  1  1.574908  0  0.202057  0.645375  0  4.147065  0
C  C157  1  0.16585798  0.96783232  0.59631536  1  1.574525  0  0.202025  0.645204  0  4.147447  0
C  C158  1  0.33412879  0.46781641  0.09631853  1  1.575038  0  0.202122  0.6455  0  4.147008  0
C  C159  1  0.83411538  0.03218668  0.40368262  1  1.575066  0  0.20221  0.645565  0  4.146982  0
C  C160  1  0.00286436  0.47621833  0.90632303  1  -0.047498  0  -0.166356  -0.326881  0  3.892933  0
C  C161  1  0.50283003  0.02378369  0.59368124  1  -0.047397  0  -0.166303  -0.32689  0  3.892973  0
C  C162  1  0.99714923  0.52377849  0.09367734  1  -0.046522  0  -0.166479  -0.327279  0  3.892873  0
C  C163  1  0.49713183  0.97622215  0.40632098  1  -0.047157  0  -0.166356  -0.32703  0  3.892835  0
C  C164  1  0.15258415  0.42277679  0.92914633  1  1.535049  0  0.188529  0.617767  0  4.171636  0
C  C165  1  0.65254118  0.07723950  0.57086123  1  1.535862  0  0.188282  0.617795  0  4.171322  0
C  C166  1  0.84744094  0.57722657  0.07085236  1  1.535911  0  0.188484  0.617958  0  4.17158  0
C  C167  1  0.34742183  0.92277157  0.42914455  1  1.535202  0  0.188497  0.618018  0  4.171564  0
N  N168  1  0.38438129  0.77069822  0.97858495  1  -1.233794  0  -0.322521  -0.268801  0  3.52477  0
N  N169  1  0.88437654  0.72930017  0.52141812  1  -1.234526  0  -0.322498  -0.268848  0  3.524956  0
N  N170  1  0.61564954  0.22929059  0.02141226  1  -1.233224  0  -0.3224  -0.268583  0  3.524372  0
N  N171  1  0.11561176  0.27070560  0.47858498  1  -1.2335  0  -0.322396  -0.268776  0  3.524703  0
N  N172  1  0.53656875  0.81802451  0.08189102  1  -1.239099  0  -0.3223  -0.278698  0  3.514998  0
N  N173  1  0.03657195  0.68195526  0.41811218  1  -1.239481  0  -0.322198  -0.278593  0  3.51464  0
N  N174  1  0.46344484  0.18196868  0.91810888  1  -1.23955  0  -0.322389  -0.278789  0  3.514988  0
N  N175  1  0.96343589  0.31804153  0.58188863  1  -1.238985  0  -0.322321  -0.278769  0  3.514924  0
O  O176  1  0.65639379  0.64079248  0.88637678  1  -1.191581  0  -0.337035  -0.574138  0  2.102024  0
O  O177  1  0.15638602  0.85921741  0.61362305  1  -1.191348  0  -0.336981  -0.574026  0  2.102052  0
O  O178  1  0.34360716  0.35920634  0.11362142  1  -1.191715  0  -0.337061  -0.574173  0  2.102172  0
O  O179  1  0.84358618  0.14079660  0.38638014  1  -1.1916  0  -0.337078  -0.574181  0  2.102272  0
O  O180  1  0.62045630  0.49352564  0.95511160  1  -1.177035  0  -0.351693  -0.586383  0  2.355154  0
O  O181  1  0.12041912  0.00647901  0.54488583  1  -1.176725  0  -0.351654  -0.586283  0  2.355216  0
O  O182  1  0.37956534  0.50646751  0.04488873  1  -1.176902  0  -0.351677  -0.5864  0  2.355029  0
O  O183  1  0.87954619  0.99352975  0.45511423  1  -1.177025  0  -0.351737  -0.586475  0  2.35491  0
O  O184  1  0.27876279  0.45733543  0.90555830  1  -1.176281  0  -0.346535  -0.577868  0  2.149932  0
O  O185  1  0.77871772  0.04267923  0.59446076  1  -1.1768  0  -0.346479  -0.577987  0  2.149643  0
O  O186  1  0.72127034  0.54265667  0.09444377  1  -1.176838  0  -0.346583  -0.577989  0  2.149762  0
O  O187  1  0.22124183  0.95733195  0.40555555  1  -1.176277  0  -0.346667  -0.578137  0  2.149954  0
O  O188  1  0.14761467  0.34580323  0.97186428  1  -1.168867  0  -0.34152  -0.572605  0  2.145776  0
O  O189  1  0.64760324  0.15419080  0.52813560  1  -1.168747  0  -0.341385  -0.572511  0  2.145846  0
O  O190  1  0.85239087  0.65419817  0.02813614  1  -1.16893  0  -0.341392  -0.572546  0  2.146123  0
O  O191  1  0.35239195  0.84581250  0.47186397  1  -1.168909  0  -0.341386  -0.572537  0  2.14591  0
