# generated using pymatgen
data_Ag2H4C7SO6
_symmetry_space_group_name_H-M   'P 1'
_cell_length_a   8.22469353
_cell_length_b   10.47234509
_cell_length_c   11.52761667
_cell_angle_alpha   104.74972277
_cell_angle_beta   89.99345591
_cell_angle_gamma   113.14377853
_symmetry_Int_Tables_number   1
_chemical_formula_structural   Ag2H4C7SO6
_chemical_formula_sum   'Ag8 H16 C28 S4 O24'
_cell_volume   877.30705185
_cell_formula_units_Z   4
loop_
 _symmetry_equiv_pos_site_id
 _symmetry_equiv_pos_as_xyz
  1  'x, y, z'
loop_
 _atom_site_type_symbol
 _atom_site_label
 _atom_site_symmetry_multiplicity
 _atom_site_fract_x
 _atom_site_fract_y
 _atom_site_fract_z
 _atom_site_occupancy
 _atom_site_hle17_bader_spin_density
 _atom_site_hle17_ddec_charge
 _atom_site_hle17_ddec_spin_density
 _atom_site_hle17_ddec_sum_bond_order
 _atom_site_hle17_magmom
 _atom_site_hse06_10hf_bader_spin_density
 _atom_site_hse06_10hf_ddec_charge
 _atom_site_hse06_10hf_ddec_spin_density
 _atom_site_hse06_10hf_ddec_sum_bond_order
 _atom_site_hse06_10hf_magmom
 _atom_site_hse06_bader_spin_density
 _atom_site_hse06_ddec_charge
 _atom_site_hse06_ddec_spin_density
 _atom_site_hse06_ddec_sum_bond_order
 _atom_site_hse06_magmom
 _atom_site_pbe_bader_spin_density
 _atom_site_pbe_cm5_charge
 _atom_site_pbe_ddec_charge
 _atom_site_pbe_ddec_spin_density
 _atom_site_pbe_ddec_sum_bond_order
 _atom_site_pbe_magmom
Ag  Ag0  1  0.37606610  0.03447522  0.90909804  1  0  0.688815  0  1.258244  0  0  0.578224  0  1.689982  0  0  0.611531  0  1.629766  0  0  0.44722  0.555491  0  1.731136  0
Ag  Ag1  1  0.34175598  0.96539754  0.59090467  1  0  0.690147  0  1.25644  0  0  0.580219  0  1.687708  0  0  0.613076  0  1.627776  0  0  0.447539  0.555898  0  1.730522  0
Ag  Ag2  1  0.62393163  0.96552355  0.09090040  1  0  0.688828  0  1.258226  0  0  0.578239  0  1.689981  0  0  0.611546  0  1.629763  0  0  0.447237  0.555508  0  1.731137  0
Ag  Ag3  1  0.65824472  0.03460232  0.40909488  1  0  0.690149  0  1.256489  0  0  0.580221  0  1.687749  0  0  0.613075  0  1.627816  0  0  0.44754  0.555901  0  1.730563  0
Ag  Ag4  1  0.00860581  0.08083698  0.12027797  1  0  0.623535  0  1.391024  0  0  0.51391  0  1.855244  0  0  0.549002  0  1.789307  0  0  0.428263  0.488636  0  1.901329  0
Ag  Ag5  1  0.92754705  0.91907568  0.37978521  1  0  0.623987  0  1.388755  0  0  0.513957  0  1.852876  0  0  0.549179  0  1.786833  0  0  0.42805  0.488524  0  1.89992  0
Ag  Ag6  1  0.99139057  0.91916395  0.87972271  1  0  0.623492  0  1.391043  0  0  0.513885  0  1.855273  0  0  0.548976  0  1.789335  0  0  0.428247  0.488611  0  1.901356  0
Ag  Ag7  1  0.07245366  0.08092417  0.62021521  1  0  0.623985  0  1.388727  0  0  0.513957  0  1.852843  0  0  0.549179  0  1.786799  0  0  0.428038  0.488518  0  1.899892  0
H  H8  1  0.76116110  0.24037456  0.94336845  1  0  0.403984  0  0.883614  0  0  0.376368  0  0.953507  0  0  0.387114  0  0.942607  0  0  0.30856  0.3688  0  0.961073  0
H  H9  1  0.52072899  0.75963344  0.55658016  1  0  0.404131  0  0.883274  0  0  0.376646  0  0.953223  0  0  0.38739  0  0.942294  0  0  0.308677  0.36907  0  0.960804  0
H  H10  1  0.23883960  0.75962529  0.05663110  1  0  0.403987  0  0.883622  0  0  0.376382  0  0.953499  0  0  0.387129  0  0.9426  0  0  0.308561  0.368814  0  0.961068  0
H  H11  1  0.47927171  0.24036641  0.44341939  1  0  0.404169  0  0.883204  0  0  0.37668  0  0.95316  0  0  0.387425  0  0.942229  0  0  0.30868  0.369103  0  0.960747  0
H  H12  1  0.83143294  0.48511080  0.95747039  1  0  0.126113  0  0.954623  0  0  0.133299  0  1.021033  0  0  0.136942  0  1.019253  0  0  0.109017  0.130675  0  1.022299  0
H  H13  1  0.34626957  0.51496019  0.54248754  1  0  0.125897  0  0.955258  0  0  0.134213  0  1.020292  0  0  0.137856  0  1.018507  0  0  0.109345  0.131582  0  1.021741  0
H  H14  1  0.16856600  0.51488797  0.04252891  1  0  0.126109  0  0.954631  0  0  0.133287  0  1.021044  0  0  0.136931  0  1.019263  0  0  0.109022  0.130664  0  1.02231  0
H  H15  1  0.65373288  0.48504074  0.45751227  1  0  0.125889  0  0.95528  0  0  0.134216  0  1.0203  0  0  0.137848  0  1.018541  0  0  0.10935  0.131584  0  1.02175  0
H  H16  1  0.60357767  0.70241276  0.23481500  1  0  0.108729  0  0.986973  0  0  0.114011  0  1.059294  0  0  0.117848  0  1.056068  0  0  0.097325  0.111361  0  1.0617  0
H  H17  1  0.90118871  0.29734963  0.26502272  1  0  0.108782  0  0.988158  0  0  0.114493  0  1.059858  0  0  0.118346  0  1.056554  0  0  0.097463  0.111694  0  1.06232  0
H  H18  1  0.39642371  0.29758601  0.76518517  1  0  0.108813  0  0.986912  0  0  0.114068  0  1.059257  0  0  0.117902  0  1.056026  0  0  0.097348  0.111417  0  1.061662  0
H  H19  1  0.09881199  0.70265022  0.73497857  1  0  0.108752  0  0.988177  0  0  0.114462  0  1.059883  0  0  0.118316  0  1.05658  0  0  0.097454  0.111662  0  1.062345  0
H  H20  1  0.45535037  0.47525221  0.29580787  1  0  0.097384  0  0.982079  0  0  0.106315  0  1.046113  0  0  0.108334  0  1.046063  0  0  0.103113  0.104817  0  1.046204  0
H  H21  1  0.97999471  0.52452261  0.20406245  1  0  0.097727  0  0.982074  0  0  0.106409  0  1.046407  0  0  0.108491  0  1.046304  0  0  0.10331  0.104823  0  1.046654  0
H  H22  1  0.54464979  0.52474656  0.70419230  1  0  0.09739  0  0.982163  0  0  0.106324  0  1.046187  0  0  0.108342  0  1.046139  0  0  0.103137  0.104826  0  1.046278  0
H  H23  1  0.02000532  0.47547832  0.79593909  1  0  0.097729  0  0.982089  0  0  0.106421  0  1.046411  0  0  0.108494  0  1.046319  0  0  0.103309  0.104835  0  1.046657  0
C  C24  1  0.56507226  0.35565963  0.16453666  1  0  -0.241234  0  3.710451  0  0  -0.218101  0  3.958921  0  0  -0.229235  0  3.979932  0  0  -0.032246  -0.211303  0  3.945623  0
C  C25  1  0.20925069  0.64430131  0.33544455  1  0  -0.241264  0  3.708844  0  0  -0.218767  0  3.958219  0  0  -0.229894  0  3.979311  0  0  -0.031909  -0.211098  0  3.943764  0
C  C26  1  0.43492898  0.64434130  0.83546401  1  0  -0.241223  0  3.710466  0  0  -0.218072  0  3.958914  0  0  -0.229211  0  3.979935  0  0  -0.032232  -0.211274  0  3.945613  0
C  C27  1  0.79074933  0.35569962  0.66455612  1  0  -0.241315  0  3.70895  0  0  -0.218807  0  3.958343  0  0  -0.229936  0  3.97943  0  0  -0.031907  -0.211136  0  3.943883  0
C  C28  1  0.66897915  0.35525083  0.06722668  1  0  0.340439  0  3.798251  0  0  0.326772  0  4.053428  0  0  0.339146  0  4.0699  0  0  0.086709  0.318392  0  4.042085  0
C  C29  1  0.31359199  0.64473867  0.43274572  1  0  0.340213  0  3.797382  0  0  0.326633  0  4.052891  0  0  0.339  0  4.069373  0  0  0.086656  0.318092  0  4.041667  0
C  C30  1  0.33102507  0.64475118  0.93277424  1  0  0.34044  0  3.798264  0  0  0.326758  0  4.053436  0  0  0.339134  0  4.069908  0  0  0.086695  0.318379  0  4.042089  0
C  C31  1  0.68640750  0.35526118  0.56725470  1  0  0.340221  0  3.797334  0  0  0.3266  0  4.052899  0  0  0.33897  0  4.069378  0  0  0.086628  0.318058  0  4.041674  0
C  C32  1  0.75015403  0.48243848  0.03216382  1  0  -0.196909  0  3.664909  0  0  -0.224448  0  3.91445  0  0  -0.229373  0  3.932416  0  0  -0.097224  -0.220693  0  3.901724  0
C  C33  1  0.26763360  0.51757407  0.46779427  1  0  -0.195491  0  3.665658  0  0  -0.224124  0  3.9148  0  0  -0.22903  0  3.932791  0  0  -0.097652  -0.221097  0  3.902968  0
C  C34  1  0.24984789  0.51756137  0.96783660  1  0  -0.196897  0  3.664847  0  0  -0.224404  0  3.914386  0  0  -0.22933  0  3.932352  0  0  -0.0972  -0.220636  0  3.901672  0
C  C35  1  0.73236696  0.48242795  0.53220665  1  0  -0.195473  0  3.665634  0  0  -0.224096  0  3.9148  0  0  -0.229004  0  3.932789  0  0  -0.097636  -0.221069  0  3.902968  0
C  C36  1  0.73001531  0.60793714  0.09466167  1  0  -0.012152  0  3.735976  0  0  0.007795  0  3.973595  0  0  0.004677  0  3.993441  0  0  -0.009338  0.010241  0  3.95968  0
C  C37  1  0.12202754  0.39198791  0.40524992  1  0  -0.013246  0  3.738253  0  0  0.00717  0  3.975284  0  0  0.003986  0  3.995297  0  0  -0.009096  0.009633  0  3.961565  0
C  C38  1  0.26998485  0.39206164  0.90533763  1  0  -0.012061  0  3.735902  0  0  0.007835  0  3.973558  0  0  0.004717  0  3.993404  0  0  -0.009338  0.010233  0  3.959702  0
C  C39  1  0.87797316  0.60801194  0.59475050  1  0  -0.01331  0  3.73836  0  0  0.007086  0  3.975425  0  0  0.003903  0  3.995441  0  0  -0.009133  0.009546  0  3.961706  0
C  C40  1  0.62332342  0.60595724  0.18933843  1  0  -0.086945  0  3.707835  0  0  -0.115011  0  3.965724  0  0  -0.118134  0  3.985094  0  0  -0.096523  -0.113475  0  3.953059  0
C  C41  1  0.01735992  0.39386640  0.31051575  1  0  -0.087784  0  3.710098  0  0  -0.116557  0  3.967977  0  0  -0.119613  0  3.98734  0  0  -0.096969  -0.114502  0  3.954904  0
C  C42  1  0.37667566  0.39403937  0.81066123  1  0  -0.087069  0  3.707689  0  0  -0.115105  0  3.965607  0  0  -0.118221  0  3.984969  0  0  -0.096564  -0.113553  0  3.95295  0
C  C43  1  0.98264132  0.60613454  0.68948579  1  0  -0.087665  0  3.710113  0  0  -0.11645  0  3.968027  0  0  -0.119494  0  3.987356  0  0  -0.096927  -0.114398  0  3.954958  0
C  C44  1  0.54026142  0.47945461  0.22326422  1  0  -0.017643  0  3.743012  0  0  -0.044195  0  3.995718  0  0  -0.040558  0  4.01402  0  0  -0.081232  -0.046363  0  3.983792  0
C  C45  1  0.06069452  0.52037008  0.27662132  1  0  -0.017341  0  3.741733  0  0  -0.043656  0  3.9949  0  0  -0.040059  0  4.01312  0  0  -0.081175  -0.045833  0  3.982527  0
C  C46  1  0.45973806  0.52054525  0.77673533  1  0  -0.01769  0  3.742954  0  0  -0.044243  0  3.995633  0  0  -0.040606  0  4.013938  0  0  -0.081271  -0.046407  0  3.983691  0
C  C47  1  0.93930497  0.47962977  0.72337997  1  0  -0.017367  0  3.7418  0  0  -0.043688  0  3.994966  0  0  -0.040082  0  4.013195  0  0  -0.081171  -0.045865  0  3.982588  0
C  C48  1  0.82454128  0.74586307  0.06083426  1  0  0.659909  0  3.856075  0  0  0.604378  0  4.140057  0  0  0.640859  0  4.134992  0  0  0.211382  0.579126  0  4.142947  0
C  C49  1  0.07879196  0.25411246  0.43910863  1  0  0.660773  0  3.854448  0  0  0.605425  0  4.138005  0  0  0.641917  0  4.132896  0  0  0.211111  0.580368  0  4.140448  0
C  C50  1  0.17545645  0.25413570  0.93916504  1  0  0.659868  0  3.856085  0  0  0.604331  0  4.140076  0  0  0.640811  0  4.135013  0  0  0.211377  0.579094  0  4.142963  0
C  C51  1  0.92120996  0.74588740  0.56089179  1  0  0.660791  0  3.854385  0  0  0.605456  0  4.137928  0  0  0.641949  0  4.132816  0  0  0.211125  0.5804  0  4.140371  0
S  S52  1  0.46510638  0.19906159  0.21485699  1  0  1.342401  0  5.52053  0  0  1.2386  0  6.019966  0  0  1.288588  0  5.9992  0  0  0.517835  1.203725  0  6.033621  0
S  S53  1  0.26597293  0.80090526  0.28513862  1  0  1.342683  0  5.520834  0  0  1.238239  0  6.020864  0  0  1.288263  0  6.000191  0  0  0.517783  1.203667  0  6.034091  0
S  S54  1  0.53489311  0.80093826  0.78514256  1  0  1.342384  0  5.52061  0  0  1.238553  0  6.020065  0  0  1.288543  0  5.999302  0  0  0.517792  1.203676  0  6.033716  0
S  S55  1  0.73402709  0.19909567  0.71486205  1  0  1.342762  0  5.520742  0  0  1.238312  0  6.020771  0  0  1.288341  0  6.000094  0  0  0.517771  1.203743  0  6.033988  0
O  O56  1  0.38404964  0.24089351  0.32353194  1  0  -0.636131  0  2.018038  0  0  -0.572316  0  2.2611  0  0  -0.595776  0  2.249964  0  0  -0.313326  -0.555929  0  2.268699  0
O  O57  1  0.14303664  0.75913408  0.17651037  1  0  -0.63762  0  2.018225  0  0  -0.572578  0  2.260818  0  0  -0.595861  0  2.249342  0  0  -0.31404  -0.556331  0  2.268377  0
O  O58  1  0.61594985  0.75910634  0.67646848  1  0  -0.636112  0  2.018046  0  0  -0.572296  0  2.261118  0  0  -0.595756  0  2.249981  0  0  -0.313323  -0.555911  0  2.268715  0
O  O59  1  0.85696163  0.24086578  0.82348918  1  0  -0.637597  0  2.018236  0  0  -0.572497  0  2.26079  0  0  -0.595779  0  2.24931  0  0  -0.314017  -0.556251  0  2.268339  0
O  O60  1  0.33032941  0.08620757  0.11676958  1  0  -0.697477  0  2.120832  0  0  -0.630125  0  2.430114  0  0  -0.656645  0  2.408391  0  0  -0.344486  -0.61115  0  2.444272  0
O  O61  1  0.24419225  0.91374018  0.38328872  1  0  -0.697317  0  2.120415  0  0  -0.629793  0  2.429871  0  0  -0.656258  0  2.408055  0  0  -0.343869  -0.611  0  2.444549  0
O  O62  1  0.66966940  0.91379336  0.88323023  1  0  -0.69745  0  2.120796  0  0  -0.630113  0  2.430121  0  0  -0.656633  0  2.408398  0  0  -0.344476  -0.611137  0  2.444278  0
O  O63  1  0.75580710  0.08626184  0.61670873  1  0  -0.697388  0  2.120435  0  0  -0.629861  0  2.42988  0  0  -0.656327  0  2.408061  0  0  -0.343845  -0.611071  0  2.444564  0
O  O64  1  0.60941080  0.15582775  0.24177667  1  0  -0.69258  0  2.127623  0  0  -0.617354  0  2.422323  0  0  -0.644621  0  2.404139  0  0  -0.342016  -0.597053  0  2.433728  0
O  O65  1  0.45353058  0.84411327  0.25816386  1  0  -0.691126  0  2.125569  0  0  -0.616101  0  2.420683  0  0  -0.643592  0  2.402672  0  0  -0.342201  -0.59694  0  2.433043  0
O  O66  1  0.39058761  0.84416994  0.75822238  1  0  -0.692586  0  2.127696  0  0  -0.617322  0  2.422373  0  0  -0.644595  0  2.404194  0  0  -0.341981  -0.597022  0  2.433775  0
O  O67  1  0.54646823  0.15588766  0.74183681  1  0  -0.691124  0  2.125466  0  0  -0.61613  0  2.420605  0  0  -0.643631  0  2.402596  0  0  -0.342216  -0.596969  0  2.432962  0
O  O68  1  0.68555385  0.23040652  0.01236362  1  0  -0.560797  0  2.245774  0  0  -0.498772  0  2.491552  0  0  -0.520955  0  2.479073  0  0  -0.353593  -0.48315  0  2.498906  0
O  O69  1  0.45508795  0.76961522  0.48761415  1  0  -0.561715  0  2.244903  0  0  -0.499498  0  2.489944  0  0  -0.521576  0  2.477451  0  0  -0.354002  -0.483673  0  2.498086  0
O  O70  1  0.31444685  0.76959333  0.98763680  1  0  -0.560799  0  2.245771  0  0  -0.49877  0  2.491539  0  0  -0.520954  0  2.479059  0  0  -0.353596  -0.483146  0  2.498888  0
O  O71  1  0.54491330  0.23038571  0.51238652  1  0  -0.561737  0  2.244829  0  0  -0.499503  0  2.489877  0  0  -0.52158  0  2.477381  0  0  -0.353998  -0.483678  0  2.498018  0
O  O72  1  0.83678316  0.86312717  0.13990366  1  0  -0.676051  0  2.201169  0  0  -0.581758  0  2.493411  0  0  -0.618104  0  2.478909  0  0  -0.33265  -0.556394  0  2.50295  0
O  O73  1  0.97378794  0.13676166  0.36008364  1  0  -0.677012  0  2.199759  0  0  -0.582774  0  2.491687  0  0  -0.619126  0  2.477295  0  0  -0.332617  -0.557202  0  2.501264  0
O  O74  1  0.16321578  0.13687160  0.86009564  1  0  -0.676045  0  2.201166  0  0  -0.581749  0  2.493406  0  0  -0.618095  0  2.478902  0  0  -0.332663  -0.556384  0  2.502937  0
O  O75  1  0.02621154  0.86323819  0.63991678  1  0  -0.677017  0  2.199735  0  0  -0.58279  0  2.49168  0  0  -0.619143  0  2.477287  0  0  -0.332626  -0.557218  0  2.501256  0
O  O76  1  0.88379421  0.73779098  0.95937779  1  0  -0.573355  0  2.081791  0  0  -0.497967  0  2.346206  0  0  -0.531052  0  2.338268  0  0  -0.306604  -0.475501  0  2.351195  0
O  O77  1  0.14620607  0.26231754  0.54058446  1  0  -0.574453  0  2.080532  0  0  -0.499199  0  2.344883  0  0  -0.532098  0  2.336744  0  0  -0.306591  -0.475944  0  2.349805  0
O  O78  1  0.11620528  0.26220888  0.04062176  1  0  -0.573369  0  2.081852  0  0  -0.497941  0  2.346242  0  0  -0.531025  0  2.338304  0  0  -0.306583  -0.475474  0  2.351225  0
O  O79  1  0.85379517  0.73768339  0.45941621  1  0  -0.574467  0  2.080469  0  0  -0.499216  0  2.344817  0  0  -0.532114  0  2.336676  0  0  -0.306609  -0.47596  0  2.34974  0
