# generated using pymatgen
data_CoH6C6(N2O)4
_symmetry_space_group_name_H-M   'P 1'
_cell_length_a   8.29827614
_cell_length_b   8.29831836
_cell_length_c   9.52742770
_cell_angle_alpha   65.57287665
_cell_angle_beta   65.57283296
_cell_angle_gamma   60.29306099
_symmetry_Int_Tables_number   1
_chemical_formula_structural   CoH6C6(N2O)4
_chemical_formula_sum   'Co2 H12 C12 N16 O8'
_cell_volume   500.46426921
_cell_formula_units_Z   2
loop_
 _symmetry_equiv_pos_site_id
 _symmetry_equiv_pos_as_xyz
  1  'x, y, z'
loop_
 _atom_site_type_symbol
 _atom_site_label
 _atom_site_symmetry_multiplicity
 _atom_site_fract_x
 _atom_site_fract_y
 _atom_site_fract_z
 _atom_site_occupancy
 _atom_site_hle17_ddec_charge
 _atom_site_hle17_ddec_spin_density
 _atom_site_hle17_ddec_sum_bond_order
 _atom_site_hle17_magmom
 _atom_site_hse06_10hf_ddec_charge
 _atom_site_hse06_10hf_ddec_spin_density
 _atom_site_hse06_10hf_ddec_sum_bond_order
 _atom_site_hse06_10hf_magmom
 _atom_site_hse06_ddec_charge
 _atom_site_hse06_ddec_spin_density
 _atom_site_hse06_ddec_sum_bond_order
 _atom_site_hse06_magmom
 _atom_site_pbe_cm5_charge
 _atom_site_pbe_ddec_charge
 _atom_site_pbe_ddec_spin_density
 _atom_site_pbe_ddec_sum_bond_order
 _atom_site_pbe_magmom
Co  Co0  1  0.53828813  0.46170549  0.75000164  1  1.017651  2.849108  2.025165  2.604  0.991728  2.844709  2.421155  2.662  1.065052  2.883159  2.351032  2.734  0.668537  0.926502  2.806312  2.480193  2.585
Co  Co1  1  0.46170584  0.53829299  0.24999977  1  1.017567  2.849121  2.0253  2.604  0.991596  2.844708  2.421266  2.662  1.064943  2.883161  2.35115  2.734  0.668513  0.926371  2.806307  2.480323  2.585
H  H2  1  0.51948391  0.12201816  0.65260683  1  0.129601  -2.7e-05  0.960255  0.0  0.129875  -0.000137  1.0367  0.0  0.133534  -0.000132  1.032357  0.0  0.14917  0.126678  -0.000167  1.040633  0.0
H  H3  1  0.87797942  0.48052034  0.84739138  1  0.129625  -2.5e-05  0.960225  0.0  0.129896  -0.000137  1.036657  0.0  0.133553  -0.000132  1.032317  0.0  0.149175  0.126696  -0.000167  1.040584  0.0
H  H4  1  0.48051572  0.87797601  0.34739725  1  0.129555  -2.7e-05  0.960187  0.0  0.129856  -0.000136  1.036605  0.0  0.133514  -0.000132  1.032266  0.0  0.149169  0.126661  -0.000167  1.040532  0.0
H  H5  1  0.12202289  0.51948388  0.15260075  1  0.129571  -2.4e-05  0.960217  0.0  0.129853  -0.000137  1.036677  0.0  0.133513  -0.000132  1.032336  0.0  0.149156  0.126657  -0.000167  1.040606  0.0
H  H6  1  0.32782536  0.91869085  0.70692368  1  0.132477  -9.7e-05  0.94658  0.0  0.13505  6.3e-05  1.023195  0.0  0.137413  -4.1e-05  1.021758  0.0  0.127374  0.133555  0.000192  1.023897  0.001
H  H7  1  0.08130597  0.67217903  0.79307623  1  0.132412  -9.9e-05  0.946563  0.0  0.134986  6.3e-05  1.023209  0.0  0.137347  -4.1e-05  1.021771  0.0  0.127345  0.133491  0.000192  1.023911  0.001
H  H8  1  0.67217182  0.08130619  0.29308024  1  0.13247  -9.4e-05  0.946685  0.0  0.135072  6.3e-05  1.023257  0.0  0.137435  -4.1e-05  1.021819  0.0  0.127383  0.133575  0.000192  1.023964  0.001
H  H9  1  0.91869124  0.32782807  0.20691984  1  0.132458  -9.8e-05  0.946601  0.0  0.13506  6.3e-05  1.023189  0.0  0.137423  -4.1e-05  1.02175  0.0  0.127381  0.133563  0.000192  1.023896  0.001
H  H10  1  0.09254900  0.98508915  0.83869588  1  0.133012  -0.000464  0.915896  0.0  0.14041  2.1e-05  0.985483  0.0  0.14314  1.3e-05  0.983266  0.0  0.12853  0.138149  -4e-05  0.987408  0.0
H  H11  1  0.01491085  0.90745445  0.66130198  1  0.133057  -0.000466  0.915973  0.0  0.140469  2.1e-05  0.985555  0.0  0.143198  1.3e-05  0.983336  0.0  0.128557  0.138208  -4e-05  0.987479  0.0
H  H12  1  0.90744707  0.01491077  0.16131055  1  0.133003  -0.000467  0.915915  0.0  0.140403  2.1e-05  0.985531  0.0  0.143132  1.3e-05  0.983314  0.0  0.128519  0.138143  -4e-05  0.987455  0.0
H  H13  1  0.98508712  0.09255408  0.33869119  1  0.13299  -0.000463  0.915927  0.0  0.140394  2.1e-05  0.98554  0.0  0.143124  1.3e-05  0.983323  0.0  0.128523  0.138134  -4e-05  0.987466  0.0
C  C14  1  0.40810637  0.16227879  0.75756028  1  0.170755  -0.014029  3.582305  -0.008  0.092416  -0.005002  3.852204  -0.002  0.106899  -0.004556  3.859824  -0.002  0.179892  0.082065  -0.006485  3.848889  -0.003
C  C15  1  0.83771774  0.59189963  0.74243757  1  0.170658  -0.014045  3.582385  -0.008  0.092344  -0.005  3.852291  -0.002  0.10683  -0.004551  3.85991  -0.002  0.179878  0.082003  -0.006481  3.848963  -0.003
C  C16  1  0.59190156  0.83771105  0.24243921  1  0.170728  -0.01402  3.582471  -0.008  0.092367  -0.004999  3.852384  -0.002  0.106849  -0.004555  3.86001  -0.002  0.179854  0.082023  -0.00648  3.849063  -0.003
C  C17  1  0.16228493  0.40810028  0.25756122  1  0.170724  -0.014046  3.58237  -0.008  0.092349  -0.004999  3.852286  -0.002  0.106832  -0.004552  3.859909  -0.002  0.179892  0.082004  -0.006482  3.848966  -0.003
C  C18  1  0.24554696  0.94018571  0.82645994  1  -0.192097  0.003967  3.602938  0.006  -0.263291  0.002792  3.845507  0.004  -0.265256  0.001825  3.851261  0.003  -0.048486  -0.26126  0.003999  3.841861  0.006
C  C19  1  0.05981449  0.75445818  0.67353736  1  -0.192061  0.003973  3.602853  0.006  -0.263317  0.002792  3.845548  0.004  -0.26527  0.001824  3.851288  0.003  -0.048526  -0.261289  0.003999  3.841906  0.006
C  C20  1  0.75445288  0.05981133  0.17354512  1  -0.192095  0.003966  3.602803  0.006  -0.263374  0.002792  3.845526  0.004  -0.265334  0.001824  3.851271  0.003  -0.048532  -0.261347  0.003999  3.841888  0.006
C  C21  1  0.94018516  0.24554604  0.32645677  1  -0.192012  0.003969  3.602743  0.006  -0.263308  0.002792  3.845465  0.004  -0.265267  0.001824  3.85121  0.003  -0.048495  -0.261279  0.003999  3.841828  0.006
C  C22  1  0.30819353  0.75040576  0.95416480  1  0.690185  -0.005495  3.841831  -0.003  0.645318  0.0039  4.157882  0.006  0.681983  0.002692  4.151898  0.005  0.218351  0.617728  0.003906  4.159862  0.005
C  C23  1  0.24959758  0.69180907  0.54583245  1  0.690171  -0.005504  3.841863  -0.003  0.645344  0.0039  4.1579  0.006  0.682004  0.002696  4.151919  0.005  0.218416  0.617755  0.003907  4.159884  0.005
C  C24  1  0.69180442  0.24959273  0.04583938  1  0.690246  -0.005495  3.841818  -0.003  0.645411  0.003898  4.157827  0.006  0.682076  0.002692  4.151841  0.005  0.218384  0.617821  0.003905  4.15981  0.005
C  C25  1  0.75040397  0.30819372  0.45416361  1  0.690129  -0.0055  3.841788  -0.003  0.645293  0.003898  4.157823  0.006  0.681959  0.002693  4.151839  0.005  0.218407  0.617704  0.003905  4.159808  0.005
N  N26  1  0.26926511  0.09351302  0.84149046  1  0.064521  0.0016  3.558677  0.003  0.181867  0.000629  3.743545  0.001  0.172064  0.000566  3.764064  0.001  -0.115899  0.187146  0.000733  3.731951  0.001
N  N27  1  0.90648622  0.73073653  0.65850794  1  0.064531  0.0016  3.558646  0.003  0.181854  0.00063  3.743579  0.001  0.172028  0.000563  3.76413  0.001  -0.115933  0.187133  0.000733  3.73198  0.001
N  N28  1  0.73073508  0.90647971  0.15851603  1  0.064544  0.001598  3.558661  0.003  0.181885  0.000628  3.743574  0.001  0.172074  0.000568  3.764107  0.001  -0.115881  0.187165  0.000733  3.73198  0.001
N  N29  1  0.09351532  0.26926625  0.34148603  1  0.064475  0.001598  3.558681  0.003  0.181869  0.00063  3.743547  0.001  0.172049  0.000565  3.764091  0.001  -0.115941  0.187148  0.000733  3.731954  0.001
N  N30  1  0.14910900  0.18497973  0.95776638  1  -0.092862  0.000708  2.861404  0.002  -0.100862  0.000729  3.142248  0.002  -0.09875  0.000547  3.150537  0.001  -0.065276  -0.103037  0.000832  3.137926  0.002
N  N31  1  0.81501851  0.85089219  0.54223243  1  -0.092844  0.000724  2.861367  0.002  -0.100823  0.00073  3.14221  0.002  -0.098708  0.000544  3.150497  0.001  -0.065256  -0.102999  0.000833  3.13789  0.002
N  N32  1  0.85089405  0.81501587  0.04223804  1  -0.092872  0.000717  2.861402  0.002  -0.100838  0.00073  3.142232  0.002  -0.098726  0.000548  3.150521  0.001  -0.065267  -0.103013  0.000832  3.137911  0.002
N  N33  1  0.18498095  0.14910916  0.45776282  1  -0.092867  0.00072  2.861424  0.002  -0.100865  0.000729  3.142266  0.002  -0.098751  0.000546  3.150552  0.001  -0.065274  -0.10304  0.000832  3.137947  0.002
N  N34  1  0.21417842  0.30608288  0.94421881  1  -0.055507  -0.008244  2.919132  -0.007  -0.053667  -0.00226  3.234666  -0.002  -0.051216  -0.001748  3.243367  -0.001  -0.073265  -0.05556  -0.003778  3.230177  -0.003
N  N35  1  0.69391623  0.78582234  0.55577980  1  -0.055553  -0.008276  2.919195  -0.007  -0.053718  -0.00226  3.234721  -0.002  -0.051268  -0.00174  3.24342  -0.001  -0.073275  -0.055611  -0.003774  3.230233  -0.003
N  N36  1  0.78582161  0.69391704  0.05578199  1  -0.055508  -0.008264  2.919141  -0.007  -0.053694  -0.002258  3.234676  -0.002  -0.051244  -0.001744  3.243377  -0.001  -0.073249  -0.055586  -0.003775  3.230187  -0.003
N  N37  1  0.30608267  0.21418044  0.44421722  1  -0.055523  -0.00826  2.919122  -0.007  -0.053695  -0.00226  3.23467  -0.002  -0.051244  -0.001743  3.243369  -0.001  -0.073268  -0.055588  -0.003776  3.230182  -0.003
N  N38  1  0.37566318  0.29550680  0.82005845  1  -0.256455  0.02553  3.184179  0.053  -0.224023  0.019829  3.499005  0.036  -0.241461  0.017353  3.504488  0.031  -0.217973  -0.212496  0.021128  3.499046  0.039
N  N39  1  0.70449236  0.62433931  0.67994068  1  -0.256367  0.025535  3.184124  0.053  -0.223918  0.019827  3.498928  0.036  -0.241352  0.017351  3.504408  0.031  -0.217936  -0.212391  0.021126  3.49896  0.039
N  N40  1  0.62433818  0.70449312  0.17994293  1  -0.256354  0.025531  3.184217  0.053  -0.223886  0.019828  3.499017  0.036  -0.241325  0.01735  3.504507  0.031  -0.217936  -0.212359  0.021126  3.499059  0.039
N  N41  1  0.29550465  0.37566491  0.32005651  1  -0.256342  0.025533  3.184139  0.053  -0.223888  0.019829  3.498956  0.036  -0.241325  0.017352  3.504443  0.031  -0.217936  -0.212363  0.021126  3.498999  0.039
O  O42  1  0.34148603  0.60066843  0.92256721  1  -0.635234  0.033552  2.155114  0.06  -0.606332  0.026301  2.447438  0.043  -0.64395  0.018543  2.437671  0.031  -0.311151  -0.573193  0.03653  2.45056  0.059
O  O43  1  0.39933332  0.65851349  0.57743184  1  -0.635235  0.033551  2.155157  0.06  -0.606365  0.026301  2.447504  0.043  -0.64398  0.018543  2.437737  0.031  -0.311186  -0.573233  0.036528  2.450645  0.059
O  O44  1  0.65850529  0.39933005  0.07743306  1  -0.635289  0.03355  2.155237  0.06  -0.606356  0.026301  2.447525  0.043  -0.643975  0.018543  2.437758  0.031  -0.311175  -0.573204  0.036529  2.450614  0.059
O  O45  1  0.60066712  0.34149219  0.42256988  1  -0.635215  0.033546  2.155221  0.06  -0.606318  0.026299  2.447546  0.043  -0.64394  0.018541  2.437786  0.031  -0.31118  -0.573157  0.036525  2.450612  0.059
O  O46  1  0.31256940  0.75824591  0.08206942  1  -0.597208  0.038459  2.060861  0.067  -0.572606  0.030781  2.333181  0.05  -0.606908  0.023355  2.323678  0.038  -0.305538  -0.543017  0.039994  2.337422  0.064
O  O47  1  0.24175642  0.68743393  0.41793014  1  -0.597161  0.038457  2.060924  0.067  -0.572565  0.030779  2.333225  0.05  -0.606865  0.023353  2.323724  0.038  -0.305504  -0.542975  0.039992  2.337469  0.064
O  O48  1  0.68744326  0.24174536  0.91792888  1  -0.597255  0.038456  2.060835  0.067  -0.572657  0.030779  2.333117  0.05  -0.606956  0.023354  2.323611  0.038  -0.305533  -0.543069  0.039994  2.337356  0.064
O  O49  1  0.75825040  0.31255880  0.58207500  1  -0.597197  0.038461  2.060814  0.067  -0.572598  0.030781  2.333113  0.05  -0.606897  0.023356  2.32361  0.038  -0.305533  -0.543009  0.039996  2.33735  0.064
