# generated using pymatgen
data_ErH5C6(NO3)2
_symmetry_space_group_name_H-M   'P 1'
_cell_length_a   5.96980055
_cell_length_b   9.57229716
_cell_length_c   14.79427948
_cell_angle_alpha   92.83770022
_cell_angle_beta   90.00017662
_cell_angle_gamma   90.00024971
_symmetry_Int_Tables_number   1
_chemical_formula_structural   ErH5C6(NO3)2
_chemical_formula_sum   'Er4 H20 C24 N8 O24'
_cell_volume   844.37806864
_cell_formula_units_Z   4
loop_
 _symmetry_equiv_pos_site_id
 _symmetry_equiv_pos_as_xyz
  1  'x, y, z'
loop_
 _atom_site_type_symbol
 _atom_site_label
 _atom_site_symmetry_multiplicity
 _atom_site_fract_x
 _atom_site_fract_y
 _atom_site_fract_z
 _atom_site_occupancy
 _atom_site_hle17_bader_spin_density
 _atom_site_hle17_ddec_charge
 _atom_site_hle17_ddec_spin_density
 _atom_site_hle17_ddec_sum_bond_order
 _atom_site_hle17_magmom
 _atom_site_hse06_10hf_bader_spin_density
 _atom_site_hse06_10hf_ddec_charge
 _atom_site_hse06_10hf_ddec_spin_density
 _atom_site_hse06_10hf_ddec_sum_bond_order
 _atom_site_hse06_10hf_magmom
 _atom_site_hse06_bader_spin_density
 _atom_site_hse06_ddec_charge
 _atom_site_hse06_ddec_spin_density
 _atom_site_hse06_ddec_sum_bond_order
 _atom_site_hse06_magmom
 _atom_site_pbe_bader_spin_density
 _atom_site_pbe_cm5_charge
 _atom_site_pbe_ddec_charge
 _atom_site_pbe_ddec_spin_density
 _atom_site_pbe_ddec_sum_bond_order
 _atom_site_pbe_magmom
Er  Er0  1  0.56990333  0.87200756  0.24836726  1  0  2.230022  0  1.727831  0  0  2.072514  0  2.218031  0  0  2.123573  0  2.172875  0  0  1.494309  2.033529  0  2.253349  0
Er  Er1  1  0.06989619  0.62799018  0.25163042  1  0  2.230046  0  1.727811  0  0  2.072497  0  2.218073  0  0  2.12346  0  2.173091  0  0  1.494323  2.033575  0  2.253278  0
Er  Er2  1  0.43009686  0.12798722  0.75163220  1  0  2.230023  0  1.727828  0  0  2.072521  0  2.217999  0  0  2.123599  0  2.172841  0  0  1.494353  2.0335  0  2.253363  0
Er  Er3  1  0.93009897  0.37200774  0.74836779  1  0  2.230003  0  1.727811  0  0  2.072492  0  2.218033  0  0  2.123483  0  2.172993  0  0  1.494344  2.033497  0  2.253332  0
H  H4  1  0.76630993  0.91507092  0.60972676  1  0  0.118522  0  0.908698  0  0  0.12195  0  0.973162  0  0  0.126672  0  0.968496  0  0  0.136441  0.118412  0  0.976812  0
H  H5  1  0.26630789  0.58492499  0.89026876  1  0  0.118507  0  0.908733  0  0  0.121958  0  0.973171  0  0  0.126678  0  0.968502  0  0  0.136432  0.118417  0  0.976825  0
H  H6  1  0.23369862  0.08493014  0.39027154  1  0  0.118525  0  0.908636  0  0  0.12197  0  0.973114  0  0  0.126685  0  0.968447  0  0  0.136442  0.118424  0  0.976773  0
H  H7  1  0.73369062  0.41507712  0.10972620  1  0  0.118518  0  0.908636  0  0  0.12196  0  0.973091  0  0  0.126662  0  0.968448  0  0  0.136441  0.118417  0  0.97675  0
H  H8  1  0.14604262  0.11199250  0.96660099  1  0  0.105219  0  0.925594  0  0  0.109166  0  0.992957  0  0  0.112856  0  0.989832  0  0  0.129946  0.106282  0  0.995779  0
H  H9  1  0.64604712  0.38800759  0.53339881  1  0  0.105204  0  0.925702  0  0  0.109143  0  0.993054  0  0  0.112829  0  0.989933  0  0  0.129931  0.106257  0  0.995876  0
H  H10  1  0.85395756  0.88801484  0.03340359  1  0  0.105261  0  0.925627  0  0  0.109173  0  0.992982  0  0  0.112864  0  0.989854  0  0  0.129941  0.106294  0  0.995799  0
H  H11  1  0.35395809  0.61198406  0.46660055  1  0  0.105223  0  0.925656  0  0  0.109083  0  0.993059  0  0  0.112773  0  0.989935  0  0  0.129931  0.106207  0  0.995872  0
H  H12  1  0.86226945  0.12567959  0.22003771  1  0  0.441192  0  0.854889  0  0  0.409528  0  0.918503  0  0  0.421529  0  0.900942  0  0  0.295028  0.401044  0  0.930896  0
H  H13  1  0.36227076  0.37432572  0.27996387  1  0  0.441192  0  0.854868  0  0  0.409521  0  0.918502  0  0  0.421526  0  0.900935  0  0  0.295032  0.401039  0  0.930892  0
H  H14  1  0.13772571  0.87431937  0.77995985  1  0  0.441204  0  0.854837  0  0  0.409486  0  0.918534  0  0  0.421493  0  0.900962  0  0  0.295021  0.401006  0  0.930921  0
H  H15  1  0.63772607  0.62567847  0.72003791  1  0  0.441158  0  0.854907  0  0  0.409468  0  0.918568  0  0  0.421469  0  0.901006  0  0  0.295013  0.400983  0  0.930962  0
H  H16  1  0.68001706  0.17325097  0.29596309  1  0  0.440909  0  0.844232  0  0  0.413211  0  0.901402  0  0  0.422659  0  0.887624  0  0  0.305741  0.406536  0  0.911132  0
H  H17  1  0.18001851  0.32675353  0.20403936  1  0  0.4409  0  0.844254  0  0  0.413207  0  0.901416  0  0  0.422655  0  0.887639  0  0  0.305769  0.406536  0  0.911142  0
H  H18  1  0.31997642  0.82675009  0.70403792  1  0  0.44091  0  0.844224  0  0  0.413217  0  0.901384  0  0  0.422664  0  0.887611  0  0  0.305765  0.406541  0  0.911115  0
H  H19  1  0.81997832  0.67324753  0.79596030  1  0  0.440904  0  0.844231  0  0  0.413209  0  0.9014  0  0  0.422652  0  0.887632  0  0  0.305778  0.406529  0  0.911136  0
H  H20  1  0.27445127  0.77821054  0.38355634  1  0  0.411903  0  0.903732  0  0  0.383282  0  0.966861  0  0  0.393275  0  0.952165  0  0  0.284572  0.376221  0  0.977214  0
H  H21  1  0.77444734  0.72178891  0.11643912  1  0  0.411965  0  0.903667  0  0  0.383298  0  0.966888  0  0  0.393289  0  0.952192  0  0  0.284596  0.376231  0  0.977252  0
H  H22  1  0.72554556  0.22178634  0.61644521  1  0  0.411887  0  0.903773  0  0  0.383261  0  0.966905  0  0  0.393256  0  0.952205  0  0  0.284583  0.376204  0  0.977251  0
H  H23  1  0.22555285  0.27821529  0.88355860  1  0  0.412008  0  0.903611  0  0  0.38334  0  0.966831  0  0  0.393336  0  0.952128  0  0  0.284629  0.37628  0  0.977184  0
C  C24  1  0.87416802  0.84406924  0.43034635  1  0  0.656641  0  3.882641  0  0  0.604036  0  4.181476  0  0  0.637673  0  4.172911  0  0  0.230958  0.580955  0  4.186715  0
C  C25  1  0.37416774  0.65593056  0.06965239  1  0  0.656728  0  3.882334  0  0  0.603909  0  4.181522  0  0  0.637552  0  4.172957  0  0  0.230916  0.580827  0  4.186749  0
C  C26  1  0.12584054  0.15593078  0.56965597  1  0  0.656551  0  3.882683  0  0  0.603941  0  4.181537  0  0  0.637582  0  4.172978  0  0  0.23089  0.580857  0  4.18677  0
C  C27  1  0.62583580  0.34407259  0.93034531  1  0  0.656696  0  3.882423  0  0  0.603923  0  4.181542  0  0  0.637561  0  4.172978  0  0  0.230898  0.580836  0  4.18678  0
C  C28  1  0.67601738  0.92528952  0.46785334  1  0  0.086103  0  3.680704  0  0  0.088716  0  3.927354  0  0  0.088851  0  3.941565  0  0  0.134838  0.088115  0  3.91857  0
C  C29  1  0.17602206  0.57470748  0.03214284  1  0  0.085932  0  3.680941  0  0  0.088661  0  3.927587  0  0  0.088786  0  3.941786  0  0  0.134882  0.088063  0  3.918806  0
C  C30  1  0.32399118  0.07470944  0.53214287  1  0  0.085902  0  3.681  0  0  0.088604  0  3.927614  0  0  0.088722  0  3.941831  0  0  0.134847  0.088002  0  3.91883  0
C  C31  1  0.82398483  0.42529358  0.96785478  1  0  0.085937  0  3.681075  0  0  0.088659  0  3.92772  0  0  0.088795  0  3.941915  0  0  0.134903  0.08806  0  3.918934  0
C  C32  1  0.64653042  0.95183628  0.56065040  1  0  0.127673  0  3.608826  0  0  0.088146  0  3.868911  0  0  0.093358  0  3.880658  0  0  0.08174  0.084675  0  3.861544  0
C  C33  1  0.14652999  0.54816360  0.93934944  1  0  0.127727  0  3.608948  0  0  0.088164  0  3.869009  0  0  0.093396  0  3.880727  0  0  0.081718  0.084698  0  3.861638  0
C  C34  1  0.35348316  0.04816687  0.43934797  1  0  0.127683  0  3.608974  0  0  0.088068  0  3.869079  0  0  0.093304  0  3.880804  0  0  0.081673  0.084603  0  3.861709  0
C  C35  1  0.85347187  0.45184059  0.06064963  1  0  0.127734  0  3.608874  0  0  0.088177  0  3.868908  0  0  0.093405  0  3.880648  0  0  0.081685  0.084712  0  3.86154  0
C  C36  1  0.21558790  0.07009408  0.15106550  1  0  0.650752  0  3.903225  0  0  0.59959  0  4.202345  0  0  0.633699  0  4.192696  0  0  0.229306  0.576526  0  4.208114  0
C  C37  1  0.71558070  0.42990285  0.34893802  1  0  0.651029  0  3.902858  0  0  0.599906  0  4.201876  0  0  0.634002  0  4.192225  0  0  0.229401  0.576843  0  4.207647  0
C  C38  1  0.78441396  0.92990489  0.84893815  1  0  0.650989  0  3.902904  0  0  0.599807  0  4.202019  0  0  0.633921  0  4.192349  0  0  0.229314  0.576745  0  4.207785  0
C  C39  1  0.28440943  0.57009507  0.65106694  1  0  0.651045  0  3.902941  0  0  0.599802  0  4.202184  0  0  0.633918  0  4.192509  0  0  0.229377  0.576735  0  4.207949  0
C  C40  1  0.36173867  0.03181520  0.06999422  1  0  0.069254  0  3.686413  0  0  0.072858  0  3.934745  0  0  0.071607  0  3.950545  0  0  0.13041  0.073202  0  3.924602  0
C  C41  1  0.86174623  0.46818384  0.43000446  1  0  0.069246  0  3.686676  0  0  0.072812  0  3.934988  0  0  0.071562  0  3.950777  0  0  0.130504  0.07316  0  3.924828  0
C  C42  1  0.63825984  0.96819318  0.93000566  1  0  0.069244  0  3.68654  0  0  0.072818  0  3.934843  0  0  0.07157  0  3.950637  0  0  0.130466  0.07316  0  3.924695  0
C  C43  1  0.13826735  0.53180886  0.56999763  1  0  0.069197  0  3.686611  0  0  0.072778  0  3.934943  0  0  0.071527  0  3.950728  0  0  0.130437  0.073136  0  3.924775  0
C  C44  1  0.30433539  0.06177728  0.98141338  1  0  0.134499  0  3.631177  0  0  0.095719  0  3.894574  0  0  0.101073  0  3.907408  0  0  0.076707  0.091849  0  3.886454  0
C  C45  1  0.80434617  0.43821855  0.51858475  1  0  0.13453  0  3.631553  0  0  0.095815  0  3.894861  0  0  0.101178  0  3.907688  0  0  0.076742  0.091953  0  3.886738  0
C  C46  1  0.69565977  0.93822587  0.01858634  1  0  0.134426  0  3.631374  0  0  0.095763  0  3.894643  0  0  0.101118  0  3.907477  0  0  0.076729  0.091898  0  3.886525  0
C  C47  1  0.19566239  0.56176995  0.48141519  1  0  0.13446  0  3.631388  0  0  0.095852  0  3.894638  0  0  0.101206  0  3.907467  0  0  0.07672  0.091979  0  3.886517  0
N  N48  1  0.52853013  0.97316199  0.40805333  1  0  -0.336258  0  3.219956  0  0  -0.286371  0  3.477546  0  0  -0.29548  0  3.492526  0  0  -0.354372  -0.280337  0  3.467762  0
N  N49  1  0.02852793  0.52684232  0.09194460  1  0  -0.336303  0  3.219812  0  0  -0.286436  0  3.477371  0  0  -0.295524  0  3.492347  0  0  -0.354416  -0.280414  0  3.467598  0
N  N50  1  0.47148513  0.02684012  0.59194365  1  0  -0.336265  0  3.219971  0  0  -0.286457  0  3.477592  0  0  -0.295559  0  3.492587  0  0  -0.35447  -0.280424  0  3.467813  0
N  N51  1  0.97147896  0.47316083  0.90805309  1  0  -0.336305  0  3.219993  0  0  -0.286481  0  3.477592  0  0  -0.295584  0  3.492569  0  0  -0.354464  -0.280453  0  3.46781  0
N  N52  1  0.55713882  0.96918667  0.08783118  1  0  -0.346063  0  3.22365  0  0  -0.299252  0  3.482  0  0  -0.308217  0  3.497922  0  0  -0.33727  -0.292769  0  3.47127  0
N  N53  1  0.05714728  0.53081012  0.41216851  1  0  -0.346073  0  3.223802  0  0  -0.29928  0  3.482162  0  0  -0.308232  0  3.498079  0  0  -0.337312  -0.292805  0  3.471428  0
N  N54  1  0.44285634  0.03081752  0.91216925  1  0  -0.346075  0  3.223595  0  0  -0.299234  0  3.481991  0  0  -0.308196  0  3.497911  0  0  -0.337316  -0.292741  0  3.471251  0
N  N55  1  0.94286295  0.46918153  0.58783220  1  0  -0.346143  0  3.223739  0  0  -0.299343  0  3.482147  0  0  -0.308303  0  3.498061  0  0  -0.337376  -0.292868  0  3.471413  0
O  O56  1  0.85153742  0.79518899  0.34746880  1  0  -0.808813  0  2.140126  0  0  -0.744503  0  2.404646  0  0  -0.772864  0  2.395626  0  0  -0.42231  -0.72404  0  2.409993  0
O  O57  1  0.35153552  0.70481620  0.15253081  1  0  -0.808845  0  2.139918  0  0  -0.744439  0  2.404493  0  0  -0.772798  0  2.395457  0  0  -0.422291  -0.724007  0  2.409921  0
O  O58  1  0.14846611  0.20481207  0.65252950  1  0  -0.808703  0  2.140262  0  0  -0.744387  0  2.404741  0  0  -0.77274  0  2.39571  0  0  -0.42226  -0.723922  0  2.410117  0
O  O59  1  0.64846969  0.29518382  0.84747017  1  0  -0.808836  0  2.140122  0  0  -0.744444  0  2.40467  0  0  -0.772805  0  2.395645  0  0  -0.422276  -0.723962  0  2.410001  0
O  O60  1  0.04240521  0.82994927  0.47888217  1  0  -0.56217  0  1.943302  0  0  -0.515205  0  2.162352  0  0  -0.539985  0  2.158285  0  0  -0.280024  -0.497104  0  2.164483  0
O  O61  1  0.54241927  0.67004449  0.02112014  1  0  -0.562103  0  1.943103  0  0  -0.515103  0  2.162321  0  0  -0.539877  0  2.15824  0  0  -0.28001  -0.496995  0  2.164464  0
O  O62  1  0.95758995  0.17004970  0.52111809  1  0  -0.562179  0  1.943138  0  0  -0.515225  0  2.16222  0  0  -0.540003  0  2.158141  0  0  -0.280037  -0.497124  0  2.164358  0
O  O63  1  0.45758091  0.32995553  0.97888015  1  0  -0.562119  0  1.943033  0  0  -0.515131  0  2.162222  0  0  -0.539902  0  2.158141  0  0  -0.280021  -0.497029  0  2.164361  0
O  O64  1  0.26577878  0.01334382  0.22429945  1  0  -0.707537  0  2.043275  0  0  -0.661672  0  2.301661  0  0  -0.686619  0  2.290162  0  0  -0.381163  -0.643902  0  2.308864  0
O  O65  1  0.76576504  0.48665799  0.27570619  1  0  -0.707675  0  2.042981  0  0  -0.661839  0  2.301355  0  0  -0.686755  0  2.289855  0  0  -0.381228  -0.644079  0  2.308554  0
O  O66  1  0.73422308  0.98665934  0.77570838  1  0  -0.707659  0  2.043025  0  0  -0.661821  0  2.301462  0  0  -0.686764  0  2.289947  0  0  -0.381209  -0.644033  0  2.308623  0
O  O67  1  0.23422175  0.51334621  0.72429830  1  0  -0.707538  0  2.043246  0  0  -0.66165  0  2.301673  0  0  -0.686578  0  2.290165  0  0  -0.381096  -0.643877  0  2.308869  0
O  O68  1  0.05871124  0.15754250  0.14160241  1  0  -0.608817  0  1.921445  0  0  -0.554847  0  2.131852  0  0  -0.579318  0  2.122344  0  0  -0.303515  -0.537781  0  2.137988  0
O  O69  1  0.55871321  0.34245762  0.35840612  1  0  -0.608932  0  1.921498  0  0  -0.554932  0  2.131846  0  0  -0.579401  0  2.122343  0  0  -0.303546  -0.537866  0  2.137986  0
O  O70  1  0.94127219  0.84244810  0.85840367  1  0  -0.608922  0  1.921456  0  0  -0.554897  0  2.131833  0  0  -0.579371  0  2.122317  0  0  -0.303477  -0.537835  0  2.137968  0
O  O71  1  0.44127692  0.65755495  0.64160471  1  0  -0.608988  0  1.921182  0  0  -0.554956  0  2.131583  0  0  -0.579431  0  2.122074  0  0  -0.303586  -0.537892  0  2.137725  0
O  O72  1  0.74530233  0.09189409  0.26252437  1  0  -0.930899  0  1.877641  0  0  -0.881505  0  2.067804  0  0  -0.901489  0  2.036496  0  0  -0.642971  -0.866866  0  2.089697  0
O  O73  1  0.24530376  0.40810786  0.23747589  1  0  -0.930874  0  1.877644  0  0  -0.881465  0  2.067764  0  0  -0.90144  0  2.036464  0  0  -0.642995  -0.866839  0  2.089648  0
O  O74  1  0.25468612  0.90810801  0.73747261  1  0  -0.930861  0  1.877599  0  0  -0.881422  0  2.067801  0  0  -0.901412  0  2.036488  0  0  -0.642978  -0.866786  0  2.089693  0
O  O75  1  0.75468469  0.59188902  0.76252566  1  0  -0.930854  0  1.877639  0  0  -0.881418  0  2.06775  0  0  -0.90139  0  2.036453  0  0  -0.643005  -0.86678  0  2.089649  0
O  O76  1  0.33734997  0.74132431  0.32606203  1  0  -1.172078  0  1.809123  0  0  -1.115312  0  2.056524  0  0  -1.142802  0  2.031507  0  0  -0.808347  -1.094517  0  2.073374  0
O  O77  1  0.83734849  0.75867365  0.17393399  1  0  -1.172112  0  1.808963  0  0  -1.115313  0  2.056342  0  0  -1.1428  0  2.031321  0  0  -0.808331  -1.0945  0  2.073188  0
O  O78  1  0.66265022  0.25867047  0.67393811  1  0  -1.172014  0  1.809135  0  0  -1.115279  0  2.056578  0  0  -1.142771  0  2.031557  0  0  -0.808369  -1.094457  0  2.073425  0
O  O79  1  0.16265672  0.24132636  0.82606428  1  0  -1.172165  0  1.808896  0  0  -1.115361  0  2.056244  0  0  -1.142896  0  2.031289  0  0  -0.808382  -1.09455  0  2.07311  0
