# generated using pymatgen
data_Cu3MoH33C28S3Br2N3
_symmetry_space_group_name_H-M   'P 1'
_cell_length_a   10.89632151
_cell_length_b   13.44641200
_cell_length_c   14.46942230
_cell_angle_alpha   65.35127041
_cell_angle_beta   75.67863857
_cell_angle_gamma   72.23913713
_symmetry_Int_Tables_number   1
_chemical_formula_structural   Cu3MoH33C28S3Br2N3
_chemical_formula_sum   'Cu6 Mo2 H66 C56 S6 Br4 N6'
_cell_volume   1817.23769211
_cell_formula_units_Z   2
loop_
 _symmetry_equiv_pos_site_id
 _symmetry_equiv_pos_as_xyz
  1  'x, y, z'
loop_
 _atom_site_type_symbol
 _atom_site_label
 _atom_site_symmetry_multiplicity
 _atom_site_fract_x
 _atom_site_fract_y
 _atom_site_fract_z
 _atom_site_occupancy
 _atom_site_pbe_bader_charge
 _atom_site_pbe_bader_spin_density
 _atom_site_pbe_cm5_charge
 _atom_site_pbe_ddec_charge
 _atom_site_pbe_ddec_spin_density
 _atom_site_pbe_ddec_sum_bond_order
 _atom_site_pbe_magmom
Cu  Cu0  1  0.81167369  0.04130997  0.34725041  1  0.473524  0  0.33761  0.310515  0  2.882021  0
Cu  Cu1  1  0.18826776  0.95871192  0.65273227  1  0.473842  0  0.337668  0.310502  0  2.882079  0
Cu  Cu2  1  0.56745439  0.25622075  0.29457426  1  0.603214  0  0.470509  0.303479  0  2.878088  0
Cu  Cu3  1  0.43253903  0.74379419  0.70542678  1  0.603435  0  0.470481  0.303534  0  2.877945  0
Cu  Cu4  1  0.86773488  0.24365164  0.13691489  1  0.57157  0  0.391866  0.347879  0  2.923481  0
Cu  Cu5  1  0.13225098  0.75637746  0.86306418  1  0.571354  0  0.391839  0.347647  0  2.923718  0
Mo  Mo6  1  0.80094611  0.24609434  0.32978490  1  1.377509  0  0.83806  0.779149  0  4.687601  0
Mo  Mo7  1  0.19903398  0.75391741  0.67021687  1  1.376945  0  0.838071  0.779189  0  4.687467  0
H  H8  1  0.36504985  0.33844939  0.15808488  1  0.077842  0  0.115489  0.08417  0  0.986725  0
H  H9  1  0.63496568  0.66152939  0.84193575  1  0.077786  0  0.115491  0.08433  0  0.986506  0
H  H10  1  0.23539060  0.25507841  0.10056511  1  0.132327  0  0.095359  0.12084  0  1.048377  0
H  H11  1  0.76463242  0.74490077  0.89944986  1  0.132016  0  0.095311  0.120755  0  1.048429  0
H  H12  1  0.43817515  0.92803183  0.28749013  1  0.028523  0  0.104594  0.112213  0  0.999429  0
H  H13  1  0.56185403  0.07195956  0.71251485  1  0.028598  0  0.104628  0.112254  0  0.9993  0
H  H14  1  0.55914784  0.02320092  0.33678480  1  0.100528  0  0.097209  0.073705  0  1.05215  0
H  H15  1  0.44086764  0.97678511  0.66322723  1  0.10088  0  0.097196  0.07361  0  1.052132  0
H  H16  1  0.16496388  0.08565847  0.12756913  1  0.084154  0  0.083917  0.11021  0  1.032224  0
H  H17  1  0.83505640  0.91434475  0.87243221  1  0.083803  0  0.083959  0.110373  0  1.032392  0
H  H18  1  0.24206309  0.94967011  0.20845854  1  0.03853  0  0.093189  0.101367  0  0.987722  0
H  H19  1  0.75793145  0.05032319  0.79155703  1  0.041894  0  0.093158  0.101277  0  0.987865  0
H  H20  1  0.44337617  0.96210760  0.07558955  1  0.061863  0  0.092511  0.085516  0  1.020444  0
H  H21  1  0.55664178  0.03782387  0.92445934  1  0.063107  0  0.092454  0.085467  0  1.020406  0
H  H22  1  0.35741249  0.09307305  0.99622968  1  0.056086  0  0.098217  0.100879  0  0.978786  0
H  H23  1  0.64266553  0.90688473  0.00380022  1  0.055858  0  0.098105  0.1008  0  0.97877  0
H  H24  1  0.45057110  0.79997079  0.04549247  1  0.095985  0  0.102685  0.110709  0  1.003253  0
H  H25  1  0.54942405  0.20001664  0.95453462  1  0.06606  0  0.102668  0.11072  0  1.003123  0
H  H26  1  0.36443327  0.70998992  0.96254240  1  0.088977  0  0.104957  0.075182  0  1.00601  0
H  H27  1  0.63560155  0.29001223  0.03745038  1  0.087939  0  0.104936  0.075308  0  1.005959  0
H  H28  1  0.05337346  0.98275681  0.88258402  1  0.083544  0  0.105974  0.08027  0  1.010363  0
H  H29  1  0.94669345  0.01725679  0.11736584  1  0.083636  0  0.105989  0.080293  0  1.010648  0
H  H30  1  0.12766540  0.08657303  0.95877499  1  0.118154  0  0.098435  0.116998  0  1.028439  0
H  H31  1  0.87235428  0.91342225  0.04121382  1  0.118352  0  0.09832  0.116971  0  1.028477  0
H  H32  1  0.39186549  0.49974368  0.21686933  1  0.069914  0  0.112117  0.082359  0  0.990223  0
H  H33  1  0.60813858  0.50024607  0.78313872  1  0.069126  0  0.112112  0.082356  0  0.990368  0
H  H34  1  0.18483874  0.60863945  0.28382791  1  0.069615  0  0.112458  0.12376  0  0.988255  0
H  H35  1  0.81515616  0.39134940  0.71617242  1  0.069742  0  0.11248  0.123744  0  0.98821  0
H  H36  1  0.20880711  0.33232828  0.57705331  1  0.101547  0  0.097203  0.12041  0  1.037849  0
H  H37  1  0.79117579  0.66765258  0.42294631  1  0.101607  0  0.097244  0.120528  0  1.037825  0
H  H38  1  0.40669477  0.23277866  0.49681707  1  0.11161  0  0.104617  0.084106  0  1.018754  0
H  H39  1  0.59329165  0.76720319  0.50318019  1  0.111998  0  0.104512  0.08394  0  1.018745  0
H  H40  1  0.06630540  0.54373926  0.55252821  1  0.068451  0  0.098972  0.111311  0  1.000592  0
H  H41  1  0.93369789  0.45628497  0.44744856  1  0.067926  0  0.098894  0.111258  0  1.000619  0
H  H42  1  0.01528025  0.62064641  0.43022484  1  0.067875  0  0.094742  0.101011  0  0.995053  0
H  H43  1  0.98471905  0.37936124  0.56975534  1  0.067832  0  0.094822  0.101125  0  0.994951  0
H  H44  1  0.15075534  0.21936001  0.44835378  1  0.060259  0  0.084282  0.13229  0  1.021828  0
H  H45  1  0.84922355  0.78068052  0.55163598  1  0.059529  0  0.084299  0.132328  0  1.021636  0
H  H46  1  0.15453618  0.20362081  0.33111215  1  0.053558  0  0.085233  0.128874  0  1.035458  0
H  H47  1  0.84546263  0.79642301  0.66887494  1  0.053648  0  0.08525  0.128857  0  1.035458  0
H  H48  1  0.10260147  0.10443376  0.45096516  1  0.075472  0  0.08377  0.123406  0  1.025514  0
H  H49  1  0.89742119  0.89559219  0.54901788  1  0.075403  0  0.083827  0.12353  0  1.025738  0
H  H50  1  0.07817411  0.45378448  0.24370885  1  0.038485  0  0.086585  0.126419  0  1.001974  0
H  H51  1  0.92179238  0.54624620  0.75627327  1  0.038423  0  0.086586  0.126352  0  1.002183  0
H  H52  1  0.95467388  0.49220840  0.16737749  1  0.098861  0  0.083573  0.146164  0  1.034614  0
H  H53  1  0.04526382  0.50782686  0.83262158  1  0.09925  0  0.083601  0.14632  0  1.034604  0
H  H54  1  0.06576730  0.36044507  0.19023600  1  0.054446  0  0.088116  0.128921  0  1.036435  0
H  H55  1  0.93417358  0.63959631  0.80973830  1  0.054004  0  0.088129  0.129033  0  1.036425  0
H  H56  1  0.60872146  0.52970762  0.30517207  1  0.036957  0  0.087465  0.123488  0  1.01543  0
H  H57  1  0.39122994  0.47025640  0.69485689  1  0.03764  0  0.08759  0.123687  0  1.015322  0
H  H58  1  0.74772845  0.55953236  0.21313998  1  0.072466  0  0.092953  0.14496  0  1.003438  0
H  H59  1  0.25220536  0.44047182  0.78687972  1  0.072651  0  0.092912  0.144942  0  1.003706  0
H  H60  1  0.71829233  0.59076517  0.32554927  1  0.028888  0  0.093081  0.133577  0  0.993234  0
H  H61  1  0.28162920  0.40924241  0.67447019  1  0.028776  0  0.093084  0.133606  0  0.992991  0
H  H62  1  0.62736805  0.38638960  0.57199093  1  0.06004  0  0.090207  0.126429  0  1.002855  0
H  H63  1  0.37260802  0.61358122  0.42803195  1  0.060456  0  0.090203  0.126379  0  1.002892  0
H  H64  1  0.58681322  0.27648957  0.55642442  1  0.058742  0  0.088739  0.126888  0  1.021986  0
H  H65  1  0.41319429  0.72347728  0.44358359  1  0.058723  0  0.088674  0.126793  0  1.022207  0
H  H66  1  0.54348099  0.41684351  0.46911543  1  0.02817  0  0.092082  0.127116  0  1.026166  0
H  H67  1  0.45649913  0.58312631  0.53090911  1  0.028096  0  0.092002  0.127008  0  1.026164  0
H  H68  1  0.92394052  0.07079059  0.57467137  1  0.063124  0  0.084076  0.130102  0  1.033683  0
H  H69  1  0.07609583  0.92920947  0.42531697  1  0.063203  0  0.084007  0.130045  0  1.033776  0
H  H70  1  0.75915241  0.12967622  0.61044169  1  0.046293  0  0.084258  0.120941  0  1.039144  0
H  H71  1  0.24088119  0.87030265  0.38955619  1  0.046656  0  0.084345  0.121063  0  1.039026  0
H  H72  1  0.88834522  0.16564318  0.63735537  1  0.066882  0  0.087932  0.13352  0  1.003722  0
H  H73  1  0.11167477  0.83435438  0.36263541  1  0.066745  0  0.08799  0.133554  0  1.003622  0
C  C74  1  0.37853887  0.24753186  0.18487316  1  0.416793  0  0.038325  0.080852  0  3.961468  0
C  C75  1  0.62147451  0.75245141  0.81514294  1  0.416841  0  0.038142  0.080473  0  3.960939  0
C  C76  1  0.30667564  0.20109998  0.15318855  1  -0.04847  0  -0.085323  -0.182502  0  3.929289  0
C  C77  1  0.69334086  0.79888570  0.84682756  1  0.027434  0  -0.085126  -0.182041  0  3.928264  0
C  C78  1  0.32589241  0.08386580  0.18927030  1  0.01192  0  0.015625  0.176523  0  3.927635  0
C  C79  1  0.67413162  0.91612358  0.81073975  1  -0.064244  0  0.015767  0.176624  0  3.927499  0
C  C80  1  0.41779379  0.01966542  0.25690142  1  -0.030395  0  -0.08441  -0.177737  0  3.93593  0
C  C81  1  0.58223233  0.98032331  0.74310638  1  -0.00995  0  -0.08473  -0.178139  0  3.936001  0
C  C82  1  0.48603615  0.07212170  0.28520675  1  0.489576  0  0.03935  0.101238  0  3.9244  0
C  C83  1  0.51398287  0.92786525  0.71480363  1  0.469113  0  0.039456  0.101657  0  3.924299  0
C  C84  1  0.25907111  0.03019531  0.14959896  1  -0.01645  0  -0.161731  -0.20083  0  3.911882  0
C  C85  1  0.74094450  0.96979709  0.85041510  1  -0.019479  0  -0.161809  -0.201  0  3.912538  0
C  C86  1  0.34647889  0.01030141  0.05470164  1  -0.054703  0  -0.154917  -0.19211  0  3.954274  0
C  C87  1  0.65355368  0.98966012  0.94531806  1  -0.055789  0  -0.154782  -0.191832  0  3.95387  0
C  C88  1  0.29545146  0.95115111  0.00961083  1  -0.060011  0  0.007811  0.165385  0  3.944043  0
C  C89  1  0.70457020  0.04883682  0.99038766  1  -0.060189  0  0.007719  0.165313  0  3.943876  0
C  C90  1  0.36130407  0.84349666  0.01071548  1  -0.058936  0  -0.096779  -0.20282  0  3.977185  0
C  C91  1  0.63871552  0.15649533  0.98928344  1  -0.02856  0  -0.096883  -0.202809  0  3.976799  0
C  C92  1  0.31395968  0.79268642  0.96503255  1  0.462841  0  0.036166  0.094342  0  3.981667  0
C  C93  1  0.68607850  0.20731395  0.03495188  1  0.464082  0  0.036291  0.09409  0  3.981375  0
C  C94  1  0.14059457  0.94491424  0.92005166  1  0.495595  0  0.040861  0.102882  0  3.954643  0
C  C95  1  0.85945971  0.05509335  0.07991289  1  0.493864  0  0.0409  0.102978  0  3.954646  0
C  C96  1  0.18208029  0.00206711  0.96305740  1  -0.010879  0  -0.085791  -0.172523  0  3.907259  0
C  C97  1  0.81795243  0.99793251  0.03692690  1  -0.010658  0  -0.085606  -0.17252  0  3.907236  0
C  C98  1  0.34669116  0.46539603  0.29632959  1  0.501544  0  0.038913  0.079228  0  3.984708  0
C  C99  1  0.65331037  0.53459604  0.70368024  1  0.502321  0  0.038899  0.079116  0  3.985349  0
C  C100  1  0.23205112  0.52621399  0.33446284  1  -0.066746  0  -0.086096  -0.197124  0  3.962249  0
C  C101  1  0.76794227  0.47377678  0.66554407  1  -0.066935  0  -0.086088  -0.196976  0  3.962277  0
C  C102  1  0.17829749  0.47981269  0.43730650  1  0.002519  0  0.013017  0.17187  0  3.941151  0
C  C103  1  0.82169518  0.52018077  0.56269758  1  0.002685  0  0.012985  0.171888  0  3.940968  0
C  C104  1  0.24543827  0.37395245  0.49679664  1  -0.061796  0  -0.088811  -0.188785  0  3.948713  0
C  C105  1  0.75454983  0.62603697  0.50320753  1  -0.061746  0  -0.088887  -0.18916  0  3.949129  0
C  C106  1  0.35659784  0.31737913  0.45235441  1  0.489138  0  0.040481  0.095995  0  3.957635  0
C  C107  1  0.64339575  0.68260744  0.54765384  1  0.488993  0  0.040549  0.096256  0  3.957511  0
C  C108  1  0.05144832  0.53527883  0.48391414  1  -0.042299  0  -0.153681  -0.193208  0  3.896114  0
C  C109  1  0.94855122  0.46473470  0.51607377  1  -0.064515  0  -0.153747  -0.193311  0  3.895919  0
C  C110  1  0.96452662  0.26389371  0.40217201  1  -0.142666  0  -0.055113  0.034996  0  3.934848  0
C  C111  1  0.03546383  0.73611857  0.59781244  1  -0.141377  0  -0.055047  0.034979  0  3.934503  0
C  C112  1  0.92348726  0.36914128  0.32105190  1  -0.120358  0  -0.06005  0.023133  0  3.92966  0
C  C113  1  0.07648460  0.63087306  0.67893945  1  -0.121666  0  -0.060017  0.023424  0  3.929401  0
C  C114  1  0.78966123  0.41613796  0.35152729  1  -0.117874  0  -0.057383  0.024562  0  3.94517  0
C  C115  1  0.21031042  0.58386990  0.64848286  1  -0.117621  0  -0.057451  0.024395  0  3.945521  0
C  C116  1  0.74761871  0.33836440  0.44964641  1  -0.121923  0  -0.060965  0.015829  0  3.945772  0
C  C117  1  0.25237206  0.66163583  0.55036480  1  -0.118634  0  -0.060992  0.015747  0  3.94615  0
C  C118  1  0.85553689  0.24427640  0.48062275  1  -0.115983  0  -0.059458  0.027366  0  3.941755  0
C  C119  1  0.14446579  0.75572900  0.51937419  1  -0.116569  0  -0.059506  0.027377  0  3.94173  0
C  C120  1  0.09998365  0.19408996  0.40764704  1  -0.075237  0  -0.24728  -0.372063  0  3.944144  0
C  C121  1  0.90001001  0.80594160  0.59234088  1  -0.074506  0  -0.247356  -0.372265  0  3.94411  0
C  C122  1  0.00907150  0.42154831  0.22562902  1  -0.061307  0  -0.244674  -0.38895  0  3.947204  0
C  C123  1  0.99088608  0.57848370  0.77435777  1  -0.060763  0  -0.244753  -0.389215  0  3.947247  0
C  C124  1  0.71185238  0.52979035  0.29554653  1  -0.025152  0  -0.239636  -0.374592  0  3.96011  0
C  C125  1  0.28809183  0.47020692  0.70447630  1  -0.026082  0  -0.239755  -0.374826  0  3.960181  0
C  C126  1  0.61929039  0.35542555  0.51471080  1  -0.06917  0  -0.239729  -0.375961  0  3.963344  0
C  C127  1  0.38069891  0.64455235  0.48530385  1  -0.072907  0  -0.239514  -0.375644  0  3.96366  0
C  C128  1  0.85596674  0.14770252  0.58072529  1  -0.078563  0  -0.24532  -0.383377  0  3.965926  0
C  C129  1  0.14405444  0.85229416  0.41926625  1  -0.078688  0  -0.24536  -0.383511  0  3.965813  0
S  S130  1  0.97198399  0.12956366  0.27157934  1  -0.60275  0  -0.377725  -0.445372  0  2.956844  0
S  S131  1  0.02798104  0.87044794  0.72841624  1  -0.602081  0  -0.377772  -0.445401  0  2.957139  0
S  S132  1  0.65946880  0.13264366  0.43485880  1  -0.656276  0  -0.407131  -0.495732  0  2.800527  0
S  S133  1  0.34050837  0.86737173  0.56514855  1  -0.656541  0  -0.40713  -0.495642  0  2.800226  0
S  S134  1  0.70167209  0.36645449  0.18699021  1  -0.64455  0  -0.411659  -0.510717  0  2.761324  0
S  S135  1  0.29831298  0.63355987  0.81300910  1  -0.64439  0  -0.411671  -0.510678  0  2.761307  0
Br  Br136  1  0.03677328  0.30475946  0.99452606  1  -0.639858  0  -0.359857  -0.529816  0  1.1781  0
Br  Br137  1  0.96316962  0.69531984  0.00542433  1  -0.639777  0  -0.359743  -0.529656  0  1.17839  0
Br  Br138  1  0.82557663  0.87496629  0.33106260  1  -0.578458  0  -0.304408  -0.456036  0  1.398291  0
Br  Br139  1  0.17442236  0.12505334  0.66889154  1  -0.578421  0  -0.30437  -0.456012  0  1.398517  0
N  N140  1  0.46786643  0.18495232  0.24956632  1  -1.200112  0  -0.361057  -0.201409  0  3.646096  0
N  N141  1  0.53214715  0.81503376  0.75044535  1  -1.200275  0  -0.361006  -0.201687  0  3.646339  0
N  N142  1  0.20513868  0.84200216  0.92018202  1  -1.236302  0  -0.354723  -0.221116  0  3.633946  0
N  N143  1  0.79491831  0.15800587  0.07978674  1  -1.235483  0  -0.354777  -0.22116  0  3.63378  0
N  N144  1  0.40783809  0.36170742  0.35335264  1  -1.24537  0  -0.349864  -0.220508  0  3.585181  0
N  N145  1  0.59216424  0.63828514  0.64666105  1  -1.245743  0  -0.349681  -0.220355  0  3.585046  0
