# generated using pymatgen
data_Zn2H2C12S2Br2O7
_symmetry_space_group_name_H-M   'P 1'
_cell_length_a   19.65140996
_cell_length_b   19.74496322
_cell_length_c   33.32527699
_cell_angle_alpha   78.94893365
_cell_angle_beta   79.21203963
_cell_angle_gamma   63.98924835
_symmetry_Int_Tables_number   1
_chemical_formula_structural   Zn2H2C12S2Br2O7
_chemical_formula_sum   'Zn16 H16 C96 S16 Br16 O56'
_cell_volume   11327.32424313
_cell_formula_units_Z   8
loop_
 _symmetry_equiv_pos_site_id
 _symmetry_equiv_pos_as_xyz
  1  'x, y, z'
loop_
 _atom_site_type_symbol
 _atom_site_label
 _atom_site_symmetry_multiplicity
 _atom_site_fract_x
 _atom_site_fract_y
 _atom_site_fract_z
 _atom_site_occupancy
 _atom_site_pbe_bader_charge
 _atom_site_pbe_bader_spin_density
 _atom_site_pbe_cm5_charge
 _atom_site_pbe_ddec_charge
 _atom_site_pbe_ddec_spin_density
 _atom_site_pbe_ddec_sum_bond_order
 _atom_site_pbe_magmom
Zn  Zn0  1  0.05641751  0.39995158  0.47827064  1  1.324744  0  0.677478  0.976449  0  2.337873  0
Zn  Zn1  1  0.98495478  0.48321186  0.56034063  1  1.317925  0  0.677908  0.970318  0  2.384797  0
Zn  Zn2  1  0.05808395  0.56112654  0.48237160  1  1.314386  0  0.673059  0.964312  0  2.372962  0
Zn  Zn3  1  0.90069050  0.55432074  0.47975398  1  1.319025  0  0.673222  0.964514  0  2.372379  0
Zn  Zn4  1  0.69331244  0.35006780  0.27182000  1  1.32096  0  0.674421  0.972657  0  2.342687  0
Zn  Zn5  1  0.69117687  0.18844333  0.26671789  1  1.323319  0  0.676202  0.972624  0  2.358624  0
Zn  Zn6  1  0.76907718  0.26596782  0.19047344  1  1.315298  0  0.671879  0.963564  0  2.368013  0
Zn  Zn7  1  0.84780352  0.19740549  0.27284477  1  1.316719  0  0.674155  0.965579  0  2.385996  0
Zn  Zn8  1  0.26514298  0.76574509  0.68991345  1  1.322399  0  0.674564  0.965149  0  2.394527  0
Zn  Zn9  1  0.34926031  0.69634924  0.77129144  1  1.321312  0  0.67646  0.973202  0  2.359705  0
Zn  Zn10  1  0.19266990  0.84818526  0.77122228  1  1.311309  0  0.671634  0.96619  0  2.349838  0
Zn  Zn11  1  0.19082148  0.68743519  0.76659623  1  1.31519  0  0.674376  0.969772  0  2.362754  0
Zn  Zn12  1  0.55876588  0.06191074  0.98344691  1  1.318463  0  0.673431  0.969069  0  2.363734  0
Zn  Zn13  1  0.40271052  0.05269306  0.97754673  1  1.316172  0  0.673622  0.965099  0  2.389322  0
Zn  Zn14  1  0.55588859  0.90058040  0.97827098  1  1.317565  0  0.672725  0.9715  0  2.340448  0
Zn  Zn15  1  0.48262381  0.98522211  0.06053078  1  1.315958  0  0.673114  0.969718  0  2.358221  0
H  H16  1  0.95354972  0.24958643  0.35144884  1  0.108604  0  0.106392  0.116521  0  1.001893  0
H  H17  1  0.74645868  0.45550376  0.35038876  1  0.133493  0  0.117103  0.142371  0  0.977904  0
H  H18  1  0.00014202  0.29873955  0.39967181  1  0.073706  0  0.110093  0.1158  0  0.987387  0
H  H19  1  0.09681316  0.59663889  0.70020488  1  0.104322  0  0.106938  0.116919  0  0.99879  0
H  H20  1  0.20156236  0.70096627  0.59752675  1  0.1462  0  0.115786  0.140955  0  0.983774  0
H  H21  1  0.04976442  0.55017979  0.65078959  1  0.112746  0  0.10914  0.114306  0  0.992004  0
H  H22  1  0.54973702  0.05020646  0.15308780  1  0.109898  0  0.106599  0.116832  0  0.999953  0
H  H23  1  0.65233302  0.15318583  0.04861606  1  0.145226  0  0.116198  0.14144  0  0.98054  0
H  H24  1  0.59951406  0.09836082  0.20021907  1  0.101423  0  0.108939  0.114613  0  0.989818  0
H  H25  1  0.50222963  0.79493407  0.89852648  1  0.119099  0  0.107369  0.117961  0  0.998339  0
H  H26  1  0.29658335  0.00220771  0.89908637  1  0.109697  0  0.115713  0.140478  0  0.983448  0
H  H27  1  0.45146435  0.74973934  0.85039454  1  0.065386  0  0.109336  0.114681  0  0.990053  0
H  H28  1  0.80881267  0.52782045  0.41833038  1  0.642239  0  0.307685  0.356968  0  0.964485  0
H  H29  1  0.13682895  0.63710604  0.52641673  1  0.644794  0  0.307848  0.356724  0  0.963231  0
H  H30  1  0.72371670  0.22284250  0.11342660  1  0.639674  0  0.307468  0.356691  0  0.963112  0
H  H31  1  0.22190594  0.94144580  0.83148867  1  0.646006  0  0.308357  0.358282  0  0.959804  0
C  C32  1  0.06185569  0.31634276  0.56190332  1  1.602354  0  0.2171  0.62395  0  4.20639  0
C  C33  1  0.07024802  0.57048822  0.56910940  1  1.469695  0  0.226633  0.615781  0  4.153805  0
C  C34  1  0.18352073  0.44000008  0.43862902  1  1.592744  0  0.216065  0.622929  0  4.205142  0
C  C35  1  0.93659010  0.68393245  0.43872530  1  1.622811  0  0.215244  0.621438  0  4.207225  0
C  C36  1  0.92967413  0.43052445  0.43056576  1  1.508146  0  0.227179  0.617606  0  4.146956  0
C  C37  1  0.81677670  0.56069769  0.56232775  1  1.582298  0  0.216627  0.622845  0  4.20518  0
C  C38  1  0.56613233  0.30994578  0.31117374  1  1.60215  0  0.216051  0.621896  0  4.20803  0
C  C39  1  0.68171240  0.17957107  0.18010830  1  1.486497  0  0.226764  0.616724  0  4.150525  0
C  C40  1  0.68940879  0.43306008  0.18793531  1  1.588744  0  0.215825  0.62316  0  4.202318  0
C  C41  1  0.93493600  0.18815531  0.18960022  1  1.571656  0  0.215998  0.621712  0  4.206358  0
C  C42  1  0.81856675  0.32103616  0.31966324  1  1.560235  0  0.231714  0.607555  0  4.152092  0
C  C43  1  0.81246719  0.06651885  0.31156417  1  1.615299  0  0.216806  0.620227  0  4.210535  0
C  C44  1  0.43300261  0.68967805  0.68818639  1  1.613265  0  0.215986  0.620835  0  4.208534  0
C  C45  1  0.31882474  0.82095347  0.81937656  1  1.528308  0  0.227561  0.618511  0  4.145523  0
C  C46  1  0.18848784  0.93294143  0.68829692  1  1.594806  0  0.216888  0.622894  0  4.20636  0
C  C47  1  0.06582553  0.80947158  0.81117813  1  1.592669  0  0.215672  0.621112  0  4.207668  0
C  C48  1  0.18050650  0.67960721  0.68042523  1  1.553628  0  0.230589  0.605053  0  4.155149  0
C  C49  1  0.31308204  0.56605301  0.81104029  1  1.601573  0  0.215827  0.621639  0  4.209661  0
C  C50  1  0.43730240  0.18375324  0.93855665  1  1.619283  0  0.216397  0.618905  0  4.211262  0
C  C51  1  0.43131186  0.92954529  0.93022761  1  1.56607  0  0.230847  0.605265  0  4.153261  0
C  C52  1  0.68319695  0.94027772  0.93870124  1  1.592988  0  0.216811  0.622037  0  4.207127  0
C  C53  1  0.56072094  0.81735125  0.06200321  1  1.587507  0  0.216215  0.622262  0  4.204102  0
C  C54  1  0.56895969  0.07063969  0.06956245  1  1.552778  0  0.230788  0.606392  0  4.151819  0
C  C55  1  0.31601690  0.06165921  0.06075733  1  1.570631  0  0.217093  0.622663  0  4.20731  0
C  C56  1  0.90019984  0.40396704  0.40207210  1  0.076736  0  -0.036565  -0.192481  0  3.979107  0
C  C57  1  0.84720748  0.34990637  0.34822479  1  -0.08846  0  -0.010196  -0.003779  0  3.991257  0
C  C58  1  0.82759642  0.44904582  0.38800257  1  0.511065  0  0.097967  0.321088  0  4.051714  0
C  C59  1  0.91924162  0.30495427  0.36194291  1  0.012372  0  -0.097217  -0.133107  0  4.003512  0
C  C60  1  0.80206813  0.42101820  0.36105488  1  0.014751  0  -0.090535  -0.209069  0  3.905491  0
C  C61  1  0.94475093  0.33222942  0.38853567  1  -0.05399  0  -0.080836  -0.062104  0  4.005376  0
C  C62  1  0.09900333  0.59907392  0.59689909  1  0.013763  0  -0.03588  -0.190585  0  3.981139  0
C  C63  1  0.15192214  0.65141198  0.65152778  1  -0.074195  0  -0.010502  -0.002188  0  3.991978  0
C  C64  1  0.14236120  0.64223062  0.58145372  1  0.527855  0  0.097453  0.321021  0  4.052253  0
C  C65  1  0.10896461  0.60877845  0.66707613  1  -0.016585  0  -0.096356  -0.131763  0  4.00321  0
C  C66  1  0.16835337  0.66795952  0.60929052  1  -0.004295  0  -0.090985  -0.211048  0  3.908855  0
C  C67  1  0.08313595  0.58325736  0.63977825  1  -0.02477  0  -0.080536  -0.061399  0  4.00622  0
C  C68  1  0.30519993  0.45435629  0.40064821  1  0.015624  0  -0.021039  0.063635  0  3.992315  0
C  C69  1  0.44460643  0.29542490  0.34945972  1  -0.025496  0  -0.022005  0.061809  0  3.994276  0
C  C70  1  0.25844133  0.41609612  0.41390047  1  -0.141626  0  -0.029803  -0.173253  0  3.93816  0
C  C71  1  0.49126318  0.33370118  0.33611798  1  -0.136091  0  -0.027447  -0.168635  0  3.932323  0
C  C72  1  0.37673681  0.33939879  0.37292679  1  -0.087497  0  -0.028218  -0.058399  0  4.096067  0
C  C73  1  0.37300643  0.41047148  0.37709656  1  -0.13175  0  -0.028516  -0.060002  0  4.094903  0
C  C74  1  0.72543513  0.57604983  0.63035048  1  -0.024806  0  -0.021492  0.065127  0  3.992388  0
C  C75  1  0.52430166  0.67388134  0.62011685  1  0.037595  0  -0.021489  0.064089  0  3.990712  0
C  C76  1  0.74263710  0.58503234  0.58774909  1  -0.127631  0  -0.029434  -0.172954  0  3.939769  0
C  C77  1  0.50723305  0.66497314  0.66271696  1  -0.15739  0  -0.027256  -0.168641  0  3.934305  0
C  C78  1  0.60388667  0.64143893  0.60830355  1  -0.166113  0  -0.028098  -0.060472  0  4.097984  0
C  C79  1  0.64589288  0.60840578  0.64217135  1  -0.099482  0  -0.028338  -0.060109  0  4.098695  0
C  C80  1  0.07673105  0.22465652  0.62998903  1  -0.09342  0  -0.02166  0.064906  0  3.99149  0
C  C81  1  0.17387906  0.02444682  0.62016196  1  -0.007266  0  -0.021238  0.064056  0  3.991177  0
C  C82  1  0.08590116  0.24217788  0.58738760  1  -0.061264  0  -0.029219  -0.172743  0  3.938029  0
C  C83  1  0.16467927  0.00710329  0.66276208  1  -0.130711  0  -0.028285  -0.170644  0  3.935225  0
C  C84  1  0.14183114  0.10377623  0.60817467  1  -0.12535  0  -0.028285  -0.059727  0  4.097141  0
C  C85  1  0.10884630  0.14534269  0.64194602  1  -0.072547  0  -0.028313  -0.060259  0  4.097753  0
C  C86  1  0.84258083  0.80154340  0.39669989  1  -0.016062  0  -0.021816  0.062605  0  3.994609  0
C  C87  1  0.90698716  0.94829802  0.35302607  1  -0.045368  0  -0.021803  0.063182  0  3.990725  0
C  C88  1  0.91082989  0.75837208  0.41358037  1  -0.156227  0  -0.029178  -0.171996  0  3.938175  0
C  C89  1  0.83861636  0.99150657  0.33629392  1  -0.115466  0  -0.02732  -0.167399  0  3.932392  0
C  C90  1  0.90852701  0.87898175  0.37503107  1  -0.104477  0  -0.027981  -0.059904  0  4.097067  0
C  C91  1  0.84121394  0.87070266  0.37459350  1  -0.107993  0  -0.027684  -0.058254  0  4.095466  0
C  C92  1  0.65348845  0.15239919  0.15125782  1  0.052166  0  -0.036056  -0.190861  0  3.978425  0
C  C93  1  0.59831655  0.09896133  0.09809624  1  0.042431  0  -0.010475  -0.00341  0  3.989078  0
C  C94  1  0.66862385  0.16827420  0.10788611  1  0.531398  0  0.098311  0.321797  0  4.050085  0
C  C95  1  0.58297861  0.08309274  0.14101714  1  -0.039204  0  -0.097665  -0.132981  0  4.00461  0
C  C96  1  0.64060442  0.14101238  0.08178500  1  -0.071155  0  -0.091087  -0.210376  0  3.906183  0
C  C97  1  0.61048734  0.10975828  0.16692512  1  -0.087071  0  -0.081409  -0.063707  0  4.008033  0
C  C98  1  0.67353592  0.52506174  0.11982539  1  -0.002686  0  -0.022093  0.063254  0  3.994352  0
C  C99  1  0.57632031  0.72514518  0.13010066  1  0.037938  0  -0.022705  0.061623  0  3.99409  0
C  C100  1  0.66485324  0.50727088  0.16241957  1  -0.132618  0  -0.029596  -0.173434  0  3.936276  0
C  C101  1  0.58505022  0.74299339  0.08753198  1  -0.127688  0  -0.027469  -0.1682  0  3.930985  0
C  C102  1  0.60860292  0.64574274  0.14190043  1  -0.170646  0  -0.028138  -0.058642  0  4.096022  0
C  C103  1  0.64130293  0.60445706  0.10801264  1  -0.109115  0  -0.028914  -0.060799  0  4.096176  0
C  C104  1  0.08261869  0.12339244  0.17803238  1  -0.084753  0  -0.021404  0.06443  0  3.991719  0
C  C105  1  0.16831945  0.12615275  0.07237193  1  -0.062582  0  -0.021792  0.064058  0  3.991401  0
C  C106  1  0.01022800  0.16245353  0.16526716  1  -0.078482  0  -0.029075  -0.171039  0  3.938011  0
C  C107  1  0.24065366  0.08717740  0.08515186  1  -0.080906  0  -0.02792  -0.169027  0  3.932887  0
C  C108  1  0.11068514  0.13927411  0.10622665  1  -0.151506  0  -0.028335  -0.060052  0  4.097693  0
C  C109  1  0.14027182  0.11005107  0.14420999  1  -0.162946  0  -0.029042  -0.059797  0  4.097832  0
C  C110  1  0.34637326  0.84981881  0.84772887  1  -0.058322  0  -0.036079  -0.192435  0  3.978669  0
C  C111  1  0.40220842  0.90136486  0.90151405  1  -0.02806  0  -0.010201  -0.00184  0  3.98691  0
C  C112  1  0.30189021  0.92207345  0.86162876  1  0.545858  0  0.096938  0.320111  0  4.053673  0
C  C113  1  0.44660682  0.82967940  0.88794311  1  -0.04092  0  -0.097911  -0.135139  0  4.003296  0
C  C114  1  0.33076255  0.94688961  0.88850570  1  0.016051  0  -0.090893  -0.210214  0  3.905924  0
C  C115  1  0.41845424  0.80488227  0.86139819  1  0.030053  0  -0.080495  -0.061074  0  4.004539  0
C  C116  1  0.40726034  0.44831480  0.85293924  1  -0.053445  0  -0.022653  0.062417  0  3.996217  0
C  C117  1  0.34283219  0.30171776  0.89693271  1  -0.051775  0  -0.022495  0.061653  0  3.993929  0
C  C118  1  0.33902151  0.49142546  0.83607842  1  -0.093702  0  -0.028723  -0.169971  0  3.937707  0
C  C119  1  0.41118011  0.25862413  0.91369013  1  -0.11361  0  -0.027417  -0.16627  0  3.933224  0
C  C120  1  0.34135031  0.37089580  0.87475837  1  -0.102722  0  -0.028542  -0.058945  0  4.096161  0
C  C121  1  0.40870806  0.37916150  0.87509595  1  -0.108462  0  -0.028591  -0.060556  0  4.098987  0
C  C122  1  0.94436881  0.79501563  0.84958455  1  -0.000586  0  -0.02149  0.064231  0  3.992625  0
C  C123  1  0.80500729  0.95435528  0.90047067  1  0.018911  0  -0.022307  0.061618  0  3.99457  0
C  C124  1  0.99108623  0.83325395  0.83613209  1  -0.151692  0  -0.029694  -0.172099  0  3.937217  0
C  C125  1  0.75820219  0.91624748  0.91386067  1  -0.126783  0  -0.027649  -0.168342  0  3.932288  0
C  C126  1  0.87284213  0.91019454  0.87703388  1  -0.127678  0  -0.028464  -0.058396  0  4.095205  0
C  C127  1  0.87650891  0.83907026  0.87302760  1  -0.091245  0  -0.029177  -0.06125  0  4.097821  0
S  S128  1  0.29767075  0.32626275  0.39759901  1  0.313317  0  0.093069  0.155162  0  2.778285  0
S  S129  1  0.45211194  0.42354834  0.35237466  1  0.318425  0  0.096364  0.158796  0  2.774919  0
S  S130  1  0.66136948  0.63297328  0.56218155  1  0.309382  0  0.095248  0.158902  0  2.780023  0
S  S131  1  0.58842429  0.61696031  0.68829615  1  0.304656  0  0.095225  0.158043  0  2.780648  0
S  S132  1  0.13373406  0.16141225  0.56197774  1  0.304043  0  0.093999  0.156405  0  2.776654  0
S  S133  1  0.11692791  0.08781339  0.68816351  1  0.310707  0  0.096619  0.160426  0  2.776584  0
S  S134  1  0.97331698  0.80251918  0.40233414  1  0.300287  0  0.093887  0.157171  0  2.778606  0
S  S135  1  0.77630119  0.94726891  0.34738775  1  0.306269  0  0.095135  0.156863  0  2.779581  0
S  S136  1  0.61713858  0.58783426  0.18800629  1  0.307734  0  0.093517  0.156235  0  2.778309  0
S  S137  1  0.63268628  0.66247753  0.06191494  1  0.310556  0  0.094127  0.156174  0  2.77679  0
S  S138  1  0.01281987  0.18270544  0.11181043  1  0.369422  0  0.094983  0.157555  0  2.780262  0
S  S139  1  0.23816963  0.06673138  0.13858312  1  0.34824  0  0.093594  0.155513  0  2.780204  0
S  S140  1  0.27652681  0.44731091  0.84741763  1  0.295467  0  0.092478  0.154176  0  2.781025  0
S  S141  1  0.47358635  0.30277349  0.90239508  1  0.304335  0  0.094739  0.156831  0  2.781114  0
S  S142  1  0.95191808  0.92319899  0.85228382  1  0.299879  0  0.093875  0.156182  0  2.779173  0
S  S143  1  0.79729378  0.82624571  0.89780027  1  0.299155  0  0.093254  0.155089  0  2.777337  0
Br  Br144  1  0.28651179  0.55150288  0.41102709  1  0.014669  0  0.052501  -0.000421  0  1.393377  0
Br  Br145  1  0.46379315  0.19791367  0.33947113  1  0.011192  0  0.049019  -0.004961  0  1.391873  0
Br  Br146  1  0.79437371  0.52800412  0.66978644  1  0.018525  0  0.048802  -0.006079  0  1.400724  0
Br  Br147  1  0.45550634  0.72177793  0.58061155  1  0.019944  0  0.050865  -0.003392  0  1.400943  0
Br  Br148  1  0.02867499  0.29278459  0.66938568  1  0.008979  0  0.049207  -0.005635  0  1.400782  0
Br  Br149  1  0.22153232  0.95609607  0.58086521  1  0.015516  0  0.04985  -0.004566  0  1.401408  0
Br  Br150  1  0.75955133  0.77653577  0.40081400  1  0.018128  0  0.053215  0.000565  0  1.391384  0
Br  Br151  1  0.99027383  0.97306099  0.34862293  1  0.013963  0  0.048905  -0.005758  0  1.401273  0
Br  Br152  1  0.72070862  0.45698033  0.08036709  1  0.011568  0  0.050913  -0.002235  0  1.391625  0
Br  Br153  1  0.52880562  0.79319074  0.16956241  1  0.007542  0  0.04783  -0.006522  0  1.390404  0
Br  Br154  1  0.10709308  0.08973415  0.23228358  1  0.010887  0  0.045792  -0.009362  0  1.401916  0
Br  Br155  1  0.14386375  0.15994763  0.01816223  1  0.020243  0  0.050232  -0.004215  0  1.403523  0
Br  Br156  1  0.49042247  0.47321136  0.84865134  1  0.010671  0  0.048499  -0.005597  0  1.390785  0
Br  Br157  1  0.25968114  0.27675660  0.90137685  1  0.012815  0  0.048578  -0.005838  0  1.402763  0
Br  Br158  1  0.96354174  0.69742235  0.83965867  1  0.01051  0  0.047581  -0.006804  0  1.389799  0
Br  Br159  1  0.78622786  0.05175143  0.91043918  1  0.013799  0  0.051136  -0.00259  0  1.392801  0
O  O160  1  0.00062251  0.49872165  0.49985080  1  -1.230093  0  -0.5709  -1.027584  0  2.528782  0
O  O161  1  0.07798103  0.31474725  0.52287480  1  -1.170416  0  -0.31921  -0.544846  0  2.31898  0
O  O162  1  0.03244378  0.53161900  0.58492356  1  -1.168805  0  -0.308722  -0.531904  0  2.34985  0
O  O163  1  0.15486870  0.50573173  0.45034601  1  -1.171596  0  -0.316342  -0.542705  0  2.390132  0
O  O164  1  0.02753209  0.37509667  0.58060707  1  -1.174653  0  -0.314433  -0.539395  0  2.391766  0
O  O165  1  0.15380894  0.39191909  0.44610895  1  -1.175666  0  -0.319067  -0.54413  0  2.321432  0
O  O166  1  0.08545951  0.58702939  0.52982499  1  -1.147192  0  -0.311086  -0.559067  0  2.366635  0
O  O167  1  0.00318007  0.65860056  0.45018148  1  -1.166372  0  -0.319783  -0.543238  0  2.328757  0
O  O168  1  0.88591764  0.49668694  0.44242436  1  -1.176059  0  -0.311956  -0.559233  0  2.369732  0
O  O169  1  0.89152362  0.65112191  0.44700806  1  -1.17682  0  -0.315583  -0.543021  0  2.384769  0
O  O170  1  0.99517538  0.38807384  0.44192577  1  -1.179703  0  -0.308878  -0.534841  0  2.335633  0
O  O171  1  0.87628803  0.52685885  0.58082655  1  -1.161009  0  -0.313965  -0.539381  0  2.38696  0
O  O172  1  0.81448438  0.57620318  0.52324827  1  -1.163302  0  -0.320867  -0.544809  0  2.326082  0
O  O173  1  0.74916106  0.25097892  0.25052922  1  -1.231549  0  -0.570351  -1.028189  0  2.522851  0
O  O174  1  0.59535289  0.35838869  0.30359830  1  -1.173775  0  -0.316893  -0.540804  0  2.321787  0
O  O175  1  0.66629957  0.16356762  0.21857674  1  -1.171002  0  -0.309655  -0.53473  0  2.339754  0
O  O176  1  0.72511659  0.37409595  0.16940702  1  -1.166123  0  -0.316812  -0.543167  0  2.38353  0
O  O177  1  0.59490400  0.24425889  0.29947609  1  -1.172878  0  -0.314387  -0.5405  0  2.383087  0
O  O178  1  0.67236072  0.43482839  0.22690579  1  -1.165814  0  -0.318004  -0.543109  0  2.321929  0
O  O179  1  0.72107750  0.21859175  0.16416259  1  -1.166192  0  -0.310632  -0.558633  0  2.365105  0
O  O180  1  0.87750514  0.22212501  0.16891887  1  -1.168308  0  -0.32052  -0.544305  0  2.323054  0
O  O181  1  0.86256502  0.25538242  0.30903155  1  -1.171622  0  -0.312308  -0.540793  0  2.347072  0
O  O182  1  0.93294492  0.17492188  0.22861949  1  -1.139877  0  -0.313772  -0.538587  0  2.385513  0
O  O183  1  0.75285853  0.36387008  0.30828474  1  -1.172752  0  -0.312524  -0.54511  0  2.337482  0
O  O184  1  0.74621775  0.09166313  0.29979254  1  -1.1643  0  -0.318224  -0.541688  0  2.324687  0
O  O185  1  0.85722742  0.09952938  0.30414511  1  -1.167013  0  -0.312702  -0.535799  0  2.386918  0
O  O186  1  0.24938151  0.74976843  0.75036356  1  -1.228039  0  -0.570631  -1.028682  0  2.525507  0
O  O187  1  0.37383081  0.72394035  0.66944890  1  -1.161311  0  -0.312954  -0.53627  0  2.389384  0
O  O188  1  0.36167677  0.75611687  0.80782674  1  -1.1788  0  -0.310267  -0.535562  0  2.341205  0
O  O189  1  0.17209004  0.93462584  0.72731635  1  -1.171549  0  -0.320051  -0.54482  0  2.319041  0
O  O190  1  0.43512234  0.67413468  0.72722179  1  -1.169737  0  -0.317583  -0.541807  0  2.32256  0
O  O191  1  0.22276858  0.87422442  0.66964266  1  -1.168662  0  -0.31356  -0.537152  0  2.390342  0
O  O192  1  0.25181883  0.86411973  0.80787545  1  -1.175611  0  -0.310889  -0.560543  0  2.358503  0
O  O193  1  0.09534050  0.85781186  0.80374714  1  -1.168525  0  -0.321181  -0.545343  0  2.323339  0
O  O194  1  0.16498685  0.66242624  0.71889861  1  -1.171228  0  -0.310474  -0.540759  0  2.335915  0
O  O195  1  0.09450711  0.74406150  0.79919096  1  -1.172401  0  -0.313912  -0.539488  0  2.384256  0
O  O196  1  0.21825231  0.71869415  0.66418387  1  -1.169786  0  -0.312565  -0.542014  0  2.353165  0
O  O197  1  0.35819218  0.59879453  0.80288011  1  -1.170762  0  -0.314914  -0.541885  0  2.384275  0
O  O198  1  0.24647884  0.59126414  0.79970081  1  -1.167332  0  -0.318644  -0.541886  0  2.32951  0
O  O199  1  0.50098226  0.99908478  0.00003716  1  -1.227548  0  -0.570113  -1.029679  0  2.518213  0
O  O200  1  0.50369249  0.15858245  0.95012962  1  -1.166475  0  -0.317914  -0.5408  0  2.323559  0
O  O201  1  0.38776890  0.99501373  0.94120337  1  -1.173321  0  -0.312512  -0.541889  0  2.350635  0
O  O202  1  0.65380713  0.89196336  0.94625028  1  -1.174332  0  -0.318952  -0.542977  0  2.320226  0
O  O203  1  0.39241500  0.15085080  0.94625968  1  -1.166853  0  -0.313488  -0.536012  0  2.385972  0
O  O204  1  0.65459616  0.00599481  0.95029751  1  -1.169263  0  -0.313754  -0.538441  0  2.383412  0
O  O205  1  0.49704561  0.88616831  0.94146883  1  -1.170344  0  -0.312208  -0.543428  0  2.32915  0
O  O206  1  0.57748977  0.81535856  0.02303868  1  -1.165023  0  -0.318322  -0.542663  0  2.319705  0
O  O207  1  0.53021949  0.03263551  0.08608810  1  -1.161559  0  -0.311905  -0.54244  0  2.335087  0
O  O208  1  0.52571759  0.87616352  0.08058297  1  -1.164074  0  -0.313677  -0.539254  0  2.379884  0
O  O209  1  0.58490444  0.08678105  0.03101709  1  -1.175985  0  -0.312462  -0.543794  0  2.342366  0
O  O210  1  0.31761563  0.07529798  0.02177201  1  -1.138687  0  -0.313401  -0.537133  0  2.386474  0
O  O211  1  0.37338745  0.02769668  0.08138530  1  -1.166517  0  -0.318774  -0.543054  0  2.322125  0
O  O212  1  0.78119490  0.51825080  0.39931338  1  -1.148473  0  -0.355194  -0.442862  0  2.247386  0
O  O213  1  0.16015813  0.65995888  0.54093242  1  -1.140829  0  -0.355207  -0.442256  0  2.246521  0
O  O214  1  0.70900109  0.20877055  0.09019452  1  -1.140697  0  -0.355732  -0.443096  0  2.245296  0
O  O215  1  0.23233982  0.96877447  0.85020991  1  -1.151486  0  -0.355305  -0.442146  0  2.242554  0
