# generated using pymatgen
data_CaH8C2(N4O3)2
_symmetry_space_group_name_H-M   'P 1'
_cell_length_a   5.57790100
_cell_length_b   6.47720174
_cell_length_c   14.81951787
_cell_angle_alpha   81.24904959
_cell_angle_beta   79.17098488
_cell_angle_gamma   64.49356994
_symmetry_Int_Tables_number   1
_chemical_formula_structural   CaH8C2(N4O3)2
_chemical_formula_sum   'Ca2 H16 C4 N16 O12'
_cell_volume   473.09346205
_cell_formula_units_Z   2
loop_
 _symmetry_equiv_pos_site_id
 _symmetry_equiv_pos_as_xyz
  1  'x, y, z'
loop_
 _atom_site_type_symbol
 _atom_site_label
 _atom_site_symmetry_multiplicity
 _atom_site_fract_x
 _atom_site_fract_y
 _atom_site_fract_z
 _atom_site_occupancy
 _atom_site_hle17_bader_spin_density
 _atom_site_hle17_ddec_charge
 _atom_site_hle17_ddec_spin_density
 _atom_site_hle17_ddec_sum_bond_order
 _atom_site_hle17_magmom
 _atom_site_hse06_10hf_bader_spin_density
 _atom_site_hse06_10hf_ddec_charge
 _atom_site_hse06_10hf_ddec_spin_density
 _atom_site_hse06_10hf_ddec_sum_bond_order
 _atom_site_hse06_10hf_magmom
 _atom_site_hse06_bader_spin_density
 _atom_site_hse06_ddec_charge
 _atom_site_hse06_ddec_spin_density
 _atom_site_hse06_ddec_sum_bond_order
 _atom_site_hse06_magmom
 _atom_site_pbe_bader_spin_density
 _atom_site_pbe_cm5_charge
 _atom_site_pbe_ddec_charge
 _atom_site_pbe_ddec_spin_density
 _atom_site_pbe_ddec_sum_bond_order
 _atom_site_pbe_magmom
Ca  Ca0  1  0.52288192  0.74986812  0.75000183  1  0  1.546419  0  1.102453  0  0  1.404941  0  1.460066  0  0  1.443627  0  1.418655  0  0  0.858862  1.375767  0  1.489438  0
Ca  Ca1  1  0.47711873  0.25013275  0.24999835  1  0  1.546465  0  1.102402  0  0  1.404936  0  1.460095  0  0  1.443611  0  1.418694  0  0  0.858895  1.375763  0  1.489466  0
H  H2  1  0.99013355  0.92120753  0.87940134  1  0  0.394065  0  0.922172  0  0  0.351228  0  1.007183  0  0  0.362197  0  0.991063  0  0  0.29204  0.34346  0  1.018573  0
H  H3  1  0.29056176  0.57872529  0.62059858  1  0  0.393069  0  0.923501  0  0  0.350304  0  1.008418  0  0  0.361282  0  0.992326  0  0  0.291575  0.342531  0  1.019784  0
H  H4  1  0.00986735  0.07879497  0.12059595  1  0  0.394116  0  0.922129  0  0  0.351268  0  1.007151  0  0  0.362238  0  0.991031  0  0  0.292054  0.343499  0  1.018541  0
H  H5  1  0.70944050  0.42128071  0.37940099  1  0  0.393035  0  0.923562  0  0  0.350268  0  1.008483  0  0  0.361246  0  0.99239  0  0  0.291571  0.342495  0  1.019849  0
H  H6  1  0.04368490  0.31081639  0.71999016  1  0  0.42338  0  0.876869  0  0  0.390614  0  0.944147  0  0  0.401428  0  0.928287  0  0  0.302747  0.382938  0  0.955412  0
H  H7  1  0.57475776  0.18886641  0.77993574  1  0  0.423863  0  0.876448  0  0  0.390858  0  0.944007  0  0  0.401722  0  0.928083  0  0  0.302897  0.383168  0  0.955278  0
H  H8  1  0.95631831  0.68918620  0.28001022  1  0  0.423396  0  0.876852  0  0  0.390622  0  0.944143  0  0  0.401434  0  0.928285  0  0  0.302734  0.382946  0  0.955409  0
H  H9  1  0.42524646  0.81113620  0.22006544  1  0  0.423884  0  0.876405  0  0  0.390892  0  0.943944  0  0  0.401756  0  0.928022  0  0  0.302909  0.383203  0  0.955214  0
H  H10  1  0.10145786  0.45720035  0.78150163  1  0  0.42436  0  0.868426  0  0  0.393027  0  0.936169  0  0  0.403639  0  0.920661  0  0  0.306806  0.385472  0  0.947209  0
H  H11  1  0.84026538  0.04263538  0.71834509  1  0  0.423529  0  0.870216  0  0  0.392251  0  0.937276  0  0  0.402851  0  0.921796  0  0  0.306369  0.384692  0  0.948314  0
H  H12  1  0.89854981  0.54280216  0.21849618  1  0  0.424435  0  0.868345  0  0  0.393098  0  0.936077  0  0  0.403708  0  0.920571  0  0  0.306836  0.385543  0  0.947116  0
H  H13  1  0.15973652  0.95736715  0.28165301  1  0  0.423547  0  0.870173  0  0  0.392264  0  0.93726  0  0  0.402863  0  0.921779  0  0  0.306389  0.384705  0  0.948298  0
H  H14  1  0.14268653  0.07285152  0.89111676  1  0  0.394079  0  0.916881  0  0  0.354723  0  0.995856  0  0  0.364802  0  0.981024  0  0  0.292316  0.347567  0  1.006374  0
H  H15  1  0.60646431  0.42712118  0.60891111  1  0  0.394197  0  0.917255  0  0  0.354764  0  0.996085  0  0  0.364863  0  0.981261  0  0  0.292673  0.347597  0  1.006591  0
H  H16  1  0.85732009  0.92714753  0.10888025  1  0  0.39401  0  0.91696  0  0  0.354655  0  0.995934  0  0  0.364733  0  0.981106  0  0  0.292287  0.347498  0  1.006454  0
H  H17  1  0.39353721  0.57288141  0.39108913  1  0  0.393995  0  0.917505  0  0  0.35457  0  0.996344  0  0  0.364671  0  0.981517  0  0  0.292596  0.347404  0  1.006849  0
C  C18  1  0.42962944  0.42866709  0.00271038  1  0  0.15248  0  3.743994  0  0  0.120691  0  4.029807  0  0  0.129841  0  4.040082  0  0  0.232727  0.114532  0  4.023198  0
C  C19  1  0.36103070  0.07135248  0.49728704  1  0  0.153312  0  3.744727  0  0  0.121512  0  4.030582  0  0  0.130698  0  4.040759  0  0  0.232993  0.115265  0  4.02415  0
C  C20  1  0.57034454  0.57131870  0.99730226  1  0  0.152787  0  3.743883  0  0  0.121284  0  4.029415  0  0  0.13044  0  4.039678  0  0  0.232889  0.115123  0  4.022806  0
C  C21  1  0.63897655  0.92864666  0.50271293  1  0  0.153401  0  3.744698  0  0  0.12157  0  4.030555  0  0  0.130746  0  4.040743  0  0  0.23306  0.115369  0  4.024085  0
N  N22  1  0.22035678  0.24456982  0.96239240  1  0  -0.16755  0  2.904063  0  0  -0.154723  0  3.191501  0  0  -0.155535  0  3.200083  0  0  -0.078412  -0.154064  0  3.186111  0
N  N23  1  0.92734813  0.25533021  0.53752527  1  0  -0.166327  0  2.902467  0  0  -0.154955  0  3.191401  0  0  -0.155739  0  3.200012  0  0  -0.078725  -0.154304  0  3.185979  0
N  N24  1  0.77964410  0.75541577  0.03761361  1  0  -0.167522  0  2.90426  0  0  -0.154629  0  3.19168  0  0  -0.155449  0  3.200263  0  0  -0.078409  -0.153962  0  3.186285  0
N  N25  1  0.07265660  0.74467064  0.46247450  1  0  -0.166135  0  2.902359  0  0  -0.154777  0  3.191314  0  0  -0.15556  0  3.199924  0  0  -0.07866  -0.154129  0  3.185895  0
N  N26  1  0.35171741  0.31863331  0.07904114  1  0  -0.300763  0  3.06293  0  0  -0.277898  0  3.361642  0  0  -0.286217  0  3.372147  0  0  -0.21834  -0.272069  0  3.354488  0
N  N27  1  0.24945831  0.18151967  0.42096838  1  0  -0.301014  0  3.064704  0  0  -0.277923  0  3.363032  0  0  -0.286243  0  3.373493  0  0  -0.218365  -0.272079  0  3.355927  0
N  N28  1  0.64825630  0.68135587  0.92097002  1  0  -0.300953  0  3.062801  0  0  -0.278161  0  3.361522  0  0  -0.286475  0  3.372012  0  0  -0.218391  -0.272333  0  3.354373  0
N  N29  1  0.75054473  0.81848118  0.57903125  1  0  -0.301018  0  3.064739  0  0  -0.277924  0  3.363087  0  0  -0.286241  0  3.37355  0  0  -0.218403  -0.272088  0  3.355967  0
N  N30  1  0.22561816  0.20893350  0.05192675  1  0  -0.053703  0  3.072473  0  0  -0.0376  0  3.375005  0  0  -0.037526  0  3.384438  0  0  -0.067513  -0.037446  0  3.368709  0
N  N31  1  0.98655803  0.29115167  0.44801812  1  0  -0.054073  0  3.07238  0  0  -0.037561  0  3.374963  0  0  -0.037505  0  3.384395  0  0  -0.067226  -0.037379  0  3.368648  0
N  N32  1  0.77436835  0.79105377  0.94807814  1  0  -0.05376  0  3.072396  0  0  -0.03774  0  3.375021  0  0  -0.037661  0  3.384449  0  0  -0.067579  -0.037589  0  3.368724  0
N  N33  1  0.01344519  0.70885092  0.55198225  1  0  -0.054131  0  3.072368  0  0  -0.037609  0  3.374953  0  0  -0.037554  0  3.384384  0  0  -0.06722  -0.037425  0  3.368639  0
N  N34  1  0.34866941  0.38156995  0.92963945  1  0  0.280899  0  3.711553  0  0  0.31238  0  3.999629  0  0  0.313815  0  4.019373  0  0  -0.003987  0.310755  0  3.98647  0
N  N35  1  0.15988380  0.11829036  0.57027248  1  0  0.279712  0  3.71409  0  0  0.311632  0  4.002092  0  0  0.313048  0  4.021855  0  0  -0.004413  0.310036  0  3.98892  0
N  N36  1  0.65133341  0.61842572  0.07035944  1  0  0.280783  0  3.712145  0  0  0.312171  0  4.000174  0  0  0.313606  0  4.019926  0  0  -0.00408  0.310546  0  3.987013  0
N  N37  1  0.84012100  0.88171038  0.42972366  1  0  0.279678  0  3.713839  0  0  0.311601  0  4.001866  0  0  0.313017  0  4.021626  0  0  -0.004375  0.309992  0  3.988693  0
O  O38  1  0.96527973  0.46055403  0.74685006  1  0  -0.878637  0  1.847589  0  0  -0.824874  0  2.043375  0  0  -0.845003  0  2.011108  0  0  -0.63247  -0.810347  0  2.065961  0
O  O39  1  0.67293305  0.03918248  0.75302879  1  0  -0.878391  0  1.8486  0  0  -0.824207  0  2.044019  0  0  -0.844376  0  2.01166  0  0  -0.632205  -0.809654  0  2.066649  0
O  O40  1  0.03472807  0.53944679  0.25314849  1  0  -0.878732  0  1.847504  0  0  -0.824963  0  2.043293  0  0  -0.845095  0  2.011028  0  0  -0.632478  -0.81044  0  2.065875  0
O  O41  1  0.32706972  0.96082176  0.24696937  1  0  -0.878383  0  1.848508  0  0  -0.82422  0  2.043943  0  0  -0.844395  0  2.011587  0  0  -0.632233  -0.809669  0  2.066572  0
O  O42  1  0.37968956  0.44464297  0.84178411  1  0  -0.562405  0  1.874644  0  0  -0.508574  0  2.100863  0  0  -0.532677  0  2.099272  0  0  -0.218826  -0.491193  0  2.101624  0
O  O43  1  0.16601364  0.05510127  0.65808860  1  0  -0.562451  0  1.877093  0  0  -0.508584  0  2.103003  0  0  -0.532694  0  2.101509  0  0  -0.218764  -0.491185  0  2.103701  0
O  O44  1  0.62032441  0.55536623  0.15820766  1  0  -0.562442  0  1.874969  0  0  -0.508587  0  2.101196  0  0  -0.532694  0  2.099613  0  0  -0.218812  -0.491206  0  2.10195  0
O  O45  1  0.83399158  0.94490285  0.34190539  1  0  -0.562615  0  1.877191  0  0  -0.508648  0  2.102963  0  0  -0.532763  0  2.101473  0  0  -0.218836  -0.491249  0  2.103669  0
O  O46  1  0.13337392  0.97135316  0.84987464  1  0  -0.879435  0  1.935052  0  0  -0.821626  0  2.138294  0  0  -0.840767  0  2.107381  0  0  -0.636449  -0.807648  0  2.159752  0
O  O47  1  0.45443593  0.52847517  0.65017806  1  0  -0.878629  0  1.936425  0  0  -0.820437  0  2.140021  0  0  -0.839577  0  2.108779  0  0  -0.636345  -0.806467  0  2.161726  0
O  O48  1  0.86662181  0.02865446  0.15012152  1  0  -0.879416  0  1.934992  0  0  -0.821659  0  2.138348  0  0  -0.840755  0  2.107346  0  0  -0.636439  -0.80769  0  2.159833  0
O  O49  1  0.54556811  0.47152570  0.34982238  1  0  -0.87841  0  1.93666  0  0  -0.820245  0  2.140214  0  0  -0.83938  0  2.108962  0  0  -0.636273  -0.806254  0  2.161869  0
