# generated using pymatgen
data_Dy2AgH16C22N3O16
_symmetry_space_group_name_H-M   'P 1'
_cell_length_a   11.26391170
_cell_length_b   11.44844665
_cell_length_c   12.51625566
_cell_angle_alpha   102.79892320
_cell_angle_beta   114.79358458
_cell_angle_gamma   102.32417682
_symmetry_Int_Tables_number   1
_chemical_formula_structural   Dy2AgH16C22N3O16
_chemical_formula_sum   'Dy4 Ag2 H32 C44 N6 O32'
_cell_volume   1340.56860621
_cell_formula_units_Z   2
loop_
 _symmetry_equiv_pos_site_id
 _symmetry_equiv_pos_as_xyz
  1  'x, y, z'
loop_
 _atom_site_type_symbol
 _atom_site_label
 _atom_site_symmetry_multiplicity
 _atom_site_fract_x
 _atom_site_fract_y
 _atom_site_fract_z
 _atom_site_occupancy
 _atom_site_hle17_bader_spin_density
 _atom_site_hle17_ddec_charge
 _atom_site_hle17_ddec_spin_density
 _atom_site_hle17_ddec_sum_bond_order
 _atom_site_hle17_magmom
 _atom_site_hse06_10hf_bader_spin_density
 _atom_site_hse06_10hf_ddec_charge
 _atom_site_hse06_10hf_ddec_spin_density
 _atom_site_hse06_10hf_ddec_sum_bond_order
 _atom_site_hse06_10hf_magmom
 _atom_site_hse06_bader_spin_density
 _atom_site_hse06_ddec_charge
 _atom_site_hse06_ddec_spin_density
 _atom_site_hse06_ddec_sum_bond_order
 _atom_site_hse06_magmom
 _atom_site_pbe_bader_spin_density
 _atom_site_pbe_cm5_charge
 _atom_site_pbe_ddec_charge
 _atom_site_pbe_ddec_spin_density
 _atom_site_pbe_ddec_sum_bond_order
 _atom_site_pbe_magmom
Dy  Dy0  1  0.74720844  0.49331789  0.88547949  1  0  2.282042  0  1.665063  0  0  2.136385  0  2.144782  0  0  2.260428  0  1.956129  0  0  1.524305  2.102624  0  2.174036  0
Dy  Dy1  1  0.25279421  0.50668431  0.11452222  1  0  2.282022  0  1.665141  0  0  2.136288  0  2.144991  0  0  2.260405  0  1.956214  0  0  1.524358  2.102587  0  2.174155  0
Dy  Dy2  1  0.23824037  0.47916149  0.60444042  1  0  2.275522  0  1.615122  0  0  2.122629  0  2.097412  0  0  2.254466  0  1.89788  0  0  1.50744  2.08836  0  2.126317  0
Dy  Dy3  1  0.76175739  0.52084073  0.39555865  1  0  2.275548  0  1.615056  0  0  2.122635  0  2.09739  0  0  2.254492  0  1.897805  0  0  1.507485  2.088387  0  2.12625  0
Ag  Ag4  1  0.91144659  0.26879404  0.18707636  1  0  0.645597  0  1.274217  0  0  0.512708  0  1.690184  0  0  0.550074  0  1.639247  0  0  0.489815  0.488129  0  1.725419  0
Ag  Ag5  1  0.08855632  0.73120626  0.81292266  1  0  0.645606  0  1.274216  0  0  0.512699  0  1.690221  0  0  0.550065  0  1.639283  0  0  0.489806  0.488118  0  1.725457  0
H  H6  1  0.42012925  0.07398359  0.46849521  1  0  0.076127  0  0.92826  0  0  0.086442  0  0.989891  0  0  0.088937  0  0.98826  0  0  0.115889  0.084566  0  0.991265  0
H  H7  1  0.57987032  0.92602338  0.53150792  1  0  0.076159  0  0.928121  0  0  0.086481  0  0.989754  0  0  0.088977  0  0.988122  0  0  0.115907  0.084604  0  0.991131  0
H  H8  1  0.32957865  0.84213877  0.32943300  1  0  0.12046  0  0.941488  0  0  0.127042  0  1.00617  0  0  0.131249  0  1.003463  0  0  0.115424  0.123961  0  1.008331  0
H  H9  1  0.67042386  0.15786821  0.67056965  1  0  0.120465  0  0.941497  0  0  0.127052  0  1.006188  0  0  0.131258  0  1.003483  0  0  0.115434  0.123973  0  1.008345  0
H  H10  1  0.92395805  0.87319013  0.15082856  1  0  0.118269  0  0.952815  0  0  0.126032  0  1.014113  0  0  0.129153  0  1.013906  0  0  0.111792  0.123837  0  1.014216  0
H  H11  1  0.07604068  0.12681207  0.84917407  1  0  0.118251  0  0.95284  0  0  0.125992  0  1.014164  0  0  0.129111  0  1.01396  0  0  0.111785  0.123798  0  1.014267  0
H  H12  1  0.02997537  0.10323536  0.29715729  1  0  0.063153  0  0.971464  0  0  0.062161  0  1.059988  0  0  0.066241  0  1.054993  0  0  0.104433  0.059023  0  1.063956  0
H  H13  1  0.97002239  0.89676685  0.70284417  1  0  0.063162  0  0.971541  0  0  0.062171  0  1.060061  0  0  0.066252  0  1.055067  0  0  0.104427  0.059035  0  1.064029  0
H  H14  1  0.45671015  0.99535167  0.25501133  1  0  0.067325  0  0.95822  0  0  0.075366  0  1.023211  0  0  0.077057  0  1.02375  0  0  0.107684  0.073957  0  1.023234  0
H  H15  1  0.54328594  0.00464100  0.74498514  1  0  0.067271  0  0.958137  0  0  0.075303  0  1.023147  0  0  0.076994  0  1.023687  0  0  0.10763  0.073895  0  1.023172  0
H  H16  1  0.62715221  0.21976637  0.36593043  1  0  0.127833  0  0.979468  0  0  0.132534  0  1.04442  0  0  0.136533  0  1.042701  0  0  0.115591  0.129436  0  1.046326  0
H  H17  1  0.37284033  0.78022726  0.63406409  1  0  0.12782  0  0.979492  0  0  0.132524  0  1.044447  0  0  0.136524  0  1.042727  0  0  0.11557  0.129425  0  1.046355  0
H  H18  1  0.95707280  0.06358593  0.44928777  1  0  0.106265  0  0.967266  0  0  0.115837  0  1.029609  0  0  0.11906  0  1.028432  0  0  0.107847  0.113445  0  1.030683  0
H  H19  1  0.04292520  0.93641435  0.55071498  1  0  0.106242  0  0.96724  0  0  0.115852  0  1.02955  0  0  0.119075  0  1.028369  0  0  0.10787  0.113459  0  1.030624  0
H  H20  1  0.77250724  0.84291236  0.33700596  1  0  0.096811  0  0.929233  0  0  0.103681  0  0.99254  0  0  0.107401  0  0.989264  0  0  0.123746  0.100955  0  0.994988  0
H  H21  1  0.22749394  0.15708601  0.66299760  1  0  0.096791  0  0.929332  0  0  0.103692  0  0.9926  0  0  0.107388  0  0.989356  0  0  0.123777  0.101  0  0.995011  0
H  H22  1  0.91926308  0.06844468  0.98183507  1  0  0.074721  0  0.953925  0  0  0.08387  0  1.020635  0  0  0.085624  0  1.019797  0  0  0.11443  0.082462  0  1.021477  0
H  H23  1  0.08073679  0.93155277  0.01816142  1  0  0.074695  0  0.953958  0  0  0.083832  0  1.020668  0  0  0.085602  0  1.019812  0  0  0.114433  0.082421  0  1.02151  0
H  H24  1  0.78843330  0.83789475  0.84178411  1  0  0.122183  0  0.933294  0  0  0.132359  0  0.991941  0  0  0.135742  0  0.990778  0  0  0.118218  0.129865  0  0.992942  0
H  H25  1  0.21156400  0.16210366  0.15821160  1  0  0.122142  0  0.933197  0  0  0.132305  0  0.991869  0  0  0.135688  0  0.990703  0  0  0.118175  0.129808  0  0.992872  0
H  H26  1  0.51237909  0.83026987  0.99825357  1  0  0.127107  0  0.920168  0  0  0.138224  0  0.975273  0  0  0.142107  0  0.972914  0  0  0.119882  0.135484  0  0.976815  0
H  H27  1  0.48762211  0.16972851  0.00174601  1  0  0.127098  0  0.920161  0  0  0.138194  0  0.975281  0  0  0.142078  0  0.972923  0  0  0.119893  0.135454  0  0.976823  0
H  H28  1  0.65860265  0.05819436  0.13763532  1  0  0.069804  0  0.974148  0  0  0.076601  0  1.045779  0  0  0.077926  0  1.046033  0  0  0.112128  0.075502  0  1.045888  0
H  H29  1  0.34139989  0.94180498  0.86236497  1  0  0.069788  0  0.974085  0  0  0.076586  0  1.045722  0  0  0.07791  0  1.045977  0  0  0.11213  0.075486  0  1.045834  0
H  H30  1  0.44718729  0.35633721  0.59372565  1  0  0.444407  0  0.851526  0  0  0.414826  0  0.912523  0  0  0.42634  0  0.895786  0  0  0.30171  0.40684  0  0.92432  0
H  H31  1  0.55281206  0.64366404  0.40627621  1  0  0.444418  0  0.851507  0  0  0.414839  0  0.912499  0  0  0.426351  0  0.895764  0  0  0.301706  0.406847  0  0.924307  0
H  H32  1  0.29803410  0.24896485  0.49292736  1  0  0.39969  0  0.917052  0  0  0.357207  0  0.999516  0  0  0.369297  0  0.982406  0  0  0.285005  0.34898  0  1.011257  0
H  H33  1  0.70196366  0.75103736  0.50707330  1  0  0.399649  0  0.917096  0  0  0.357157  0  0.999585  0  0  0.369246  0  0.982477  0  0  0.284967  0.348929  0  1.011326  0
H  H34  1  0.49893599  0.24347383  0.78691268  1  0  0.398561  0  0.918009  0  0  0.357588  0  0.997879  0  0  0.36983  0  0.98042  0  0  0.284748  0.349327  0  1.00971  0
H  H35  1  0.50106618  0.75652455  0.21308727  1  0  0.398564  0  0.91801  0  0  0.357594  0  0.997866  0  0  0.369836  0  0.980408  0  0  0.284741  0.349335  0  1.009695  0
H  H36  1  0.46091002  0.36588929  0.82182758  1  0  0.44163  0  0.85702  0  0  0.411467  0  0.919247  0  0  0.423111  0  0.902448  0  0  0.300209  0.403296  0  0.931215  0
H  H37  1  0.53909386  0.63411101  0.17817261  1  0  0.441721  0  0.856897  0  0  0.411592  0  0.919082  0  0  0.423236  0  0.90228  0  0  0.300239  0.40342  0  0.931052  0
C  C38  1  0.31059907  0.02558229  0.39682789  1  0  0.112064  0  3.731537  0  0  0.081207  0  3.993739  0  0  0.085621  0  4.012313  0  0  0.043642  0.078264  0  3.981233  0
C  C39  1  0.68940209  0.97442372  0.60317644  1  0  0.111963  0  3.731481  0  0  0.081105  0  3.993703  0  0  0.085519  0  4.012277  0  0  0.043595  0.078162  0  3.981198  0
C  C40  1  0.26122927  0.89831842  0.31990553  1  0  -0.127945  0  3.7109  0  0  -0.151332  0  3.964257  0  0  -0.155955  0  3.984819  0  0  -0.075743  -0.147996  0  3.950239  0
C  C41  1  0.73877323  0.10168855  0.68009792  1  0  -0.127927  0  3.710806  0  0  -0.151362  0  3.964143  0  0  -0.155988  0  3.984705  0  0  -0.075776  -0.148023  0  3.950125  0
C  C42  1  0.12056599  0.84236774  0.22775326  1  0  -0.013419  0  3.700557  0  0  0.005378  0  3.925959  0  0  0.002818  0  3.944481  0  0  0.005942  0.007278  0  3.912051  0
C  C43  1  0.87943542  0.15763637  0.77224918  1  0  -0.013407  0  3.700401  0  0  0.005492  0  3.925704  0  0  0.002942  0  3.944223  0  0  0.005992  0.007391  0  3.911796  0
C  C44  1  0.03435890  0.91547163  0.22030521  1  0  -0.128048  0  3.708415  0  0  -0.147245  0  3.949611  0  0  -0.152126  0  3.971454  0  0  -0.078711  -0.143488  0  3.934276  0
C  C45  1  0.96564276  0.08453056  0.77969773  1  0  -0.128057  0  3.708375  0  0  -0.147262  0  3.94955  0  0  -0.152141  0  3.97139  0  0  -0.078749  -0.14351  0  3.93422  0
C  C46  1  0.09289329  0.04195623  0.30141768  1  0  0.109953  0  3.732227  0  0  0.083604  0  3.98874  0  0  0.087236  0  4.007294  0  0  0.044056  0.081193  0  3.976543  0
C  C47  1  0.90710715  0.95804787  0.69858598  1  0  0.109907  0  3.732186  0  0  0.083562  0  3.988692  0  0  0.087192  0  4.007245  0  0  0.044079  0.081152  0  3.976498  0
C  C48  1  0.06428343  0.70775574  0.13517381  1  0  0.729787  0  3.850043  0  0  0.687011  0  4.133408  0  0  0.723449  0  4.123691  0  0  0.244215  0.662924  0  4.141376  0
C  C49  1  0.93572666  0.29224548  0.86483292  1  0  0.729835  0  3.849804  0  0  0.687007  0  4.133222  0  0  0.723428  0  4.123527  0  0  0.24412  0.662925  0  4.141184  0
C  C50  1  0.56879950  0.01410660  0.30025665  1  0  0.098308  0  3.749314  0  0  0.071918  0  4.006001  0  0  0.075768  0  4.024689  0  0  0.041514  0.069564  0  3.993312  0
C  C51  1  0.43119730  0.98588797  0.69974207  1  0  0.098316  0  3.749177  0  0  0.071939  0  4.005853  0  0  0.07579  0  4.024541  0  0  0.041549  0.069586  0  3.993161  0
C  C52  1  0.66315400  0.13877348  0.36119562  1  0  -0.123707  0  3.701139  0  0  -0.14561  0  3.949013  0  0  -0.149823  0  3.968559  0  0  -0.07691  -0.142599  0  3.935557  0
C  C53  1  0.33683926  0.86122206  0.63880117  1  0  -0.123714  0  3.701218  0  0  -0.145618  0  3.949062  0  0  -0.149831  0  3.968608  0  0  -0.076916  -0.142611  0  3.935616  0
C  C54  1  0.80577544  0.15778641  0.41526051  1  0  -0.020535  0  3.719208  0  0  -0.001929  0  3.950615  0  0  -0.004595  0  3.96878  0  0  0.004462  0.000222  0  3.936987  0
C  C55  1  0.19421953  0.84221103  0.58473732  1  0  -0.020648  0  3.719386  0  0  -0.002024  0  3.950811  0  0  -0.004691  0  3.968977  0  0  0.004407  0.000126  0  3.937179  0
C  C56  1  0.84665923  0.05059567  0.40759491  1  0  -0.131987  0  3.729246  0  0  -0.153702  0  3.978818  0  0  -0.158798  0  4.0006  0  0  -0.079944  -0.15017  0  3.963981  0
C  C57  1  0.15333939  0.94940366  0.59240628  1  0  -0.13196  0  3.729225  0  0  -0.153729  0  3.978805  0  0  -0.158822  0  4.00058  0  0  -0.079983  -0.150198  0  3.963977  0
C  C58  1  0.74502083  0.92919663  0.34534805  1  0  0.117316  0  3.695672  0  0  0.087708  0  3.954782  0  0  0.092593  0  3.971576  0  0  0.048275  0.084638  0  3.943219  0
C  C59  1  0.25497938  0.07080174  0.65465435  1  0  0.117289  0  3.695848  0  0  0.087679  0  3.954948  0  0  0.092578  0  3.971747  0  0  0.048267  0.084581  0  3.943375  0
C  C60  1  0.91262310  0.29078691  0.47537586  1  0  0.710002  0  3.865981  0  0  0.665337  0  4.156982  0  0  0.701713  0  4.148158  0  0  0.235952  0.641144  0  4.165657  0
C  C61  1  0.08736614  0.70921344  0.52461561  1  0  0.710199  0  3.865668  0  0  0.665488  0  4.15675  0  0  0.701864  0  4.147925  0  0  0.236039  0.641299  0  4.165421  0
C  C62  1  0.82909917  0.01197186  0.98311845  1  0  0.105265  0  3.735103  0  0  0.075045  0  3.988572  0  0  0.081294  0  4.008501  0  0  0.040043  0.070727  0  3.975506  0
C  C63  1  0.17090069  0.98802557  0.01687963  1  0  0.105422  0  3.735271  0  0  0.075219  0  3.98873  0  0  0.081457  0  4.008654  0  0  0.040106  0.070917  0  3.975632  0
C  C64  1  0.75578102  0.88495812  0.90485719  1  0  -0.122522  0  3.694316  0  0  -0.144859  0  3.942978  0  0  -0.149864  0  3.961789  0  0  -0.072283  -0.141506  0  3.930191  0
C  C65  1  0.24421591  0.11503933  0.09513898  1  0  -0.122525  0  3.69442  0  0  -0.144834  0  3.943055  0  0  -0.149841  0  3.961874  0  0  -0.072276  -0.141478  0  3.930269  0
C  C66  1  0.63865526  0.81818969  0.90812890  1  0  0.01121  0  3.689815  0  0  0.027247  0  3.920312  0  0  0.027805  0  3.935356  0  0  0.020729  0.026955  0  3.909544  0
C  C67  1  0.36134167  0.18180776  0.09186728  1  0  0.011117  0  3.689797  0  0  0.027146  0  3.920309  0  0  0.027706  0  3.935357  0  0  0.02075  0.02685  0  3.909543  0
C  C68  1  0.60191537  0.88053186  0.99239797  1  0  -0.110153  0  3.686529  0  0  -0.131795  0  3.932569  0  0  -0.13665  0  3.950772  0  0  -0.070101  -0.128376  0  3.920065  0
C  C69  1  0.39808620  0.11946749  0.00760035  1  0  -0.11007  0  3.68638  0  0  -0.131689  0  3.932417  0  0  -0.136547  0  3.950622  0  0  -0.070127  -0.128268  0  3.919915  0
C  C70  1  0.68277357  0.00640152  0.06978627  1  0  0.108036  0  3.735542  0  0  0.078255  0  3.986395  0  0  0.084462  0  4.007165  0  0  0.038508  0.073671  0  3.9731  0
C  C71  1  0.31722934  0.99359877  0.93021434  1  0  0.108086  0  3.735354  0  0  0.078317  0  3.986204  0  0  0.084527  0  4.006972  0  0  0.038559  0.073736  0  3.972905  0
C  C72  1  0.55205873  0.68281456  0.82168301  1  0  0.733516  0  3.861099  0  0  0.687823  0  4.147924  0  0  0.724359  0  4.138613  0  0  0.244056  0.663195  0  4.157642  0
C  C73  1  0.44793636  0.31718575  0.17831385  1  0  0.733558  0  3.861241  0  0  0.687857  0  4.148074  0  0  0.724385  0  4.138778  0  0  0.244039  0.663228  0  4.157798  0
C  C74  1  0.81275760  0.55610990  0.67448378  1  0  0.569914  0  3.880511  0  0  0.526217  0  4.159169  0  0  0.557157  0  4.158044  0  0  0.215151  0.504864  0  4.164616  0
C  C75  1  0.18724655  0.44388851  0.32551212  1  0  0.57008  0  3.880368  0  0  0.526439  0  4.158921  0  0  0.557379  0  4.157792  0  0  0.215215  0.505088  0  4.164372  0
C  C76  1  0.67343729  0.44349761  0.59165019  1  0  0.586684  0  3.904988  0  0  0.544693  0  4.195911  0  0  0.575118  0  4.191469  0  0  0.224163  0.524131  0  4.202496  0
C  C77  1  0.32656612  0.55649887  0.40834744  1  0  0.586522  0  3.904973  0  0  0.544523  0  4.195881  0  0  0.574951  0  4.191438  0  0  0.224112  0.523964  0  4.202463  0
C  C78  1  0.79956142  0.47013729  0.14897885  1  0  0.561451  0  3.906812  0  0  0.518744  0  4.18938  0  0  0.54908  0  4.188647  0  0  0.213464  0.497845  0  4.19431  0
C  C79  1  0.20043853  0.52986299  0.85102465  1  0  0.561519  0  3.906766  0  0  0.518779  0  4.189336  0  0  0.549116  0  4.188606  0  0  0.213465  0.49788  0  4.194266  0
C  C80  1  0.71455021  0.56042769  0.13288103  1  0  0.58526  0  3.898568  0  0  0.542064  0  4.190806  0  0  0.572661  0  4.186866  0  0  0.22396  0.521325  0  4.197115  0
C  C81  1  0.28545792  0.43957352  0.86712576  1  0  0.585195  0  3.898679  0  0  0.542059  0  4.190816  0  0  0.572657  0  4.186877  0  0  0.223932  0.521321  0  4.197124  0
N  N82  1  0.22876453  0.09693501  0.38748079  1  0  -0.294077  0  3.162981  0  0  -0.231422  0  3.40564  0  0  -0.243311  0  3.421057  0  0  -0.296698  -0.223152  0  3.394797  0
N  N83  1  0.77123431  0.90307006  0.61252168  1  0  -0.294018  0  3.162847  0  0  -0.231366  0  3.405527  0  0  -0.243255  0  3.420944  0  0  -0.296677  -0.223097  0  3.394687  0
N  N84  1  0.60795000  0.91102256  0.29206075  1  0  -0.301827  0  3.168167  0  0  -0.240548  0  3.415289  0  0  -0.252466  0  3.429608  0  0  -0.303447  -0.232105  0  3.404843  0
N  N85  1  0.39204851  0.08897392  0.70793901  1  0  -0.301701  0  3.168184  0  0  -0.24044  0  3.415311  0  0  -0.252356  0  3.429623  0  0  -0.303393  -0.231998  0  3.404877  0
N  N86  1  0.79411701  0.07226943  0.06501654  1  0  -0.328051  0  3.385259  0  0  -0.245381  0  3.677376  0  0  -0.264534  0  3.69217  0  0  -0.349955  -0.232312  0  3.666739  0
N  N87  1  0.20588456  0.92772992  0.93498178  1  0  -0.328176  0  3.385189  0  0  -0.245533  0  3.677348  0  0  -0.264688  0  3.692144  0  0  -0.350034  -0.23247  0  3.66672  0
O  O88  1  0.94011184  0.66897075  0.04679298  1  0  -0.715688  0  2.038971  0  0  -0.669517  0  2.297568  0  0  -0.705084  0  2.281331  0  0  -0.3796  -0.652503  0  2.305312  0
O  O89  1  0.05989253  0.33102570  0.95320980  1  0  -0.715561  0  2.038959  0  0  -0.669366  0  2.29759  0  0  -0.704939  0  2.281356  0  0  -0.379532  -0.652369  0  2.305334  0
O  O90  1  0.14720616  0.64585834  0.15356037  1  0  -0.733406  0  2.059686  0  0  -0.684829  0  2.320119  0  0  -0.722446  0  2.302461  0  0  -0.405128  -0.667133  0  2.328114  0
O  O91  1  0.85280597  0.35415337  0.84645009  1  0  -0.733517  0  2.059347  0  0  -0.684955  0  2.319825  0  0  -0.722555  0  2.30218  0  0  -0.405078  -0.667246  0  2.327817  0
O  O92  1  0.04019895  0.30209108  0.53522648  1  0  -0.708576  0  1.981291  0  0  -0.661175  0  2.231006  0  0  -0.697478  0  2.214997  0  0  -0.390125  -0.64392  0  2.238245  0
O  O93  1  0.95979760  0.69791307  0.46476933  1  0  -0.708617  0  1.981314  0  0  -0.661206  0  2.231065  0  0  -0.697507  0  2.215051  0  0  -0.390124  -0.643957  0  2.238302  0
O  O94  1  0.86807011  0.38147223  0.46023986  1  0  -0.728843  0  2.098213  0  0  -0.682186  0  2.368637  0  0  -0.720608  0  2.353257  0  0  -0.394337  -0.665209  0  2.377101  0
O  O95  1  0.13191782  0.61851953  0.53974774  1  0  -0.728908  0  2.097923  0  0  -0.682231  0  2.36837  0  0  -0.720654  0  2.35299  0  0  -0.394375  -0.665236  0  2.376804  0
O  O96  1  0.42145592  0.65467272  0.77389062  1  0  -0.710747  0  2.040757  0  0  -0.66247  0  2.292895  0  0  -0.699772  0  2.279028  0  0  -0.381445  -0.644144  0  2.299224  0
O  O97  1  0.57853769  0.34533142  0.22610647  1  0  -0.710804  0  2.04086  0  0  -0.662511  0  2.292979  0  0  -0.699812  0  2.279114  0  0  -0.381421  -0.644187  0  2.299306  0
O  O98  1  0.61432939  0.60832714  0.80109268  1  0  -0.732263  0  2.064436  0  0  -0.684229  0  2.323562  0  0  -0.722583  0  2.309786  0  0  -0.398258  -0.665994  0  2.331234  0
O  O99  1  0.38566058  0.39166744  0.19890347  1  0  -0.73223  0  2.064463  0  0  -0.684201  0  2.323633  0  0  -0.722562  0  2.309857  0  0  -0.398292  -0.665978  0  2.331304  0
O  O100  1  0.86413199  0.59277301  0.79247871  1  0  -0.668033  0  2.138107  0  0  -0.611615  0  2.402037  0  0  -0.646565  0  2.388059  0  0  -0.3696  -0.593857  0  2.409832  0
O  O101  1  0.13586992  0.40722725  0.20752711  1  0  -0.668106  0  2.138306  0  0  -0.611703  0  2.402221  0  0  -0.646658  0  2.388239  0  0  -0.369624  -0.593959  0  2.410018  0
O  O102  1  0.87136579  0.60669331  0.62036395  1  0  -0.672003  0  2.162487  0  0  -0.601832  0  2.421055  0  0  -0.640988  0  2.409964  0  0  -0.364078  -0.581491  0  2.426527  0
O  O103  1  0.12863859  0.39330315  0.37963724  1  0  -0.672128  0  2.162193  0  0  -0.601989  0  2.420757  0  0  -0.641147  0  2.409659  0  0  -0.36415  -0.581647  0  2.42623  0
O  O104  1  0.62288338  0.39183751  0.65046203  1  0  -0.668714  0  2.069605  0  0  -0.615291  0  2.305027  0  0  -0.647222  0  2.291481  0  0  -0.341368  -0.598468  0  2.31222  0
O  O105  1  0.37712150  0.60815514  0.34953617  1  0  -0.668579  0  2.069567  0  0  -0.615145  0  2.30499  0  0  -0.647087  0  2.29145  0  0  -0.341315  -0.598326  0  2.312181  0
O  O106  1  0.62347388  0.41251384  0.47442741  1  0  -0.642125  0  2.031686  0  0  -0.596641  0  2.268435  0  0  -0.628784  0  2.255962  0  0  -0.354496  -0.58088  0  2.274314  0
O  O107  1  0.37653012  0.58748932  0.52557421  1  0  -0.642066  0  2.03167  0  0  -0.596589  0  2.268414  0  0  -0.62873  0  2.25594  0  0  -0.354448  -0.580825  0  2.274293  0
O  O108  1  0.84126072  0.44561602  0.25013812  1  0  -0.660639  0  2.146719  0  0  -0.595741  0  2.409663  0  0  -0.63319  0  2.39756  0  0  -0.360027  -0.576157  0  2.415804  0
O  O109  1  0.15874059  0.55438523  0.74986289  1  0  -0.660743  0  2.14658  0  0  -0.595839  0  2.409548  0  0  -0.633291  0  2.397449  0  0  -0.360071  -0.576253  0  2.415689  0
O  O110  1  0.81982851  0.42267327  0.05976030  1  0  -0.667977  0  2.113017  0  0  -0.615138  0  2.368153  0  0  -0.649727  0  2.355646  0  0  -0.365476  -0.597562  0  2.374819  0
O  O111  1  0.18017232  0.57732416  0.94023974  1  0  -0.667919  0  2.113205  0  0  -0.615055  0  2.368342  0  0  -0.649655  0  2.355833  0  0  -0.36543  -0.597489  0  2.375006  0
O  O112  1  0.68775624  0.59850830  0.22127037  1  0  -0.680523  0  2.094082  0  0  -0.622923  0  2.334251  0  0  -0.658248  0  2.321195  0  0  -0.353379  -0.604986  0  2.340657  0
O  O113  1  0.31224813  0.40149584  0.77872601  1  0  -0.680527  0  2.093943  0  0  -0.622937  0  2.334068  0  0  -0.658262  0  2.321011  0  0  -0.353378  -0.605  0  2.34048  0
O  O114  1  0.67677324  0.58685618  0.03423198  1  0  -0.627749  0  2.020789  0  0  -0.582082  0  2.25778  0  0  -0.613758  0  2.247502  0  0  -0.347715  -0.565637  0  2.262514  0
O  O115  1  0.32323077  0.41314700  0.96576566  1  0  -0.627686  0  2.021056  0  0  -0.58203  0  2.258025  0  0  -0.613711  0  2.247742  0  0  -0.34768  -0.565595  0  2.262757  0
O  O116  1  0.34522896  0.33562928  0.56181949  1  0  -0.933835  0  1.890774  0  0  -0.882731  0  2.105571  0  0  -0.914106  0  2.064025  0  0  -0.66665  -0.868942  0  2.129112  0
O  O117  1  0.65477172  0.66437291  0.43818467  1  0  -0.93382  0  1.890864  0  0  -0.882706  0  2.105647  0  0  -0.914086  0  2.064107  0  0  -0.666597  -0.868921  0  2.129184  0
O  O118  1  0.54306224  0.33842891  0.83620425  1  0  -0.94291  0  1.892035  0  0  -0.892982  0  2.10242  0  0  -0.923042  0  2.060189  0  0  -0.673033  -0.879425  0  2.126253  0
O  O119  1  0.45694091  0.66156947  0.16379607  1  0  -0.942974  0  1.891922  0  0  -0.89308  0  2.102308  0  0  -0.923152  0  2.060071  0  0  -0.673035  -0.879523  0  2.12612  0
