# generated using pymatgen
data_CdH22C24(N4O3)2
_symmetry_space_group_name_H-M   'P 1'
_cell_length_a   8.14064026
_cell_length_b   11.83434730
_cell_length_c   13.76300639
_cell_angle_alpha   109.54408375
_cell_angle_beta   89.99939130
_cell_angle_gamma   89.99966758
_symmetry_Int_Tables_number   1
_chemical_formula_structural   CdH22C24(N4O3)2
_chemical_formula_sum   'Cd2 H44 C48 N16 O12'
_cell_volume   1249.52302602
_cell_formula_units_Z   2
loop_
 _symmetry_equiv_pos_site_id
 _symmetry_equiv_pos_as_xyz
  1  'x, y, z'
loop_
 _atom_site_type_symbol
 _atom_site_label
 _atom_site_symmetry_multiplicity
 _atom_site_fract_x
 _atom_site_fract_y
 _atom_site_fract_z
 _atom_site_occupancy
 _atom_site_hle17_bader_spin_density
 _atom_site_hle17_ddec_charge
 _atom_site_hle17_ddec_spin_density
 _atom_site_hle17_ddec_sum_bond_order
 _atom_site_hle17_magmom
 _atom_site_hse06_10hf_bader_spin_density
 _atom_site_hse06_10hf_ddec_charge
 _atom_site_hse06_10hf_ddec_spin_density
 _atom_site_hse06_10hf_ddec_sum_bond_order
 _atom_site_hse06_10hf_magmom
 _atom_site_hse06_bader_spin_density
 _atom_site_hse06_ddec_charge
 _atom_site_hse06_ddec_spin_density
 _atom_site_hse06_ddec_sum_bond_order
 _atom_site_hse06_magmom
 _atom_site_pbe_bader_spin_density
 _atom_site_pbe_cm5_charge
 _atom_site_pbe_ddec_charge
 _atom_site_pbe_ddec_spin_density
 _atom_site_pbe_ddec_sum_bond_order
 _atom_site_pbe_magmom
Cd  Cd0  1  0.24076911  0.24999933  0.49999909  1  0  1.041371  0  1.669921  0  0  0.842415  0  2.105813  0  0  0.894271  0  2.063015  0  0  0.776251  0.806168  0  2.134644  0
Cd  Cd1  1  0.75923606  0.75000644  0.50000293  1  0  1.041352  0  1.669962  0  0  0.842431  0  2.10584  0  0  0.894288  0  2.063036  0  0  0.776247  0.806185  0  2.134671  0
H  H2  1  0.54499461  0.16522454  0.39815499  1  0  0.316925  0  0.936491  0  0  0.300947  0  0.99954  0  0  0.307751  0  0.994637  0  0  0.292763  0.296161  0  1.002938  0
H  H3  1  0.54500066  0.33477388  0.60183401  1  0  0.31701  0  0.936451  0  0  0.301034  0  0.999488  0  0  0.307838  0  0.994582  0  0  0.292764  0.296244  0  1.002885  0
H  H4  1  0.45500565  0.83478130  0.60184415  1  0  0.317021  0  0.936435  0  0  0.301044  0  0.999482  0  0  0.307847  0  0.994579  0  0  0.292784  0.296258  0  1.002876  0
H  H5  1  0.45500574  0.66522295  0.39816457  1  0  0.317038  0  0.936406  0  0  0.301057  0  0.999452  0  0  0.30786  0  0.994547  0  0  0.292783  0.296268  0  1.002847  0
H  H6  1  0.51872092  0.30522793  0.39716280  1  0  0.306724  0  0.933039  0  0  0.285416  0  1.00657  0  0  0.293188  0  1.000215  0  0  0.287246  0.279876  0  1.011053  0
H  H7  1  0.51872443  0.19477240  0.60282984  1  0  0.306754  0  0.933067  0  0  0.285454  0  1.006584  0  0  0.293229  0  1.000226  0  0  0.287282  0.279916  0  1.011063  0
H  H8  1  0.48128180  0.69477973  0.60283617  1  0  0.306663  0  0.933107  0  0  0.285483  0  1.006486  0  0  0.293263  0  1.000113  0  0  0.287275  0.279941  0  1.010975  0
H  H9  1  0.48127828  0.80522617  0.39717072  1  0  0.306786  0  0.932974  0  0  0.285486  0  1.006502  0  0  0.293261  0  1.00014  0  0  0.287294  0.279951  0  1.010981  0
H  H10  1  0.05034406  0.65733365  0.60775814  1  0  0.081249  0  0.958519  0  0  0.087623  0  1.026776  0  0  0.089761  0  1.024439  0  0  0.115045  0.086021  0  1.028478  0
H  H11  1  0.05035998  0.84267212  0.39223899  1  0  0.081296  0  0.958593  0  0  0.087634  0  1.026865  0  0  0.089772  0  1.024528  0  0  0.115104  0.086032  0  1.028568  0
H  H12  1  0.94965742  0.34267145  0.39223496  1  0  0.081304  0  0.958556  0  0  0.087592  0  1.02691  0  0  0.08973  0  1.024576  0  0  0.115088  0.086002  0  1.028582  0
H  H13  1  0.94965134  0.15732556  0.60776130  1  0  0.081283  0  0.95864  0  0  0.087562  0  1.026994  0  0  0.089701  0  1.024658  0  0  0.115084  0.085975  0  1.028661  0
H  H14  1  0.23383655  0.72335676  0.76240897  1  0  0.104645  0  0.945756  0  0  0.115777  0  1.00561  0  0  0.118871  0  1.005095  0  0  0.106129  0.113533  0  1.006183  0
H  H15  1  0.23384476  0.77663518  0.23758065  1  0  0.104661  0  0.945779  0  0  0.115817  0  1.00561  0  0  0.118859  0  1.005155  0  0  0.106166  0.113573  0  1.006178  0
H  H16  1  0.76616616  0.27663479  0.23758364  1  0  0.104508  0  0.94564  0  0  0.115617  0  1.005553  0  0  0.118689  0  1.005064  0  0  0.106074  0.113372  0  1.006124  0
H  H17  1  0.76615181  0.22335909  0.76241206  1  0  0.104667  0  0.945762  0  0  0.115797  0  1.005623  0  0  0.118848  0  1.005156  0  0  0.106129  0.11355  0  1.006194  0
H  H18  1  0.03321313  0.07932125  0.83068030  1  0  0.11002  0  0.947313  0  0  0.1181  0  1.009451  0  0  0.121522  0  1.008171  0  0  0.109761  0.115653  0  1.010536  0
H  H19  1  0.03319803  0.42068062  0.16932377  1  0  0.110058  0  0.947309  0  0  0.118114  0  1.009469  0  0  0.121535  0  1.008189  0  0  0.109781  0.115668  0  1.010554  0
H  H20  1  0.96679573  0.92067330  0.16933648  1  0  0.109993  0  0.947247  0  0  0.118027  0  1.009451  0  0  0.121446  0  1.008176  0  0  0.109751  0.115577  0  1.010535  0
H  H21  1  0.96678503  0.57931807  0.83067246  1  0  0.110016  0  0.947352  0  0  0.118087  0  1.009496  0  0  0.121507  0  1.008219  0  0  0.109765  0.11564  0  1.010582  0
H  H22  1  0.86283713  0.99863914  0.67019697  1  0  0.068697  0  0.973983  0  0  0.074525  0  1.046117  0  0  0.076751  0  1.043919  0  0  0.109548  0.072859  0  1.047699  0
H  H23  1  0.86283737  0.50137273  0.32981813  1  0  0.068683  0  0.973883  0  0  0.074457  0  1.046077  0  0  0.07674  0  1.043812  0  0  0.109515  0.07277  0  1.047708  0
H  H24  1  0.13716313  0.00136797  0.32982291  1  0  0.068688  0  0.974043  0  0  0.0745  0  1.046185  0  0  0.076751  0  1.043952  0  0  0.109535  0.072822  0  1.04778  0
H  H25  1  0.13716166  0.49862753  0.67018731  1  0  0.068726  0  0.97392  0  0  0.074482  0  1.046127  0  0  0.076772  0  1.043858  0  0  0.109541  0.072808  0  1.047723  0
H  H26  1  0.32047632  0.87745678  0.91964658  1  0  0.050242  0  0.949254  0  0  0.059455  0  1.017758  0  0  0.062807  0  1.014273  0  0  0.102018  0.056966  0  1.020431  0
H  H27  1  0.32046901  0.62254695  0.08035118  1  0  0.050281  0  0.949223  0  0  0.059507  0  1.017706  0  0  0.06286  0  1.014218  0  0  0.102039  0.057018  0  1.020379  0
H  H28  1  0.67953622  0.12254169  0.08035830  1  0  0.050224  0  0.949106  0  0  0.059421  0  1.017661  0  0  0.062777  0  1.014163  0  0  0.102008  0.056931  0  1.020333  0
H  H29  1  0.67950914  0.37745632  0.91964282  1  0  0.050174  0  0.949257  0  0  0.059423  0  1.017771  0  0  0.062772  0  1.014288  0  0  0.102007  0.056935  0  1.020441  0
H  H30  1  0.24211414  0.27291304  0.08952711  1  0  0.101388  0  0.980524  0  0  0.105165  0  1.053625  0  0  0.109035  0  1.050285  0  0  0.100167  0.102391  0  1.055991  0
H  H31  1  0.24211182  0.22708489  0.91046359  1  0  0.10141  0  0.9805  0  0  0.105171  0  1.053633  0  0  0.109046  0  1.050289  0  0  0.100177  0.102402  0  1.055993  0
H  H32  1  0.75789717  0.72708397  0.91046426  1  0  0.101484  0  0.980499  0  0  0.105223  0  1.053643  0  0  0.109104  0  1.050297  0  0  0.100175  0.102449  0  1.056013  0
H  H33  1  0.75788475  0.77291114  0.08953039  1  0  0.101397  0  0.980517  0  0  0.105183  0  1.053616  0  0  0.109054  0  1.050271  0  0  0.100172  0.102417  0  1.055972  0
H  H34  1  0.34696143  0.35126940  0.26932200  1  0  0.111125  0  0.948641  0  0  0.122048  0  1.007738  0  0  0.125163  0  1.006609  0  0  0.103225  0.119784  0  1.008689  0
H  H35  1  0.34696548  0.14873406  0.73066901  1  0  0.111152  0  0.948752  0  0  0.122081  0  1.007827  0  0  0.125196  0  1.006699  0  0  0.103258  0.119817  0  1.008776  0
H  H36  1  0.65305234  0.64873571  0.73067038  1  0  0.111171  0  0.948679  0  0  0.122082  0  1.00777  0  0  0.125197  0  1.006639  0  0  0.103257  0.119817  0  1.008722  0
H  H37  1  0.65304829  0.85126635  0.26933066  1  0  0.111126  0  0.948645  0  0  0.12205  0  1.007732  0  0  0.125163  0  1.00661  0  0  0.103233  0.119788  0  1.008679  0
H  H38  1  0.46963229  0.99194900  0.25445204  1  0  0.10799  0  0.955838  0  0  0.119515  0  1.015442  0  0  0.122556  0  1.014306  0  0  0.102915  0.117354  0  1.01629  0
H  H39  1  0.46963478  0.50805371  0.74554159  1  0  0.10804  0  0.955724  0  0  0.119653  0  1.015232  0  0  0.122631  0  1.014173  0  0  0.102924  0.117496  0  1.016079  0
H  H40  1  0.53035445  0.00805749  0.74555674  1  0  0.107947  0  0.955852  0  0  0.119478  0  1.015456  0  0  0.122513  0  1.014328  0  0  0.102838  0.117317  0  1.016307  0
H  H41  1  0.53035810  0.49194767  0.25445546  1  0  0.107967  0  0.955775  0  0  0.119541  0  1.015335  0  0  0.122537  0  1.014255  0  0  0.102883  0.117382  0  1.016185  0
H  H42  1  0.36322736  0.91294081  0.07702776  1  0  0.090789  0  0.949839  0  0  0.105035  0  1.005645  0  0  0.107787  0  1.004136  0  0  0.100768  0.102972  0  1.006883  0
H  H43  1  0.36323090  0.58705803  0.92297189  1  0  0.090819  0  0.949745  0  0  0.105029  0  1.005586  0  0  0.107787  0  1.00407  0  0  0.100781  0.102968  0  1.006824  0
H  H44  1  0.63675201  0.08705665  0.92298118  1  0  0.090805  0  0.949722  0  0  0.105027  0  1.005555  0  0  0.107795  0  1.004026  0  0  0.100754  0.102968  0  1.00679  0
H  H45  1  0.63676322  0.41294055  0.07702868  1  0  0.090762  0  0.949752  0  0  0.105079  0  1.005491  0  0  0.107822  0  1.003992  0  0  0.10078  0.103018  0  1.006728  0
C  C46  1  0.05288478  0.75029068  0.65831399  1  0  0.150867  0  3.689575  0  0  0.116673  0  3.947101  0  0  0.125462  0  3.963771  0  0  0.046606  0.110876  0  3.935909  0
C  C47  1  0.05289256  0.74971593  0.34168483  1  0  0.150641  0  3.689418  0  0  0.116481  0  3.946961  0  0  0.125275  0  3.96361  0  0  0.046403  0.110685  0  3.935764  0
C  C48  1  0.94712284  0.24971516  0.34168515  1  0  0.150745  0  3.689432  0  0  0.116616  0  3.946965  0  0  0.125406  0  3.963619  0  0  0.04651  0.110826  0  3.93578  0
C  C49  1  0.94711629  0.25028179  0.65831402  1  0  0.150668  0  3.689708  0  0  0.116547  0  3.94722  0  0  0.125341  0  3.963867  0  0  0.046444  0.110753  0  3.936032  0
C  C50  1  0.15290546  0.78755594  0.74501634  1  0  -0.156435  0  3.690204  0  0  -0.174747  0  3.937009  0  0  -0.182317  0  3.957505  0  0  -0.082652  -0.169936  0  3.923413  0
C  C51  1  0.15290775  0.71244463  0.25497712  1  0  -0.15639  0  3.690012  0  0  -0.174706  0  3.936841  0  0  -0.18223  0  3.957348  0  0  -0.082626  -0.169893  0  3.923239  0
C  C52  1  0.84710462  0.21243737  0.25497825  1  0  -0.156278  0  3.689981  0  0  -0.174528  0  3.936834  0  0  -0.182078  0  3.957334  0  0  -0.082544  -0.169718  0  3.923241  0
C  C53  1  0.84709128  0.28755226  0.74501857  1  0  -0.15638  0  3.690067  0  0  -0.174678  0  3.936845  0  0  -0.182207  0  3.95735  0  0  -0.082603  -0.169867  0  3.923245  0
C  C54  1  0.14577225  0.90733516  0.81063109  1  0  0.09952  0  3.783634  0  0  0.114771  0  4.015315  0  0  0.118184  0  4.036352  0  0  0.010267  0.112621  0  4.001044  0
C  C55  1  0.14576322  0.59266625  0.18936704  1  0  0.09946  0  3.783644  0  0  0.114632  0  4.015449  0  0  0.118043  0  4.036474  0  0  0.010188  0.112489  0  4.001174  0
C  C56  1  0.85424152  0.09265890  0.18936955  1  0  0.099552  0  3.783565  0  0  0.114664  0  4.015459  0  0  0.118076  0  4.036496  0  0  0.01021  0.112515  0  4.001185  0
C  C57  1  0.85423090  0.40733064  0.81062865  1  0  0.099387  0  3.783614  0  0  0.11464  0  4.015355  0  0  0.118048  0  4.036389  0  0  0.010201  0.112494  0  4.001081  0
C  C58  1  0.04175088  0.98561738  0.78212158  1  0  -0.132824  0  3.672929  0  0  -0.151059  0  3.918047  0  0  -0.157642  0  3.937695  0  0  -0.075209  -0.146946  0  3.905041  0
C  C59  1  0.04174321  0.51438386  0.21787858  1  0  -0.132887  0  3.672861  0  0  -0.15106  0  3.917993  0  0  -0.157646  0  3.937664  0  0  -0.075255  -0.146951  0  3.904978  0
C  C60  1  0.95826043  0.01437829  0.21788681  1  0  -0.132625  0  3.67257  0  0  -0.150797  0  3.917784  0  0  -0.157374  0  3.937434  0  0  -0.075179  -0.146706  0  3.904815  0
C  C61  1  0.95825090  0.48561390  0.78211883  1  0  -0.132786  0  3.672843  0  0  -0.150996  0  3.917965  0  0  -0.157579  0  3.937635  0  0  -0.075231  -0.146882  0  3.904956  0
C  C62  1  0.94765113  0.94136482  0.69364669  1  0  0.134426  0  3.725259  0  0  0.101319  0  3.982015  0  0  0.10947  0  3.999076  0  0  0.043599  0.095998  0  3.970582  0
C  C63  1  0.94765377  0.55864573  0.30636021  1  0  0.134606  0  3.725247  0  0  0.101532  0  3.982006  0  0  0.109645  0  3.999055  0  0  0.043731  0.096212  0  3.970572  0
C  C64  1  0.05235159  0.05863980  0.30636515  1  0  0.134246  0  3.725566  0  0  0.101172  0  3.982282  0  0  0.109306  0  3.999332  0  0  0.043575  0.095862  0  3.970837  0
C  C65  1  0.05235140  0.44135377  0.69363991  1  0  0.13445  0  3.725349  0  0  0.101394  0  3.982107  0  0  0.109496  0  3.999152  0  0  0.043654  0.096073  0  3.970681  0
C  C66  1  0.23859316  0.94561986  0.90702093  1  0  0.104037  0  3.709924  0  0  0.072164  0  3.968469  0  0  0.080425  0  3.978981  0  0  0.06806  0.06663  0  3.961249  0
C  C67  1  0.23858987  0.55437998  0.09297615  1  0  0.104086  0  3.709761  0  0  0.072225  0  3.968333  0  0  0.080489  0  3.978846  0  0  0.068067  0.066686  0  3.961113  0
C  C68  1  0.76141570  0.05437506  0.09298143  1  0  0.10416  0  3.709651  0  0  0.072319  0  3.968255  0  0  0.08058  0  3.97877  0  0  0.068133  0.066786  0  3.961033  0
C  C69  1  0.76139687  0.44562233  0.90701973  1  0  0.104236  0  3.70948  0  0  0.072262  0  3.968178  0  0  0.080528  0  3.978688  0  0  0.068101  0.066725  0  3.960956  0
C  C70  1  0.29542294  0.08779614  0.06949545  1  0  0.173993  0  3.862802  0  0  0.177101  0  4.113529  0  0  0.177572  0  4.140437  0  0  0.075768  0.176842  0  4.095082  0
C  C71  1  0.29542731  0.41220307  0.93050039  1  0  0.173914  0  3.862907  0  0  0.177055  0  4.113588  0  0  0.177525  0  4.140503  0  0  0.075694  0.176794  0  4.09515  0
C  C72  1  0.70457240  0.91220052  0.93050961  1  0  0.173888  0  3.863116  0  0  0.177023  0  4.113781  0  0  0.177494  0  4.140695  0  0  0.075741  0.176762  0  4.09534  0
C  C73  1  0.70456680  0.58779295  0.06949430  1  0  0.173937  0  3.862986  0  0  0.177117  0  4.113627  0  0  0.177589  0  4.140535  0  0  0.075766  0.176856  0  4.09519  0
C  C74  1  0.29402031  0.21164935  0.12561493  1  0  -0.117316  0  3.729876  0  0  -0.136548  0  3.97869  0  0  -0.138494  0  4.000228  0  0  -0.088047  -0.134996  0  3.963884  0
C  C75  1  0.29402181  0.28834996  0.87437732  1  0  -0.117411  0  3.730088  0  0  -0.136652  0  3.978903  0  0  -0.138604  0  4.000442  0  0  -0.088041  -0.135104  0  3.964097  0
C  C76  1  0.70598241  0.78834932  0.87438202  1  0  -0.117503  0  3.729982  0  0  -0.136726  0  3.978792  0  0  -0.138684  0  4.000329  0  0  -0.088123  -0.135174  0  3.963987  0
C  C77  1  0.70597476  0.71164606  0.12561738  1  0  -0.117419  0  3.730059  0  0  -0.13669  0  3.978875  0  0  -0.138634  0  4.000409  0  0  -0.088095  -0.135137  0  3.964064  0
C  C78  1  0.35507093  0.25579533  0.22540321  1  0  -0.174696  0  3.735411  0  0  -0.191729  0  3.983849  0  0  -0.198098  0  4.007136  0  0  -0.103772  -0.187331  0  3.96801  0
C  C79  1  0.35507461  0.24420348  0.77459070  1  0  -0.174627  0  3.735332  0  0  -0.191547  0  3.983825  0  0  -0.197914  0  4.007114  0  0  -0.103764  -0.187139  0  3.967983  0
C  C80  1  0.64493178  0.74420609  0.77459241  1  0  -0.174658  0  3.73528  0  0  -0.191591  0  3.983745  0  0  -0.19796  0  4.007035  0  0  -0.103742  -0.18718  0  3.967897  0
C  C81  1  0.64493056  0.75579431  0.22540527  1  0  -0.174608  0  3.735233  0  0  -0.191528  0  3.983759  0  0  -0.197896  0  4.007048  0  0  -0.103708  -0.187119  0  3.96791  0
C  C82  1  0.41830910  0.17708746  0.27310875  1  0  0.290593  0  3.809042  0  0  0.286126  0  4.054305  0  0  0.293563  0  4.079296  0  0  0.088076  0.280935  0  4.037211  0
C  C83  1  0.41831544  0.32291629  0.72688554  1  0  0.290803  0  3.80864  0  0  0.286036  0  4.054346  0  0  0.293475  0  4.079326  0  0  0.088098  0.280841  0  4.03725  0
C  C84  1  0.58168870  0.82291656  0.72689128  1  0  0.290699  0  3.808687  0  0  0.286027  0  4.054265  0  0  0.293462  0  4.07926  0  0  0.088066  0.280835  0  4.037172  0
C  C85  1  0.58168482  0.67708595  0.27311323  1  0  0.290794  0  3.808633  0  0  0.286035  0  4.054331  0  0  0.293474  0  4.079316  0  0  0.08807  0.280842  0  4.037236  0
C  C86  1  0.42273852  0.05346426  0.21721408  1  0  -0.174005  0  3.747994  0  0  -0.190759  0  3.999393  0  0  -0.197764  0  4.022941  0  0  -0.100007  -0.185856  0  3.983276  0
C  C87  1  0.42274281  0.44653661  0.78278513  1  0  -0.174301  0  3.748166  0  0  -0.191051  0  3.999672  0  0  -0.198011  0  4.023254  0  0  -0.100123  -0.186164  0  3.983563  0
C  C88  1  0.57724577  0.94653775  0.78279335  1  0  -0.173927  0  3.747821  0  0  -0.190607  0  3.999241  0  0  -0.197608  0  4.022799  0  0  -0.099856  -0.18571  0  3.983131  0
C  C89  1  0.57724884  0.55346473  0.21721337  1  0  -0.174094  0  3.747781  0  0  -0.190808  0  3.999323  0  0  -0.19778  0  4.02289  0  0  -0.100034  -0.185907  0  3.983209  0
C  C90  1  0.36233895  0.00959139  0.11724005  1  0  -0.127506  0  3.758064  0  0  -0.146768  0  4.003752  0  0  -0.149192  0  4.027993  0  0  -0.090328  -0.14484  0  3.987079  0
C  C91  1  0.36234844  0.49040650  0.88275208  1  0  -0.12729  0  3.758045  0  0  -0.14652  0  4.003722  0  0  -0.148942  0  4.027938  0  0  -0.090166  -0.144581  0  3.987051  0
C  C92  1  0.63764657  0.99040791  0.88276728  1  0  -0.127501  0  3.757874  0  0  -0.146742  0  4.003535  0  0  -0.149174  0  4.027762  0  0  -0.090343  -0.144807  0  3.986867  0
C  C93  1  0.63764199  0.50959312  0.11724298  1  0  -0.127437  0  3.757901  0  0  -0.146776  0  4.003607  0  0  -0.149191  0  4.02784  0  0  -0.090265  -0.14484  0  3.986938  0
N  N94  1  0.95013722  0.82515855  0.63324605  1  0  -0.331622  0  3.236924  0  0  -0.252846  0  3.501635  0  0  -0.272137  0  3.519035  0  0  -0.331388  -0.239747  0  3.489524  0
N  N95  1  0.95014272  0.67485031  0.36675524  1  0  -0.331554  0  3.237066  0  0  -0.25278  0  3.501743  0  0  -0.272067  0  3.519146  0  0  -0.331311  -0.239685  0  3.489635  0
N  N96  1  0.04987041  0.17484363  0.36675488  1  0  -0.331594  0  3.237252  0  0  -0.252788  0  3.501858  0  0  -0.27209  0  3.519296  0  0  -0.331362  -0.239693  0  3.489743  0
N  N97  1  0.04986246  0.32514996  0.63324948  1  0  -0.331538  0  3.237295  0  0  -0.252743  0  3.501931  0  0  -0.272027  0  3.519332  0  0  -0.33132  -0.239653  0  3.489832  0
N  N98  1  0.22062474  0.05184552  0.97264284  1  0  -0.318013  0  3.123725  0  0  -0.280463  0  3.391108  0  0  -0.290666  0  3.40581  0  0  -0.303991  -0.273489  0  3.38094  0
N  N99  1  0.22062426  0.44815158  0.02735136  1  0  -0.3181  0  3.123611  0  0  -0.280555  0  3.390986  0  0  -0.290758  0  3.405687  0  0  -0.304002  -0.273574  0  3.380817  0
N  N100  1  0.77937552  0.94814766  0.02735680  1  0  -0.318063  0  3.123785  0  0  -0.280507  0  3.391151  0  0  -0.290708  0  3.40585  0  0  -0.303999  -0.273528  0  3.380982  0
N  N101  1  0.77936494  0.55184804  0.97264370  1  0  -0.318018  0  3.12358  0  0  -0.280448  0  3.390974  0  0  -0.290651  0  3.405676  0  0  -0.30397  -0.273469  0  3.380806  0
N  N102  1  0.46635824  0.22113819  0.37723578  1  0  -0.672885  0  3.150842  0  0  -0.614322  0  3.38718  0  0  -0.638004  0  3.387234  0  0  -0.60393  -0.597344  0  3.386505  0
N  N103  1  0.46636070  0.27886075  0.62275603  1  0  -0.673136  0  3.150876  0  0  -0.614481  0  3.387316  0  0  -0.638162  0  3.387365  0  0  -0.603996  -0.597491  0  3.386636  0
N  N104  1  0.53364201  0.77886853  0.62276435  1  0  -0.672963  0  3.150838  0  0  -0.614483  0  3.387124  0  0  -0.638166  0  3.387171  0  0  -0.603974  -0.597498  0  3.386452  0
N  N105  1  0.53364202  0.72113699  0.37724210  1  0  -0.673152  0  3.150726  0  0  -0.61453  0  3.3872  0  0  -0.638214  0  3.387251  0  0  -0.604008  -0.597542  0  3.386519  0
N  N106  1  0.28711937  0.52560771  0.49786808  1  0  0.694179  0  4.159417  0  0  0.716528  0  4.467698  0  0  0.745379  0  4.472236  0  0  0.096678  0.699056  0  4.463777  0
N  N107  1  0.28712237  0.97439704  0.50213456  1  0  0.69403  0  4.159582  0  0  0.716381  0  4.467857  0  0  0.745237  0  4.472384  0  0  0.096698  0.698943  0  4.463913  0
N  N108  1  0.71287966  0.47440076  0.50213405  1  0  0.694207  0  4.159363  0  0  0.716603  0  4.46757  0  0  0.745456  0  4.472102  0  0  0.096737  0.699138  0  4.463643  0
N  N109  1  0.71287912  0.02559976  0.49786473  1  0  0.694137  0  4.159516  0  0  0.716483  0  4.467791  0  0  0.745336  0  4.472313  0  0  0.096678  0.699032  0  4.463857  0
O  O110  1  0.20278401  0.43014151  0.45808421  1  0  -0.494011  0  1.844175  0  0  -0.468453  0  2.095885  0  0  -0.487525  0  2.087639  0  0  -0.200876  -0.455689  0  2.100974  0
O  O111  1  0.20278352  0.06986265  0.54192171  1  0  -0.493874  0  1.844094  0  0  -0.468356  0  2.095834  0  0  -0.487425  0  2.087579  0  0  -0.200881  -0.455602  0  2.100916  0
O  O112  1  0.79721502  0.56986598  0.54192125  1  0  -0.494041  0  1.844126  0  0  -0.46849  0  2.095806  0  0  -0.48756  0  2.087549  0  0  -0.200905  -0.455725  0  2.100897  0
O  O113  1  0.79721428  0.93013617  0.45806948  1  0  -0.494023  0  1.844094  0  0  -0.468466  0  2.095775  0  0  -0.487539  0  2.087538  0  0  -0.200917  -0.455704  0  2.100864  0
O  O114  1  0.36544162  0.54108180  0.58120152  1  0  -0.48198  0  1.763231  0  0  -0.466899  0  1.985266  0  0  -0.482691  0  1.979989  0  0  -0.192638  -0.456779  0  1.988794  0
O  O115  1  0.36544503  0.95892508  0.41880129  1  0  -0.481987  0  1.763414  0  0  -0.466832  0  1.985391  0  0  -0.482631  0  1.980135  0  0  -0.192658  -0.456759  0  1.988949  0
O  O116  1  0.63456600  0.45892763  0.41879872  1  0  -0.482026  0  1.763433  0  0  -0.466914  0  1.985422  0  0  -0.482713  0  1.980159  0  0  -0.192647  -0.456807  0  1.988961  0
O  O117  1  0.63456628  0.04106807  0.58119980  1  0  -0.481946  0  1.763439  0  0  -0.466831  0  1.98546  0  0  -0.482647  0  1.980245  0  0  -0.192601  -0.456737  0  1.989003  0
O  O118  1  0.28813778  0.60339747  0.45444678  1  0  -0.436845  0  1.808896  0  0  -0.424941  0  2.030747  0  0  -0.437891  0  2.025948  0  0  -0.173939  -0.416704  0  2.033895  0
O  O119  1  0.28814187  0.89660373  0.54555331  1  0  -0.436797  0  1.808941  0  0  -0.424931  0  2.030826  0  0  -0.437885  0  2.026034  0  0  -0.173947  -0.416701  0  2.033967  0
O  O120  1  0.71185388  0.39660833  0.54555380  1  0  -0.436813  0  1.808741  0  0  -0.424976  0  2.030619  0  0  -0.437931  0  2.025823  0  0  -0.173984  -0.416741  0  2.033768  0
O  O121  1  0.71185347  0.10339838  0.45445050  1  0  -0.436798  0  1.808868  0  0  -0.424922  0  2.03075  0  0  -0.437882  0  2.025975  0  0  -0.173944  -0.416683  0  2.033888  0
