# generated using pymatgen
data_Zn2H32C45N8
_symmetry_space_group_name_H-M   'P 1'
_cell_length_a   18.86843756
_cell_length_b   18.93743968
_cell_length_c   20.36846667
_cell_angle_alpha   105.69308108
_cell_angle_beta   107.13435066
_cell_angle_gamma   111.70099895
_symmetry_Int_Tables_number   1
_chemical_formula_structural   Zn2H32C45N8
_chemical_formula_sum   'Zn4 H64 C90 N16'
_cell_volume   5842.35977307
_cell_formula_units_Z   2
loop_
 _symmetry_equiv_pos_site_id
 _symmetry_equiv_pos_as_xyz
  1  'x, y, z'
loop_
 _atom_site_type_symbol
 _atom_site_label
 _atom_site_symmetry_multiplicity
 _atom_site_fract_x
 _atom_site_fract_y
 _atom_site_fract_z
 _atom_site_occupancy
 _atom_site_pbe_bader_charge
 _atom_site_pbe_bader_spin_density
 _atom_site_pbe_cm5_charge
 _atom_site_pbe_ddec_charge
 _atom_site_pbe_ddec_spin_density
 _atom_site_pbe_ddec_sum_bond_order
 _atom_site_pbe_magmom
Zn  Zn0  1  0.89292536  0.89460431  0.49478211  1  1.191908  0  0.738788  0.614205  0  2.404774  0
Zn  Zn1  1  0.11690443  0.11232017  0.50512464  1  1.181264  0  0.739398  0.591857  0  2.522105  0
Zn  Zn2  1  0.09821454  0.99637283  0.60027372  1  1.187901  0  0.743233  0.601537  0  2.47458  0
Zn  Zn3  1  0.91119158  0.01388389  0.40457284  1  1.187516  0  0.741964  0.605436  0  2.454839  0
H  H4  1  0.83282129  0.80010882  0.60367224  1  0.050311  0  0.115186  0.103377  0  1.000164  0
H  H5  1  0.78014569  0.05088347  0.67721620  1  0.039945  0  0.098003  0.101325  0  1.010705  0
H  H6  1  0.78189765  0.19168888  0.54229183  1  0.041794  0  0.098366  0.100626  0  1.011542  0
H  H7  1  0.69566364  0.26311196  0.53453442  1  0.032874  0  0.100371  0.102229  0  0.99638  0
H  H8  1  0.57392882  0.27426076  0.54869411  1  0.039311  0  0.098676  0.099815  0  0.999601  0
H  H9  1  0.15928477  0.75276938  0.45003199  1  0.04584  0  0.097095  0.10001  0  1.012502  0
H  H10  1  0.88526002  0.61089594  0.33245914  1  0.062793  0  0.09675  0.099708  0  1.013663  0
H  H11  1  0.81194534  0.45571597  0.27385223  1  0.039508  0  0.096593  0.101044  0  1.006597  0
H  H12  1  0.89822195  0.25987955  0.31933708  1  0.054865  0  0.094107  0.091885  0  1.047026  0
H  H13  1  0.07742534  0.10953761  0.73495755  1  0.085024  0  0.117882  0.105287  0  1.002822  0
H  H14  1  0.17120124  0.39962672  0.43518099  1  0.065553  0  0.092694  0.090464  0  1.072156  0
H  H15  1  0.88949426  0.86582721  0.26738597  1  0.09486  0  0.115255  0.101705  0  1.015212  0
H  H16  1  0.24297296  0.67828481  0.46079574  1  0.047904  0  0.096797  0.101124  0  1.006921  0
H  H17  1  0.61233004  0.76315059  0.13438339  1  0.020684  0  0.09368  0.094326  0  1.020192  0
H  H18  1  0.12965687  0.22941453  0.84374694  1  0.038159  0  0.098394  0.097266  0  1.006799  0
H  H19  1  0.12079644  0.37287619  0.71232287  1  0.034309  0  0.098293  0.098152  0  1.003636  0
H  H20  1  0.31050442  0.57606075  0.95860884  1  0.056928  0  0.096937  0.094543  0  1.024952  0
H  H21  1  0.40946297  0.54565020  0.17500481  1  0.029678  0  0.097424  0.096212  0  1.000162  0
H  H22  1  0.21634388  0.35907131  0.96083341  1  0.019267  0  0.098584  0.096645  0  1.007983  0
H  H23  1  0.54833303  0.65362411  0.28238278  1  0.033457  0  0.095609  0.096248  0  1.008701  0
H  H24  1  0.86270325  0.14648121  0.49683744  1  0.093034  0  0.115975  0.102962  0  1.004843  0
H  H25  1  0.32776777  0.46765565  0.04395345  1  0.049609  0  0.095188  0.089333  0  1.017446  0
H  H26  1  0.16469602  0.99844458  0.38824721  1  0.07892  0  0.116689  0.104096  0  0.999731  0
H  H27  1  0.20958159  0.50379450  0.83045997  1  0.036223  0  0.097347  0.095411  0  1.002443  0
H  H28  1  0.07503232  0.81108208  0.77534085  1  0.02247  0  0.093569  0.096521  0  1.017282  0
H  H29  1  0.90007890  0.76932781  0.17110871  1  0.060512  0  0.098503  0.098588  0  1.003025  0
H  H30  1  0.16345658  0.95556005  0.26464497  1  0.034051  0  0.097162  0.096601  0  1.006611  0
H  H31  1  0.08674251  0.83344125  0.00862922  1  0.06225  0  0.09638  0.092844  0  1.029985  0
H  H32  1  0.89592933  0.71944058  0.04497938  1  0.065752  0  0.099382  0.098666  0  1.002668  0
H  H33  1  0.83107678  0.79561684  0.72902483  1  0.032285  0  0.09208  0.093935  0  1.02228  0
H  H34  1  0.09929769  0.26093401  0.60810627  1  0.092648  0  0.117461  0.106033  0  1.003303  0
H  H35  1  0.89282885  0.72816493  0.93860060  1  0.061486  0  0.095425  0.089114  0  1.034684  0
H  H36  1  0.15967817  0.90444728  0.13836603  1  0.06709  0  0.097113  0.094365  0  1.001493  0
H  H37  1  0.72161025  0.88934794  0.24759232  1  0.073683  0  0.116027  0.104078  0  1.001768  0
H  H38  1  0.84156986  0.98710115  0.61611869  1  0.078278  0  0.115945  0.10256  0  1.009072  0
H  H39  1  0.89447911  0.15187109  0.33679317  1  0.048291  0  0.114753  0.102042  0  1.005775  0
H  H40  1  0.10553054  0.92861380  0.73760948  1  0.085611  0  0.115457  0.10337  0  1.00155  0
H  H41  1  0.70043180  0.72891393  0.36515400  1  0.060764  0  0.114951  0.102545  0  1.001723  0
H  H42  1  0.32220056  0.19423905  0.55476415  1  0.06062  0  0.115033  0.100537  0  1.011088  0
H  H43  1  0.15156129  0.87140617  0.50808976  1  0.061469  0  0.115549  0.102529  0  1.007276  0
H  H44  1  0.87797888  0.73354524  0.37268209  1  0.094127  0  0.115332  0.101617  0  1.008497  0
H  H45  1  0.22466469  0.31375897  0.45235113  1  0.035497  0  0.098618  0.138213  0  0.983087  0
H  H46  1  0.20739414  0.36292341  0.52898652  1  0.037626  0  0.098842  0.137873  0  0.988567  0
H  H47  1  0.22328525  0.27508698  0.52250010  1  0.024639  0  0.091921  0.122202  0  1.015884  0
H  H48  1  0.30290530  0.04146531  0.67964684  1  0.081909  0  0.116741  0.104334  0  1.000712  0
H  H49  1  0.79374010  0.25461729  0.21373325  1  0.033108  0  0.092122  0.126537  0  0.992621  0
H  H50  1  0.77987331  0.27606947  0.29774751  1  0.031265  0  0.089722  0.121253  0  0.99851  0
H  H51  1  0.73749049  0.30972360  0.23001883  1  0.040084  0  0.091916  0.126848  0  0.997124  0
H  H52  1  0.32526115  0.61409974  0.48552231  1  0.043674  0  0.092167  0.126685  0  0.998056  0
H  H53  1  0.28161027  0.53576978  0.51577182  1  0.033002  0  0.089277  0.120448  0  0.998325  0
H  H54  1  0.27967377  0.50599029  0.42487055  1  0.037307  0  0.091082  0.124738  0  0.993548  0
H  H55  1  0.53129650  0.69928493  0.00722962  1  0.020159  0  0.088159  0.119817  0  1.001842  0
H  H56  1  0.43922199  0.59785852  0.96067428  1  0.056071  0  0.092985  0.130073  0  1.002067  0
H  H57  1  0.43028818  0.68921695  0.99363654  1  0.014612  0  0.090283  0.121701  0  0.997446  0
H  H58  1  0.75416524  0.74724928  0.78984660  1  0.008737  0  0.089011  0.121635  0  1.003108  0
H  H59  1  0.45439621  0.22242280  0.58079627  1  0.031638  0  0.0958  0.097257  0  1.018788  0
H  H60  1  0.77637203  0.68482169  0.83494797  1  0.006619  0  0.091935  0.125432  0  0.995293  0
H  H61  1  0.81770675  0.79330704  0.88955780  1  0.04049  0  0.092405  0.127895  0  0.992826  0
H  H62  1  0.11868513  0.74484747  0.84863316  1  0.015258  0  0.089651  0.123378  0  0.996156  0
H  H63  1  0.14881025  0.82540194  0.93627942  1  0.048454  0  0.088335  0.118917  0  1.001284  0
H  H64  1  0.07627586  0.72037747  0.91207032  1  0.041069  0  0.091952  0.129795  0  1.001606  0
H  H65  1  0.44828976  0.07853859  0.71310106  1  0.045336  0  0.096519  0.099115  0  1.012761  0
H  H66  1  0.56770056  0.04957400  0.75904733  1  0.052982  0  0.098318  0.099851  0  0.99888  0
H  H67  1  0.68981549  0.03928254  0.74568865  1  0.055462  0  0.099445  0.100695  0  0.997125  0
C  C68  1  0.90150831  0.83809374  0.62844810  1  0.413872  0  0.000636  -0.063621  0  4.000786  0
C  C69  1  0.94419097  0.77820242  0.41193816  1  0.3915  0  0.007377  -0.048151  0  3.957932  0
C  C70  1  0.72982004  0.85975545  0.28599988  1  0.422007  0  0.001849  -0.064837  0  4.008613  0
C  C71  1  0.10001003  0.24288584  0.44420818  1  0.446535  0  0.087544  0.203689  0  3.979197  0
C  C72  1  0.29403387  0.07591161  0.64596725  1  0.426858  0  0.004831  -0.058203  0  3.994067  0
C  C73  1  0.67437709  0.78105496  0.27886323  1  0.033433  0  -0.039994  -0.040978  0  4.10447  0
C  C74  1  0.35265943  0.12914180  0.62822544  1  -0.028351  0  -0.039154  -0.038993  0  4.090851  0
C  C75  1  0.01723428  0.76915971  0.42389452  1  0.012635  0  -0.0353  -0.036825  0  4.060892  0
C  C76  1  0.02876025  0.91035269  0.29802130  1  -0.022782  0  -0.035431  -0.039816  0  4.070109  0
C  C77  1  0.48283852  0.19332944  0.61150840  1  0.008677  0  -0.097097  -0.194396  0  3.955133  0
C  C78  1  0.43977059  0.14693393  0.64399319  1  0.013862  0  -0.015242  0.088474  0  4.097214  0
C  C79  1  0.03346336  0.25045573  0.39733819  1  0.024369  0  -0.04089  -0.109012  0  4.048254  0
C  C80  1  0.47936669  0.11269381  0.68541493  1  -0.038523  0  -0.096531  -0.194319  0  3.94555  0
C  C81  1  0.55628320  0.11699374  0.68865813  1  -0.029119  0  -0.011737  0.079273  0  4.057234  0
C  C82  1  0.59520967  0.15740555  0.64905108  1  -0.028631  0  -0.000942  -5.5e-05  0  3.922632  0
C  C83  1  0.08093439  0.13632147  0.69437696  1  0.393706  0  0.009355  -0.045891  0  3.957046  0
C  C84  1  0.55933144  0.19901737  0.61275329  1  -0.017685  0  -0.012205  0.079706  0  4.067463  0
C  C85  1  0.59504085  0.07738385  0.72597917  1  -0.020214  0  -0.096521  -0.140641  0  4.028413  0
C  C86  1  0.66269657  0.07170810  0.71858762  1  -0.090737  0  -0.095346  -0.137492  0  4.025674  0
C  C87  1  0.69777733  0.10493342  0.67306925  1  -0.007724  0  -0.011395  0.079318  0  4.055745  0
C  C88  1  0.66523455  0.15131613  0.64123004  1  -0.008162  0  -0.000749  -0.001428  0  3.923357  0
C  C89  1  0.69976174  0.18632675  0.59668479  1  -0.007495  0  -0.01166  0.078791  0  4.060121  0
C  C90  1  0.09401905  0.21642455  0.70007378  1  0.038215  0  -0.035821  -0.041462  0  4.066973  0
C  C91  1  0.66707305  0.23387076  0.56624959  1  -0.095857  0  -0.094241  -0.136845  0  4.026673  0
C  C92  1  0.59986040  0.24003538  0.57400951  1  0.00286  0  -0.096019  -0.139031  0  4.033961  0
C  C93  1  0.75808658  0.08899743  0.65477841  1  -0.02387  0  -0.09319  -0.189165  0  3.935254  0
C  C94  1  0.78638390  0.11630676  0.60500922  1  -0.005613  0  -0.010564  0.094377  0  4.080219  0
C  C95  1  0.86280852  0.10111763  0.51993647  1  0.393195  0  0.008215  -0.050024  0  3.967199  0
C  C96  1  0.75955477  0.16821112  0.57971631  1  -0.003542  0  -0.093304  -0.188456  0  3.938554  0
C  C97  1  0.10018429  0.69286352  0.41859896  1  -0.00553  0  -0.094617  -0.189326  0  3.932571  0
C  C98  1  0.02169613  0.69181452  0.39560840  1  -0.028054  0  -0.011731  0.091303  0  4.078322  0
C  C99  1  0.94694394  0.61346895  0.35243862  1  -0.039125  0  -0.094754  -0.19004  0  3.936432  0
C  C100  1  0.94858875  0.53761733  0.33896040  1  -0.009233  0  -0.012727  0.087138  0  4.081553  0
C  C101  1  0.83473784  0.08446340  0.57370552  1  0.045554  0  -0.036435  -0.040169  0  4.066178  0
C  C102  1  0.02831581  0.53999680  0.36942017  1  0.005479  0  -0.007327  -0.015896  0  3.950945  0
C  C103  1  0.10504887  0.61856528  0.40673773  1  -0.017805  0  -0.012984  0.08491  0  4.08174  0
C  C104  1  0.87256290  0.45749786  0.30003577  1  -0.069749  0  -0.097553  -0.209255  0  3.977621  0
C  C105  1  0.87325885  0.38454621  0.29680908  1  -0.025925  0  -0.012271  0.121223  0  3.981467  0
C  C106  1  0.95349751  0.38768668  0.33390332  1  -0.010197  0  -0.011835  0.024314  0  4.010133  0
C  C107  1  0.09166035  0.21328882  0.62951162  1  0.372633  0  0.00882  -0.044819  0  3.958302  0
C  C108  1  0.03090130  0.46552375  0.36706566  1  -0.019067  0  -0.00173  0.003934  0  3.953734  0
C  C109  1  0.11049531  0.46856700  0.40170721  1  6.7e-05  0  -0.012782  0.024184  0  4.002566  0
C  C110  1  0.18842591  0.54727985  0.43336751  1  0.031452  0  -0.013351  0.118717  0  3.980582  0
C  C111  1  0.18414981  0.61846900  0.43508081  1  -0.079073  0  -0.097329  -0.207508  0  3.978333  0
C  C112  1  0.71860117  0.77854765  0.34637562  1  0.433928  0  0.001696  -0.064252  0  4.007541  0
C  C113  1  0.95748723  0.31795570  0.34188046  1  -0.051146  0  -0.10056  -0.193036  0  3.960258  0
C  C114  1  0.03481961  0.32172184  0.38131040  1  -0.0337  0  -0.015219  0.100066  0  4.083206  0
C  C115  1  0.11057026  0.39635728  0.40748390  1  -0.049666  0  -0.102379  -0.19715  0  3.951029  0
C  C116  1  0.59082861  0.71788168  0.21680426  1  0.020503  0  -0.014923  0.090497  0  4.083223  0
C  C117  1  0.56647817  0.71696607  0.14431520  1  -0.070868  0  -0.103087  -0.211079  0  3.96746  0
C  C118  1  0.48734984  0.65778257  0.08298787  1  0.015135  0  -0.007332  0.135197  0  3.924953  0
C  C119  1  0.85229813  0.02011218  0.58094656  1  0.407675  0  0.006983  -0.050556  0  3.965736  0
C  C120  1  0.42842558  0.59457434  0.09397938  1  -0.011463  0  -0.019555  0.042847  0  4.00592  0
C  C121  1  0.45392011  0.59477381  0.16659700  1  -0.103464  0  -0.097435  -0.130941  0  4.034781  0
C  C122  1  0.53223246  0.65494311  0.22687071  1  0.03042  0  -0.104337  -0.150718  0  4.03895  0
C  C123  1  0.30393400  0.15365722  0.58241514  1  0.433764  0  0.003535  -0.061046  0  4.00819  0
C  C124  1  0.19604864  0.36308211  0.90660582  1  -0.083582  0  -0.09255  -0.123697  0  3.991869  0
C  C125  1  0.14652227  0.28944486  0.84017943  1  0.014534  0  -0.096006  -0.13465  0  4.007407  0
C  C126  1  0.14178407  0.36935392  0.76672479  1  -0.057839  0  -0.098988  -0.138414  0  4.00836  0
C  C127  1  0.19155914  0.44328622  0.83340707  1  -0.055007  0  -0.09581  -0.135167  0  4.006481  0
C  C128  1  0.22511145  0.44233864  0.90464004  1  0.063945  0  -0.020622  0.098144  0  4.06311  0
C  C129  1  0.34696208  0.52450312  0.03420571  1  -0.122398  0  -0.098729  -0.132278  0  4.025038  0
C  C130  1  0.29549951  0.51972950  0.96870056  1  -0.026714  0  -0.098181  -0.141403  0  4.022748  0
C  C131  1  0.96041588  0.17393752  0.37347892  1  0.427464  0  0.003321  -0.056153  0  4.033774  0
C  C132  1  0.12322226  0.29082431  0.76821310  1  0.02304  0  -0.009903  0.086971  0  4.042358  0
C  C133  1  0.95609158  0.81205436  0.74774764  1  0.039951  0  -0.016352  0.09415  0  4.108157  0
C  C134  1  0.08365362  0.84863868  0.48065878  1  0.428977  0  0.006667  -0.051241  0  3.968355  0
C  C135  1  0.02185428  0.80139373  0.78977551  1  -0.021226  0  -0.1064  -0.219421  0  3.990463  0
C  C136  1  0.02179927  0.77827406  0.84919300  1  -0.020236  0  -0.01092  0.133143  0  3.95784  0
C  C137  1  0.95308761  0.76544140  0.86876099  1  -0.011598  0  -0.018601  -0.017457  0  3.954813  0
C  C138  1  0.88144123  0.76639854  0.82073111  1  -0.038032  0  -0.011777  0.12963  0  3.963782  0
C  C139  1  0.88453476  0.79036904  0.76224012  1  -0.023583  0  -0.107541  -0.219117  0  3.996244  0
C  C140  1  0.95493932  0.77163850  0.09277216  1  -0.100696  0  -0.093615  -0.127132  0  3.988111  0
C  C141  1  0.95725051  0.79993434  0.16416637  1  -0.052552  0  -0.095449  -0.134932  0  4.000226  0
C  C142  1  0.10476286  0.90290568  0.21691398  1  -0.041397  0  -0.098187  -0.137825  0  4.009054  0
C  C143  1  0.04053945  0.90237172  0.69577425  1  0.385529  0  0.003211  -0.062551  0  4.009417  0
C  C144  1  0.10252424  0.87431197  0.14554682  1  -0.031419  0  -0.095617  -0.132111  0  4.000729  0
C  C145  1  0.95628333  0.90561744  0.30710813  1  0.417826  0  0.008154  -0.045065  0  3.964693  0
C  C146  1  0.02657011  0.81113554  0.08078636  1  -0.003574  0  -0.02073  0.099382  0  4.064285  0
C  C147  1  0.95466749  0.75872089  0.93884844  1  -0.160939  0  -0.099404  -0.126438  0  4.011842  0
C  C148  1  0.02472716  0.79821111  0.00644516  1  0.008624  0  -0.095896  -0.138775  0  4.01144  0
C  C149  1  0.03103777  0.86913411  0.22737265  1  -0.000831  0  -0.009935  0.086304  0  4.03923  0
C  C150  1  0.96431332  0.84711458  0.69308954  1  0.013209  0  -0.039356  -0.036755  0  4.094011  0
C  C151  1  0.19339866  0.30179643  0.48903405  1  -0.032943  0  -0.229235  -0.41587  0  3.990168  0
C  C152  1  0.79191799  0.30212725  0.25747952  1  -0.057939  0  -0.236753  -0.40214  0  4.002477  0
C  C153  1  0.27301850  0.55101213  0.46646149  1  -0.081675  0  -0.236907  -0.400979  0  4.000701  0
C  C154  1  0.47107382  0.66100027  0.00715751  1  -0.051816  0  -0.237538  -0.401642  0  3.984779  0
C  C155  1  0.80357875  0.74706244  0.83463869  1  -0.00916  0  -0.238085  -0.404717  0  3.994878  0
C  C156  1  0.09664412  0.97402895  0.36835289  1  0.437101  0  0.0087  -0.046803  0  3.958513  0
C  C157  1  0.09490416  0.76640452  0.88878208  1  -0.068647  0  -0.237811  -0.403101  0  3.98686  0
N  N158  1  0.93767549  0.88377480  0.59531976  1  -0.803756  0  -0.268474  -0.178149  0  3.532426  0
N  N159  1  0.07316149  0.09091058  0.62661581  1  -0.768738  0  -0.284864  -0.182659  0  3.651711  0
N  N160  1  0.89320498  0.04992930  0.49704356  1  -0.783996  0  -0.280215  -0.172917  0  3.6373  0
N  N161  1  0.07973347  0.13814492  0.58678363  1  -0.806516  0  -0.286119  -0.187532  0  3.650344  0
N  N162  1  0.88672848  0.00011766  0.53449186  1  -0.790929  0  -0.279747  -0.174459  0  3.631224  0
N  N163  1  0.98078570  0.12486536  0.40292573  1  -0.803213  0  -0.275265  -0.17291  0  3.583405  0
N  N164  1  0.02428540  0.92409722  0.63764315  1  -0.781929  0  -0.272903  -0.173488  0  3.565745  0
N  N165  1  0.79372364  0.84978039  0.38981966  1  -0.81202  0  -0.269363  -0.176603  0  3.5372  0
N  N166  1  0.22361201  0.11804469  0.57374192  1  -0.798355  0  -0.27205  -0.168432  0  3.565486  0
N  N167  1  0.05186750  0.89939753  0.50107577  1  -0.789764  0  -0.28373  -0.180236  0  3.637036  0
N  N168  1  0.97982887  0.96279594  0.37641090  1  -0.798876  0  -0.285807  -0.188257  0  3.651049  0
N  N169  1  0.06602290  0.00466640  0.41413670  1  -0.790456  0  -0.282449  -0.176809  0  3.641834  0
N  N170  1  0.96614594  0.85607536  0.45890012  1  -0.78038  0  -0.280075  -0.176779  0  3.630944  0
N  N171  1  0.80047246  0.90046326  0.35227520  1  -0.81419  0  -0.268132  -0.170592  0  3.547778  0
N  N172  1  0.21720790  0.06947846  0.61330754  1  -0.790361  0  -0.269753  -0.170817  0  3.539277  0
N  N173  1  0.06712693  0.16747307  0.44648471  1  -0.794701  0  -0.272065  -0.231237  0  3.513959  0
