# generated using pymatgen
data_Zn2H19C34Br3(NO5)2
_symmetry_space_group_name_H-M   'P 1'
_cell_length_a   9.86566855
_cell_length_b   10.96982446
_cell_length_c   10.96119298
_cell_angle_alpha   107.28955855
_cell_angle_beta   84.12156875
_cell_angle_gamma   93.70233934
_symmetry_Int_Tables_number   1
_chemical_formula_structural   Zn2H19C34Br3(NO5)2
_chemical_formula_sum   'Zn2 H19 C34 Br3 N2 O10'
_cell_volume   1125.98553345
_cell_formula_units_Z   1
loop_
 _symmetry_equiv_pos_site_id
 _symmetry_equiv_pos_as_xyz
  1  'x, y, z'
loop_
 _atom_site_type_symbol
 _atom_site_label
 _atom_site_symmetry_multiplicity
 _atom_site_fract_x
 _atom_site_fract_y
 _atom_site_fract_z
 _atom_site_occupancy
 _atom_site_pbe_bader_charge
 _atom_site_pbe_bader_spin_density
 _atom_site_pbe_cm5_charge
 _atom_site_pbe_ddec_charge
 _atom_site_pbe_ddec_spin_density
 _atom_site_pbe_ddec_sum_bond_order
 _atom_site_pbe_magmom
Zn  Zn0  1  0.35754756  0.50433264  0.52927395  1  1.311511  0  0.686309  0.85406  0  2.324548  0
Zn  Zn1  1  0.65678119  0.49708106  0.48073334  1  1.304271  0  0.682955  0.863759  0  2.302843  0
H  H2  1  0.14886694  0.33886173  0.39344614  1  0.118567  0  0.128442  0.107634  0  1.008368  0
H  H3  1  0.34066656  0.33824275  0.72493695  1  0.114395  0  0.100008  0.114019  0  1.050022  0
H  H4  1  0.26093948  0.70444086  0.36391295  1  0.127229  0  0.101338  0.114596  0  1.028893  0
H  H5  1  0.14917047  0.22065210  0.80210177  1  0.085545  0  0.098826  0.098465  0  0.998292  0
H  H6  1  0.05684469  0.77122974  0.29327363  1  0.068376  0  0.094142  0.09486  0  1.003561  0
H  H7  1  0.12196427  0.21772080  0.03075324  1  0.056475  0  0.08994  0.090661  0  1.017714  0
H  H8  1  0.03464617  0.99912340  0.30064664  1  0.061836  0  0.090048  0.08262  0  1.030778  0
H  H9  1  0.30110356  0.32062711  0.17529187  1  0.085197  0  0.097288  0.107406  0  1.043274  0
H  H10  1  0.22399224  0.15632730  0.37241406  1  0.083503  0  0.09481  0.09926  0  1.061964  0
H  H11  1  0.71162780  0.56499427  0.13710738  1  0.128386  0  0.105408  0.123799  0  1.008708  0
H  H12  1  0.67958500  0.12433951  0.46002082  1  0.139353  0  0.104673  0.123149  0  1.01515  0
H  H13  1  0.90104109  0.34229838  0.35139711  1  0.103672  0  0.136794  0.115385  0  0.954848  0
H  H14  1  0.74864122  0.72908047  0.61169767  1  0.15225  0  0.109842  0.144246  0  1.068907  0
H  H15  1  0.19540863  0.57203144  0.86511646  1  0.043354  0  0.095648  0.104648  0  1.001439  0
H  H16  1  0.15912813  0.73738072  0.94582139  1  0.055301  0  0.082262  0.078501  0  1.053007  0
H  H17  1  0.33205315  0.68814602  0.90633167  1  0.080731  0  0.107432  0.125475  0  0.975367  0
H  H18  1  0.64259133  0.85158499  0.80803943  1  0.084038  0  0.102559  0.111613  0  0.986367  0
H  H19  1  0.67793611  0.93158086  0.68586730  1  0.09485  0  0.092881  0.099662  0  1.039711  0
H  H20  1  0.66153484  0.02314843  0.85202406  1  0.106899  0  0.118222  0.131804  0  0.952014  0
C  C21  1  0.49025964  0.72814080  0.47864089  1  1.583564  0  0.216592  0.60204  0  4.147573  0
C  C22  1  0.54563554  0.50335411  0.73532935  1  1.595427  0  0.217033  0.605093  0  4.157637  0
C  C23  1  0.63920297  0.53662408  0.95051779  1  -0.070674  0  -0.012621  0.094742  0  3.965812  0
C  C24  1  0.60240423  0.93136659  0.44062456  1  -0.141441  0  -0.010591  0.087691  0  3.960952  0
C  C25  1  0.63307581  0.52069024  0.07346651  1  -0.018627  0  -0.09463  -0.157839  0  4.005842  0
C  C26  1  0.59023851  0.05992120  0.44648424  1  -0.015194  0  -0.094759  -0.157974  0  4.015569  0
C  C27  1  0.52615045  0.45267972  0.11698255  1  -0.020666  0  -0.006762  -0.04261  0  3.919654  0
C  C28  1  0.46669620  0.10859859  0.43948395  1  0.005677  0  -0.00574  -0.045098  0  3.89842  0
C  C29  1  0.85136281  0.72616872  0.63757626  1  0.086956  0  -0.12015  -0.321011  0  4.014497  0
C  C30  1  0.90655733  0.82651265  0.73035224  1  0.55735  0  0.087982  0.24506  0  4.10606  0
C  C31  1  0.04089830  0.81811552  0.76464854  1  -0.071972  0  -0.025135  -0.089157  0  3.923547  0
C  C32  1  0.11580404  0.70930134  0.71070857  1  0.630351  0  0.089104  0.158089  0  4.051764  0
C  C33  1  0.06444910  0.60996911  0.60682082  1  0.517658  0  0.119894  0.081017  0  3.926682  0
C  C34  1  0.92808262  0.61873044  0.57482451  1  0.419102  0  0.120212  0.209141  0  3.98312  0
C  C35  1  0.94830999  0.42071950  0.42260502  1  0.573994  0  0.069484  0.061247  0  3.913728  0
C  C36  1  0.46673743  0.25177457  0.46434836  1  1.588241  0  0.218848  0.598915  0  4.138068  0
C  C37  1  0.52793594  0.45131430  0.25361674  1  1.588418  0  0.215874  0.60198  0  4.148584  0
C  C38  1  0.08465178  0.41730279  0.44762706  1  0.526415  0  0.05866  0.044006  0  3.906025  0
C  C39  1  0.33269046  0.33693766  0.82400031  1  -0.113378  0  -0.095736  -0.132201  0  3.964266  0
C  C40  1  0.25212596  0.80391030  0.36868807  1  -0.088146  0  -0.09296  -0.123815  0  3.960117  0
C  C41  1  0.22418706  0.27090569  0.86772714  1  -0.015629  0  -0.096213  -0.082984  0  4.043982  0
C  C42  1  0.13755323  0.84186019  0.32925440  1  -0.047055  0  -0.100147  -0.083368  0  4.038069  0
C  C43  1  0.21023910  0.26711661  0.99598507  1  -0.007817  0  -0.104837  -0.091837  0  4.068732  0
C  C44  1  0.12569812  0.97001249  0.33176915  1  -0.079783  0  -0.103578  -0.091398  0  4.072134  0
C  C45  1  0.30868661  0.32493710  0.07697761  1  -0.091731  0  -0.097987  -0.13525  0  3.991935  0
C  C46  1  0.23048689  0.05766885  0.37157067  1  0.002122  0  -0.099308  -0.13322  0  3.993238  0
C  C47  1  0.42164709  0.39415497  0.03535606  1  0.021749  0  -0.003681  0.054393  0  3.951836  0
C  C48  1  0.35172183  0.02176130  0.40921733  1  -0.058457  0  -0.000715  0.059332  0  3.935896  0
C  C49  1  0.43249903  0.40461427  0.90657707  1  -0.015729  0  0.002656  0.071432  0  3.918147  0
C  C50  1  0.36296929  0.89132754  0.40982085  1  -0.001696  0  0.004051  0.07685  0  3.897031  0
C  C51  1  0.54213999  0.48120061  0.86512110  1  -0.016547  0  -0.015827  -0.127175  0  3.885993  0
C  C52  1  0.48843058  0.84919312  0.43987947  1  0.066691  0  -0.011893  -0.119419  0  3.857759  0
C  C53  1  0.22871780  0.67183917  0.87578183  1  0.376732  0  -0.142764  -0.165644  0  3.860562  0
C  C54  1  0.69587981  0.93354477  0.78362463  1  0.299582  0  -0.130625  -0.162532  0  3.839928  0
Br  Br55  1  0.78667057  0.64678668  0.91696937  1  -0.063411  0  0.027412  -0.064503  0  1.553436  0
Br  Br56  1  0.78749744  0.88564157  0.43140696  1  -0.044836  0  0.062609  -0.032855  0  1.625814  0
Br  Br57  1  0.11640831  0.95791067  0.88710242  1  0.019355  0  0.089215  0.015535  0  1.598754  0
N  N58  1  0.87154054  0.51903054  0.48453634  1  -1.215955  0  -0.292688  -0.204483  0  3.433348  0
N  N59  1  0.14133351  0.50932247  0.53916545  1  -1.209516  0  -0.289999  -0.187072  0  3.464979  0
O  O60  1  0.37608012  0.68590016  0.51749467  1  -1.150886  0  -0.304394  -0.526809  0  2.413991  0
O  O61  1  0.43165126  0.51986006  0.69914343  1  -1.171414  0  -0.302859  -0.542436  0  2.455306  0
O  O62  1  0.60409718  0.67860301  0.47688711  1  -1.177923  0  -0.315368  -0.56435  0  2.419913  0
O  O63  1  0.65988163  0.50550751  0.67088458  1  -1.156317  0  -0.3135  -0.543263  0  2.379839  0
O  O64  1  0.35250100  0.30723078  0.49175972  1  -1.163996  0  -0.313549  -0.552042  0  2.336356  0
O  O65  1  0.41593766  0.46055937  0.32375534  1  -1.176343  0  -0.312665  -0.565122  0  2.321889  0
O  O66  1  0.58292258  0.30799514  0.46155055  1  -1.174023  0  -0.313742  -0.548303  0  2.343591  0
O  O67  1  0.64649927  0.44760952  0.28924448  1  -1.152054  0  -0.323678  -0.541722  0  2.310236  0
O  O68  1  0.23740075  0.69611323  0.75190518  1  -1.067518  0  -0.193538  -0.166729  0  2.627909  0
O  O69  1  0.83981743  0.93239012  0.79670426  1  -1.066389  0  -0.176812  -0.149967  0  2.601609  0
