# generated using pymatgen
data_Mn3H14C8(N9O)4
_symmetry_space_group_name_H-M   'P 1'
_cell_length_a   9.40916899
_cell_length_b   11.67593682
_cell_length_c   14.95429190
_cell_angle_alpha   112.99515646
_cell_angle_beta   108.33795571
_cell_angle_gamma   89.99621123
_symmetry_Int_Tables_number   1
_chemical_formula_structural   Mn3H14C8(N9O)4
_chemical_formula_sum   'Mn6 H28 C16 N72 O8'
_cell_volume   1421.28591051
_cell_formula_units_Z   2
loop_
 _symmetry_equiv_pos_site_id
 _symmetry_equiv_pos_as_xyz
  1  'x, y, z'
loop_
 _atom_site_type_symbol
 _atom_site_label
 _atom_site_symmetry_multiplicity
 _atom_site_fract_x
 _atom_site_fract_y
 _atom_site_fract_z
 _atom_site_occupancy
 _atom_site_hle17_ddec_charge
 _atom_site_hle17_ddec_spin_density
 _atom_site_hle17_ddec_sum_bond_order
 _atom_site_hle17_magmom
 _atom_site_hse06_10hf_ddec_charge
 _atom_site_hse06_10hf_ddec_spin_density
 _atom_site_hse06_10hf_ddec_sum_bond_order
 _atom_site_hse06_10hf_magmom
 _atom_site_hse06_ddec_charge
 _atom_site_hse06_ddec_spin_density
 _atom_site_hse06_ddec_sum_bond_order
 _atom_site_hse06_magmom
 _atom_site_pbe_cm5_charge
 _atom_site_pbe_ddec_charge
 _atom_site_pbe_ddec_spin_density
 _atom_site_pbe_ddec_sum_bond_order
 _atom_site_pbe_magmom
Mn  Mn0  1  0.99999938  0.49999989  0.99999893  1  1.038985  4.809492  1.876399  4.684  0.844268  4.730847  2.397896  4.539  0.897582  4.774036  2.334624  4.597  0.638737  0.801002  4.686585  2.445265  4.483
Mn  Mn1  1  0.49999979  0.00000083  0.00000192  1  1.038768  4.809524  1.877488  4.684  0.843738  4.730894  2.399383  4.539  0.897136  4.774075  2.33595  4.597  0.638497  0.800507  4.686802  2.446791  4.483
Mn  Mn2  1  0.68768168  0.68782907  0.37552330  1  1.082788  -4.788683  1.871645  -4.652  0.891349  -4.7174  2.403226  -4.511  0.954204  -4.762459  2.33442  -4.578  0.552801  0.843971  -4.669922  2.451292  -4.445
Mn  Mn3  1  0.81236864  0.81201045  0.62442736  1  1.082187  -4.788531  1.872616  -4.652  0.890909  -4.716999  2.404141  -4.511  0.953912  -4.762104  2.335039  -4.578  0.552725  0.843437  -4.669464  2.452378  -4.445
Mn  Mn4  1  0.31231630  0.31217009  0.62447626  1  1.08275  -4.788678  1.871703  -4.652  0.891326  -4.717399  2.403281  -4.511  0.954181  -4.762456  2.334478  -4.578  0.552773  0.843919  -4.669925  2.451368  -4.445
Mn  Mn5  1  0.18763158  0.18798871  0.37557197  1  1.082157  -4.788513  1.872636  -4.652  0.890862  -4.716987  2.404174  -4.511  0.953868  -4.762096  2.33507  -4.578  0.552709  0.843391  -4.669444  2.452413  -4.445
H  H6  1  0.40010987  0.27530399  0.21132249  1  0.299935  -4.7e-05  0.948319  0.0  0.262718  -9.5e-05  1.04111  0.0  0.272465  -7.7e-05  1.032805  0.0  0.310122  0.255635  -0.000105  1.047097  0.0
H  H7  1  0.81104795  0.93625326  0.21133444  1  0.299858  -4.7e-05  0.948032  0.0  0.262638  -9.6e-05  1.040556  0.0  0.272362  -7.8e-05  1.032246  0.0  0.309963  0.255551  -0.000107  1.046575  0.0
H  H8  1  0.09973142  0.56390003  0.78884051  1  0.300324  -4.7e-05  0.947854  0.0  0.262971  -9.7e-05  1.040638  0.0  0.272724  -7.8e-05  1.032381  0.0  0.309952  0.255855  -0.000108  1.046641  0.0
H  H9  1  0.68891920  0.22461032  0.78860590  1  0.300582  -4.7e-05  0.946904  0.0  0.262719  -9.6e-05  1.040173  0.0  0.272479  -7.8e-05  1.031894  0.0  0.310307  0.255631  -0.000108  1.046172  0.0
H  H10  1  0.59988842  0.72469705  0.78867837  1  0.299931  -4.6e-05  0.948377  0.0  0.262708  -9.5e-05  1.041171  0.0  0.272454  -7.7e-05  1.032865  0.0  0.310101  0.25562  -0.000105  1.047164  0.0
H  H11  1  0.18895146  0.06374776  0.78866396  1  0.299893  -4.6e-05  0.947987  0.0  0.262668  -9.6e-05  1.040505  0.0  0.272391  -7.7e-05  1.032194  0.0  0.309994  0.255577  -0.000107  1.046536  0.0
H  H12  1  0.90027262  0.43610192  0.21115775  1  0.300306  -4.8e-05  0.947868  0.0  0.262978  -9.7e-05  1.040619  0.0  0.272728  -7.8e-05  1.032364  0.0  0.309968  0.255865  -0.000108  1.046624  0.0
H  H13  1  0.31107991  0.77538886  0.21139657  1  0.300503  -4.7e-05  0.947046  0.0  0.262671  -9.6e-05  1.040295  0.0  0.272419  -7.8e-05  1.03202  0.0  0.310286  0.255584  -0.000108  1.046302  0.0
H  H14  1  0.58724509  0.23593688  0.35542154  1  0.321901  -0.000281  0.861848  0.0  0.298727  -0.000614  0.929495  0.0  0.306982  -0.000414  0.922428  0.0  0.34983  0.292527  -0.000794  0.935171  0.0
H  H15  1  0.76803518  0.11979024  0.35567027  1  0.322734  -0.000284  0.862198  0.0  0.299667  -0.000619  0.930061  0.0  0.307939  -0.000419  0.922836  0.0  0.349861  0.293532  -0.000798  0.935587  0.0
H  H16  1  0.91257737  0.38033640  0.64464773  1  0.322508  -0.000281  0.861123  0.0  0.29948  -0.000617  0.92922  0.0  0.307781  -0.000417  0.921989  0.0  0.349871  0.293358  -0.000794  0.934706  0.0
H  H17  1  0.73198098  0.26385703  0.64444971  1  0.322371  -0.000283  0.861312  0.0  0.299053  -0.000618  0.929554  0.0  0.307364  -0.000418  0.922347  0.0  0.349713  0.292955  -0.000794  0.934916  0.0
H  H18  1  0.41275641  0.76406321  0.64457766  1  0.321877  -0.000281  0.861804  0.0  0.29871  -0.000614  0.929432  0.0  0.306963  -0.000415  0.922367  0.0  0.349809  0.292504  -0.000794  0.935114  0.0
H  H19  1  0.23196743  0.88020986  0.64433050  1  0.32273  -0.000283  0.862212  0.0  0.299733  -0.000619  0.929987  0.0  0.308005  -0.000419  0.922768  0.0  0.349918  0.293599  -0.000797  0.935516  0.0
H  H20  1  0.08742606  0.61966183  0.35535397  1  0.322488  -0.000283  0.861174  0.0  0.299467  -0.000617  0.929255  0.0  0.307771  -0.000417  0.922023  0.0  0.349864  0.293343  -0.000794  0.934742  0.0
H  H21  1  0.26801732  0.73614402  0.35555182  1  0.322339  -0.000282  0.86131  0.0  0.299036  -0.000618  0.929533  0.0  0.307344  -0.000418  0.922328  0.0  0.349719  0.292942  -0.000795  0.934894  0.0
H  H22  1  0.51123045  0.75030726  0.50011962  1  0.36897  -0.004607  0.947587  -0.007  0.331653  -0.007222  1.026506  -0.008  0.339334  -0.005756  1.015533  -0.007  0.267994  0.326435  -0.008563  1.033799  -0.009
H  H23  1  0.98883765  0.74988119  0.49987265  1  0.368779  -0.004613  0.947787  -0.007  0.331569  -0.007229  1.026546  -0.008  0.339243  -0.005763  1.015579  -0.007  0.267899  0.326352  -0.008569  1.03384  -0.009
H  H24  1  0.48877186  0.24969098  0.49988186  1  0.368938  -0.004608  0.947594  -0.007  0.331617  -0.007223  1.026507  -0.008  0.339299  -0.005758  1.015533  -0.007  0.26796  0.326396  -0.008565  1.033803  -0.009
H  H25  1  0.01115771  0.25012919  0.50012442  1  0.368739  -0.004614  0.947831  -0.007  0.331519  -0.007231  1.026611  -0.008  0.339194  -0.005765  1.015643  -0.007  0.267878  0.326301  -0.008572  1.033906  -0.009
H  H26  1  0.83835234  0.27184362  0.99972211  1  0.440058  0.001016  0.814956  0.002  0.407248  0.002088  0.897215  0.003  0.417184  0.001554  0.884075  0.003  0.316824  0.39978  0.002619  0.906185  0.003
H  H27  1  0.16164276  0.72815172  0.00027039  1  0.440043  0.001016  0.815007  0.002  0.407242  0.002088  0.89724  0.003  0.417177  0.001555  0.884084  0.003  0.316826  0.399769  0.002619  0.906222  0.003
H  H28  1  0.66167518  0.77221385  0.00033012  1  0.440991  0.001015  0.813174  0.002  0.408008  0.002085  0.895929  0.003  0.417967  0.001551  0.882998  0.003  0.31708  0.400504  0.002602  0.904961  0.003
H  H29  1  0.33832600  0.22779101  0.99967915  1  0.441062  0.001015  0.813126  0.002  0.408072  0.002085  0.895883  0.003  0.418031  0.001551  0.882917  0.003  0.3171  0.400562  0.002602  0.904921  0.003
H  H30  1  0.00680717  0.26359614  0.00009787  1  0.436466  9.4e-05  0.807851  0.001  0.407913  0.000936  0.881698  0.001  0.418009  0.000568  0.869071  0.001  0.323045  0.400518  0.001261  0.890903  0.001
H  H31  1  0.99318776  0.73639824  0.99989163  1  0.436493  9.4e-05  0.807845  0.001  0.407939  0.000936  0.881691  0.001  0.418033  0.000568  0.869064  0.001  0.323029  0.400542  0.00126  0.890904  0.001
H  H32  1  0.49315820  0.76346105  0.99980902  1  0.436365  9.6e-05  0.808543  0.001  0.408053  0.000938  0.881754  0.001  0.418148  0.000569  0.869122  0.001  0.323073  0.400682  0.001262  0.890939  0.001
H  H33  1  0.50684155  0.23654191  0.00019806  1  0.436266  9.6e-05  0.808634  0.001  0.40797  0.000937  0.88183  0.001  0.418064  0.000568  0.869201  0.001  0.323065  0.400596  0.001262  0.891019  0.001
C  C34  1  0.39364473  0.44927269  0.20371824  1  0.480988  0.000493  3.844703  0.0  0.440932  3e-05  4.123861  -0.001  0.458365  -0.000108  4.137108  -0.001  0.325731  0.428883  0.000137  4.115098  -0.001
C  C35  1  0.80983940  0.75459581  0.20357350  1  0.481281  0.000522  3.841895  0.0  0.440633  6.8e-05  4.121866  -0.001  0.458005  -7.5e-05  4.135119  -0.001  0.325886  0.428594  0.000182  4.11313  -0.001
C  C36  1  0.10625480  0.74548871  0.79646453  1  0.481698  0.000488  3.842207  0.0  0.441387  3.4e-05  4.121284  -0.001  0.458857  -0.000108  4.134541  -0.001  0.325473  0.429275  0.000135  4.112542  -0.001
C  C37  1  0.69012922  0.05071296  0.79631883  1  0.481053  0.000524  3.843807  0.0  0.440397  5.8e-05  4.123404  -0.001  0.457854  -8.2e-05  4.136718  -0.001  0.325779  0.428356  0.000177  4.114626  -0.001
C  C38  1  0.60635565  0.55072740  0.79628208  1  0.481064  0.000499  3.84485  0.0  0.441043  3e-05  4.123944  -0.001  0.458477  -0.000108  4.137191  -0.001  0.325727  0.428986  0.000137  4.115186  -0.001
C  C39  1  0.19015553  0.24540520  0.79642401  1  0.481416  0.000546  3.841682  0.0  0.440717  6.7e-05  4.121743  -0.001  0.45809  -7.4e-05  4.134991  -0.001  0.325963  0.428674  0.000182  4.113014  -0.001
C  C40  1  0.89374654  0.25451044  0.20353369  1  0.481736  0.000496  3.842189  0.0  0.441414  3.3e-05  4.121281  -0.001  0.45889  -0.000104  4.134527  -0.001  0.325492  0.429301  0.000134  4.112546  -0.001
C  C41  1  0.30987325  0.94928623  0.20368430  1  0.481047  0.000523  3.843708  0.0  0.440465  5.7e-05  4.123241  -0.001  0.457903  -8.2e-05  4.136555  -0.001  0.32575  0.42843  0.000179  4.114452  0.0
C  C42  1  0.59925991  0.38682498  0.31059479  1  0.554042  -0.003789  3.799446  -0.004  0.491205  -0.006195  4.08569  -0.006  0.51556  -0.004913  4.094844  -0.005  0.365915  0.474482  -0.007581  4.079596  -0.007
C  C43  1  0.71126867  0.92395807  0.31061615  1  0.554751  -0.003799  3.794724  -0.004  0.492227  -0.006212  4.080641  -0.006  0.516559  -0.004931  4.08974  -0.005  0.366344  0.4755  -0.007596  4.074595  -0.007
C  C44  1  0.90066943  0.57610753  0.68951856  1  0.554434  -0.003827  3.796739  -0.004  0.492026  -0.006234  4.082362  -0.006  0.516457  -0.004951  4.091484  -0.005  0.36611  0.475255  -0.007617  4.076306  -0.008
C  C45  1  0.78875790  0.11301822  0.68935190  1  0.554712  -0.003799  3.796223  -0.004  0.491661  -0.006203  4.082459  -0.006  0.516141  -0.00492  4.091619  -0.005  0.366198  0.474886  -0.007572  4.076409  -0.007
C  C46  1  0.40073807  0.61317417  0.68940343  1  0.554068  -0.003784  3.799472  -0.004  0.491197  -0.006194  4.085736  -0.006  0.515554  -0.004916  4.094892  -0.005  0.365932  0.47447  -0.00758  4.079636  -0.007
C  C47  1  0.28872722  0.07604201  0.68938194  1  0.554542  -0.003788  3.795067  -0.004  0.492176  -0.006212  4.080798  -0.006  0.516519  -0.004929  4.089895  -0.005  0.366358  0.475444  -0.007596  4.074764  -0.007
C  C48  1  0.09933334  0.42389352  0.31048252  1  0.554429  -0.003812  3.796421  -0.004  0.492107  -0.006236  4.081939  -0.006  0.516537  -0.004948  4.091058  -0.005  0.36616  0.475321  -0.007618  4.075911  -0.008
C  C49  1  0.21124360  0.88698190  0.31065066  1  0.55468  -0.003806  3.796083  -0.004  0.49173  -0.006203  4.082249  -0.006  0.516197  -0.004921  4.091402  -0.005  0.366234  0.474957  -0.007572  4.076206  -0.007
N  N50  1  0.44517054  0.57214363  0.23855507  1  -0.36779  -0.014379  3.00154  -0.003  -0.328027  -0.021155  3.30188  -0.007  -0.344121  -0.019845  3.310625  -0.007  -0.212331  -0.316935  -0.022308  3.29644  -0.008
N  N51  1  0.79339060  0.66658545  0.23846813  1  -0.367837  -0.014332  3.000483  -0.003  -0.327841  -0.021154  3.300816  -0.007  -0.343927  -0.01984  3.309591  -0.007  -0.212248  -0.316778  -0.022298  3.295404  -0.008
N  N52  1  0.05478677  0.83347386  0.76157404  1  -0.367794  -0.014358  3.00124  -0.003  -0.32792  -0.021168  3.301522  -0.007  -0.344008  -0.01985  3.310249  -0.007  -0.212053  -0.316815  -0.022308  3.296083  -0.008
N  N53  1  0.70665196  0.92779993  0.76145111  1  -0.367527  -0.01437  3.001534  -0.004  -0.327825  -0.021183  3.301989  -0.007  -0.343931  -0.019869  3.310774  -0.007  -0.212029  -0.31673  -0.022336  3.296522  -0.008
N  N54  1  0.55482888  0.42785740  0.76144534  1  -0.367809  -0.014375  3.001616  -0.003  -0.32807  -0.021156  3.301939  -0.007  -0.344168  -0.019846  3.310689  -0.007  -0.212358  -0.316979  -0.022302  3.296501  -0.008
N  N55  1  0.20660978  0.33341464  0.76153153  1  -0.367887  -0.014359  3.000566  -0.003  -0.327876  -0.021154  3.300921  -0.007  -0.343957  -0.019847  3.309691  -0.007  -0.212262  -0.316813  -0.022299  3.295504  -0.008
N  N56  1  0.94521728  0.16652810  0.23842489  1  -0.367809  -0.014372  3.001289  -0.003  -0.327913  -0.021167  3.30156  -0.007  -0.344002  -0.019854  3.310284  -0.007  -0.212088  -0.316801  -0.022307  3.296107  -0.008
N  N57  1  0.29334715  0.07219925  0.23855136  1  -0.367566  -0.014379  3.001469  -0.004  -0.327886  -0.021182  3.30191  -0.007  -0.343995  -0.01987  3.310697  -0.007  -0.212047  -0.316788  -0.022336  3.296438  -0.008
N  N58  1  0.33429907  0.61471645  0.18188771  1  -0.084151  0.00363  3.037458  0.004  -0.064293  0.005214  3.322748  0.006  -0.063952  0.004932  3.335411  0.005  -0.090005  -0.064403  0.005324  3.313952  0.006
N  N59  1  0.84746832  0.56731464  0.18168151  1  -0.082988  0.00363  3.035299  0.004  -0.063474  0.005264  3.320903  0.006  -0.063108  0.004972  3.333524  0.005  -0.089817  -0.063598  0.005389  3.312127  0.006
N  N60  1  0.16570548  0.93271355  0.81822605  1  -0.083819  0.003608  3.037121  0.004  -0.064443  0.005235  3.322573  0.006  -0.064098  0.004942  3.335234  0.005  -0.090583  -0.064529  0.005392  3.313752  0.006
N  N61  1  0.65260044  0.88534339  0.81823969  1  -0.083307  0.003606  3.036814  0.004  -0.063582  0.005227  3.322099  0.006  -0.063248  0.004937  3.334779  0.005  -0.090098  -0.063663  0.00536  3.31323  0.006
N  N62  1  0.66569907  0.38528366  0.81811284  1  -0.084149  0.003616  3.037437  0.004  -0.064249  0.005214  3.322698  0.006  -0.063907  0.004933  3.33536  0.005  -0.089978  -0.064372  0.00533  3.31392  0.006
N  N63  1  0.15253317  0.43268545  0.81831769  1  -0.082888  0.003657  3.035325  0.004  -0.063362  0.005263  3.32092  0.006  -0.062999  0.004976  3.333541  0.005  -0.08981  -0.063482  0.005389  3.31213  0.006
N  N64  1  0.83429649  0.06728937  0.18177544  1  -0.083844  0.003623  3.037059  0.004  -0.064478  0.005234  3.322535  0.006  -0.064136  0.00495  3.3352  0.005  -0.090584  -0.064557  0.005392  3.3137  0.006
N  N65  1  0.34739883  0.11465673  0.18176309  1  -0.083201  0.003628  3.036637  0.004  -0.063461  0.005225  3.321907  0.006  -0.063127  0.004942  3.334588  0.005  -0.090049  -0.063547  0.005357  3.313049  0.006
N  N66  1  0.22433592  0.52090083  0.11739572  1  -0.121473  0.024059  3.225304  0.012  -0.080063  0.027062  3.541331  0.011  -0.088082  0.024056  3.554408  0.009  -0.113976  -0.073064  0.029282  3.531621  0.013
N  N67  1  0.89263777  0.59658839  0.11707144  1  -0.121881  0.024113  3.224173  0.012  -0.080389  0.027085  3.540329  0.011  -0.088419  0.024073  3.55337  0.009  -0.114094  -0.073373  0.029303  3.530631  0.013
N  N68  1  0.27563345  0.90343279  0.88274835  1  -0.120695  0.02404  3.224815  0.012  -0.079052  0.027008  3.540605  0.011  -0.087092  0.024009  3.553711  0.009  -0.113155  -0.072029  0.029255  3.530854  0.013
N  N69  1  0.60737263  0.97924952  0.88283080  1  -0.123255  0.024147  3.226394  0.012  -0.081755  0.027138  3.542411  0.011  -0.089776  0.02413  3.555488  0.009  -0.114589  -0.074752  0.029383  3.53267  0.013
N  N70  1  0.77566430  0.47909832  0.88260362  1  -0.121441  0.024071  3.225233  0.012  -0.080047  0.027063  3.541264  0.011  -0.088065  0.024055  3.55434  0.009  -0.113963  -0.073064  0.02928  3.531589  0.013
N  N71  1  0.10736021  0.40341075  0.88292612  1  -0.121965  0.024109  3.224259  0.012  -0.08048  0.027088  3.540438  0.011  -0.088509  0.024077  3.553478  0.009  -0.114086  -0.073467  0.029307  3.530742  0.013
N  N72  1  0.72436628  0.09657014  0.11725403  1  -0.120601  0.024036  3.224734  0.012  -0.078968  0.027007  3.540541  0.011  -0.087008  0.024009  3.553648  0.009  -0.113102  -0.071943  0.029253  3.530786  0.013
N  N73  1  0.39262776  0.02075061  0.11717288  1  -0.123316  0.024132  3.226419  0.012  -0.081824  0.027143  3.542457  0.011  -0.089845  0.024128  3.555532  0.009  -0.114599  -0.07482  0.029386  3.532722  0.013
N  N74  1  0.25818926  0.41417681  0.12797272  1  -0.369468  0.001201  2.919535  0.001  -0.350267  0.003066  3.20118  0.003  -0.36136  0.002632  3.212511  0.003  -0.235779  -0.342597  0.003535  3.193196  0.004
N  N75  1  0.86926959  0.71389891  0.12768492  1  -0.370249  0.001188  2.918994  0.001  -0.350896  0.003043  3.201006  0.003  -0.361979  0.002608  3.212333  0.003  -0.235924  -0.343236  0.003513  3.193034  0.004
N  N76  1  0.24171485  0.78616014  0.87221046  1  -0.369966  0.001211  2.919537  0.001  -0.351027  0.003066  3.20142  0.003  -0.362099  0.002638  3.212717  0.003  -0.235952  -0.343367  0.003533  3.193455  0.004
N  N77  1  0.63068201  0.08593457  0.87220528  1  -0.368748  0.001163  2.918276  0.001  -0.349643  0.003033  3.200427  0.003  -0.360697  0.002597  3.211669  0.003  -0.235364  -0.341987  0.003512  3.192496  0.004
N  N78  1  0.74181432  0.58582234  0.87202527  1  -0.369542  0.001199  2.919528  0.001  -0.350377  0.003068  3.201218  0.003  -0.361472  0.002633  3.21255  0.003  -0.235834  -0.342723  0.003532  3.193261  0.004
N  N79  1  0.13072598  0.28609928  0.87231120  1  -0.370298  0.001169  2.919001  0.001  -0.350924  0.003043  3.20103  0.003  -0.362006  0.002609  3.212353  0.003  -0.235941  -0.343274  0.003514  3.193073  0.004
N  N80  1  0.75828489  0.21384279  0.12779192  1  -0.370036  0.001204  2.919534  0.001  -0.351084  0.003068  3.201419  0.003  -0.362155  0.00263  3.212711  0.003  -0.235972  -0.343421  0.003534  3.193455  0.004
N  N81  1  0.36932174  0.91406556  0.12779839  1  -0.368792  0.001166  2.918184  0.001  -0.349705  0.003032  3.200313  0.003  -0.360763  0.002597  3.211561  0.003  -0.235368  -0.342044  0.003512  3.192372  0.004
N  N82  1  0.46124888  0.36468508  0.23940956  1  -0.487369  -0.000692  3.419176  -0.001  -0.427422  -0.001427  3.667298  -0.002  -0.449285  -0.001165  3.672092  -0.001  -0.385329  -0.411797  -0.001701  3.66411  -0.002
N  N83  1  0.77799207  0.87493599  0.23938163  1  -0.486468  -0.000699  3.416341  -0.001  -0.426097  -0.001432  3.664251  -0.002  -0.44791  -0.001169  3.669057  -0.001  -0.384346  -0.410468  -0.00171  3.661078  -0.002
N  N84  1  0.03860354  0.62518320  0.76076650  1  -0.488562  -0.0007  3.420187  -0.001  -0.427442  -0.001433  3.666574  -0.002  -0.44953  -0.001173  3.671585  -0.001  -0.384127  -0.411623  -0.001711  3.663234  -0.002
N  N85  1  0.72196907  0.13522674  0.76054101  1  -0.486816  -0.000695  3.416873  -0.001  -0.425424  -0.00143  3.664426  -0.002  -0.447463  -0.001165  3.669418  -0.001  -0.384585  -0.409767  -0.00172  3.661194  -0.002
N  N86  1  0.53875262  0.63531502  0.76059098  1  -0.487444  -0.000694  3.419229  -0.001  -0.427488  -0.001426  3.667359  -0.002  -0.449351  -0.001164  3.67215  -0.001  -0.385339  -0.411866  -0.0017  3.664179  -0.002
N  N87  1  0.22200528  0.12505938  0.76061400  1  -0.486477  -0.000703  3.416388  -0.001  -0.426149  -0.001432  3.664313  -0.002  -0.447967  -0.001172  3.669119  -0.001  -0.384422  -0.410511  -0.001709  3.661133  -0.002
N  N88  1  0.96139811  0.37481781  0.23923168  1  -0.488543  -0.000697  3.419874  -0.001  -0.427476  -0.001434  3.66627  -0.002  -0.449572  -0.00117  3.671298  -0.001  -0.384185  -0.411653  -0.001711  3.662946  -0.002
N  N89  1  0.27803132  0.86477338  0.23946133  1  -0.486686  -0.000696  3.416923  -0.001  -0.425384  -0.00143  3.664437  -0.002  -0.447369  -0.001167  3.669379  -0.001  -0.384576  -0.409756  -0.001721  3.66124  -0.002
N  N90  1  0.65003398  0.30388294  0.35156993  1  -0.326222  -4.2e-05  3.377841  0.0  -0.272648  -0.001012  3.641147  0.0  -0.289096  -0.000541  3.650451  0.0  -0.278975  -0.261797  -0.001263  3.635456  0.0
N  N91  1  0.70139401  0.04791193  0.35169613  1  -0.327744  -4.3e-05  3.379261  0.0  -0.274416  -0.001014  3.641432  0.0  -0.290752  -0.000547  3.650621  0.0  -0.279236  -0.263589  -0.001267  3.635825  0.0
N  N92  1  0.84982687  0.45213654  0.64847317  1  -0.326516  -4.5e-05  3.374425  0.0  -0.274137  -0.001021  3.637837  0.0  -0.290558  -0.000549  3.647044  0.0  -0.279289  -0.263334  -0.001273  3.632315  0.0
N  N93  1  0.79862841  0.19594237  0.64834847  1  -0.326893  -3.8e-05  3.377586  0.0  -0.27334  -0.001013  3.640356  0.0  -0.28988  -0.000548  3.649724  0.0  -0.27926  -0.262392  -0.001259  3.634678  0.0
N  N94  1  0.34996608  0.69611528  0.64842977  1  -0.326122  -5.4e-05  3.377824  0.0  -0.272542  -0.001014  3.64116  0.0  -0.288992  -0.000535  3.650466  0.0  -0.278923  -0.261684  -0.001263  3.63547  0.0
N  N95  1  0.29860416  0.95208159  0.64830245  1  -0.32781  -5.9e-05  3.379174  0.0  -0.274574  -0.001019  3.641267  0.0  -0.290934  -0.000535  3.650473  0.0  -0.279406  -0.263742  -0.001267  3.635666  0.0
N  N96  1  0.15017687  0.54786356  0.35152714  1  -0.326418  -4.5e-05  3.374443  0.0  -0.274097  -0.001017  3.637874  0.0  -0.290515  -0.000553  3.647075  0.0  -0.279265  -0.263288  -0.001272  3.632361  0.0
N  N97  1  0.20136958  0.80405679  0.35165244  1  -0.326787  -5.5e-05  3.377521  0.0  -0.273308  -0.001015  3.64036  0.0  -0.289851  -0.000533  3.649735  0.0  -0.279234  -0.262361  -0.001259  3.634695  0.0
N  N98  1  0.79748807  0.34619580  0.41410561  1  -0.065518  -0.002263  2.928709  -0.002  -0.067615  -0.004246  3.241952  -0.004  -0.065391  -0.003144  3.248692  -0.003  -0.078051  -0.069482  -0.005679  3.238291  -0.005
N  N99  1  0.61657766  0.06801498  0.41428730  1  -0.065136  -0.0023  2.930268  -0.003  -0.067124  -0.004232  3.243061  -0.004  -0.064906  -0.003138  3.249763  -0.003  -0.077927  -0.068986  -0.005662  3.239437  -0.005
N  N100  1  0.70245002  0.43192975  0.58580016  1  -0.064701  -0.002256  2.929351  -0.002  -0.066531  -0.004246  3.242403  -0.004  -0.064282  -0.003136  3.249129  -0.003  -0.07768  -0.068416  -0.005674  3.238781  -0.005
N  N101  1  0.88349855  0.15352620  0.58578931  1  -0.065791  -0.00228  2.930233  -0.002  -0.067847  -0.004235  3.243288  -0.004  -0.06557  -0.003135  3.250059  -0.003  -0.07781  -0.069747  -0.005651  3.239618  -0.005
N  N102  1  0.20251231  0.65380428  0.58589337  1  -0.065515  -0.002291  2.928682  -0.002  -0.067618  -0.004243  3.241938  -0.004  -0.06539  -0.003148  3.248677  -0.003  -0.078028  -0.0695  -0.005678  3.238294  -0.005
N  N103  1  0.38342305  0.93198043  0.58571235  1  -0.065064  -0.002257  2.930161  -0.002  -0.067049  -0.004233  3.242962  -0.004  -0.064821  -0.003135  3.249669  -0.003  -0.077858  -0.068916  -0.00566  3.239341  -0.005
N  N104  1  0.29755244  0.56806941  0.41420029  1  -0.06479  -0.002293  2.929407  -0.003  -0.066613  -0.004244  3.242472  -0.004  -0.064364  -0.003145  3.249198  -0.003  -0.077707  -0.068494  -0.005674  3.238847  -0.005
N  N105  1  0.11650071  0.84647391  0.41421213  1  -0.065834  -0.002243  2.930209  -0.002  -0.067877  -0.004237  3.243272  -0.004  -0.0656  -0.003137  3.250044  -0.003  -0.07786  -0.069782  -0.005654  3.23961  -0.005
N  N106  1  0.83247937  0.45121006  0.41124497  1  0.010236  -0.000147  2.904151  -0.002  0.003869  -0.001719  3.214596  -0.004  0.010087  -0.000672  3.222615  -0.003  -0.054007  -0.000843  -0.003362  3.210192  -0.005
N  N107  1  0.57883342  0.96007272  0.41135611  1  0.0085  -0.000117  2.903693  -0.002  0.002214  -0.001731  3.214382  -0.004  0.008398  -0.000672  3.222412  -0.003  -0.054914  -0.002479  -0.00338  3.209981  -0.005
N  N108  1  0.66755059  0.53982784  0.58864733  1  0.008577  -0.000172  2.903305  -0.002  0.002328  -0.001734  3.213884  -0.004  0.008519  -0.000691  3.221895  -0.003  -0.05464  -0.002369  -0.003394  3.209473  -0.005
N  N109  1  0.92128949  0.04850349  0.58867019  1  0.009669  -0.000134  2.903035  -0.002  0.003512  -0.001719  3.213712  -0.004  0.009708  -0.00067  3.221737  -0.003  -0.054248  -0.001191  -0.003381  3.209311  -0.005
N  N110  1  0.16752069  0.54878814  0.58875271  1  0.010196  -0.000115  2.904095  -0.002  0.003833  -0.001722  3.214543  -0.004  0.010049  -0.000662  3.222562  -0.003  -0.054042  -0.000886  -0.003363  3.210153  -0.005
N  N111  1  0.42116537  0.03992456  0.58864305  1  0.008439  -0.000137  2.903707  -0.002  0.00218  -0.001729  3.214398  -0.004  0.008362  -0.000671  3.222426  -0.003  -0.054944  -0.002514  -0.003378  3.209994  -0.005
N  N112  1  0.33245059  0.46017037  0.41135125  1  0.008616  -0.000123  2.903294  -0.002  0.002363  -0.001741  3.213873  -0.004  0.008553  -0.000677  3.221885  -0.003  -0.054626  -0.00233  -0.003396  3.209457  -0.005
N  N113  1  0.07870754  0.95149663  0.41133216  1  0.009682  -0.000156  2.903028  -0.002  0.003539  -0.00172  3.213701  -0.004  0.009736  -0.000673  3.221726  -0.003  -0.054234  -0.001167  -0.003381  3.209302  -0.005
N  N114  1  0.71153967  0.48153861  0.34847956  1  -0.389098  -0.021257  2.977553  -0.008  -0.332263  -0.027844  3.281079  -0.011  -0.353345  -0.025106  3.287715  -0.009  -0.217787  -0.317482  -0.030918  3.277193  -0.013
N  N115  1  0.63699257  0.86704681  0.34851135  1  -0.388922  -0.021271  2.973821  -0.008  -0.332873  -0.027885  3.278313  -0.01  -0.353966  -0.025137  3.284926  -0.009  -0.218334  -0.318125  -0.030961  3.274558  -0.013
N  N116  1  0.78848018  0.63292762  0.65151950  1  -0.388637  -0.021273  2.973957  -0.008  -0.3325  -0.027887  3.278013  -0.01  -0.353603  -0.025132  3.284609  -0.009  -0.218523  -0.31774  -0.03096  3.274247  -0.013
N  N117  1  0.86309948  0.01825138  0.65145201  1  -0.389709  -0.021273  2.975432  -0.008  -0.333508  -0.027887  3.280009  -0.011  -0.354607  -0.025141  3.286549  -0.009  -0.218675  -0.318703  -0.030971  3.27617  -0.013
N  N118  1  0.28846182  0.51846148  0.65152031  1  -0.389093  -0.021253  2.977527  -0.008  -0.33226  -0.027845  3.281082  -0.011  -0.353338  -0.025112  3.287712  -0.009  -0.217833  -0.317476  -0.030919  3.277193  -0.013
N  N119  1  0.36300479  0.13294858  0.65148629  1  -0.388719  -0.021282  2.973878  -0.008  -0.332786  -0.027879  3.278399  -0.01  -0.353875  -0.025153  3.285007  -0.009  -0.218296  -0.318031  -0.030962  3.274637  -0.013
N  N120  1  0.21151989  0.36707059  0.34847886  1  -0.388662  -0.021301  2.97388  -0.008  -0.332538  -0.027887  3.277904  -0.01  -0.353641  -0.025138  3.2845  -0.009  -0.218523  -0.317773  -0.030959  3.274147  -0.013
N  N121  1  0.13689673  0.98175061  0.34854940  1  -0.38975  -0.021267  2.975289  -0.008  -0.3336  -0.027885  3.279903  -0.011  -0.354694  -0.025152  3.286425  -0.009  -0.218692  -0.318795  -0.030972  3.276061  -0.013
O  O122  1  0.61418551  0.74998413  0.50004036  1  -0.959489  -0.111412  1.867205  -0.092  -0.865177  -0.122765  2.160949  -0.093  -0.910593  -0.105238  2.131143  -0.077  -0.597447  -0.82768  -0.138243  2.178853  -0.108
O  O123  1  0.88586203  0.74983196  0.49991074  1  -0.95931  -0.111362  1.867907  -0.092  -0.864935  -0.122706  2.161343  -0.093  -0.910335  -0.105188  2.131552  -0.076  -0.597246  -0.827451  -0.138189  2.179245  -0.108
O  O124  1  0.38581263  0.25001598  0.49996086  1  -0.959424  -0.111412  1.867227  -0.092  -0.86508  -0.122765  2.161022  -0.093  -0.910498  -0.105234  2.131217  -0.077  -0.597388  -0.827576  -0.138242  2.178927  -0.108
O  O125  1  0.11413980  0.25016343  0.50008711  1  -0.959265  -0.111364  1.867907  -0.092  -0.864873  -0.122706  2.161343  -0.093  -0.910275  -0.105187  2.131555  -0.076  -0.597218  -0.827392  -0.138187  2.17925  -0.108
O  O126  1  0.92661198  0.31638812  0.99992742  1  -0.80058  0.025747  1.896066  0.014  -0.744285  0.03663  2.129869  0.021  -0.764118  0.032883  2.099262  0.019  -0.553286  -0.729309  0.040097  2.151124  0.024
O  O127  1  0.07338872  0.68361387  0.00007555  1  -0.800592  0.025748  1.896136  0.014  -0.744293  0.03663  2.129951  0.021  -0.764124  0.032882  2.099333  0.019  -0.553281  -0.729325  0.040098  2.151227  0.024
O  O128  1  0.57335432  0.81648087  0.00004091  1  -0.801207  0.025763  1.895496  0.014  -0.744995  0.036644  2.129377  0.021  -0.764887  0.032895  2.09886  0.019  -0.553339  -0.730018  0.040112  2.150776  0.024
O  O129  1  0.42664014  0.18351732  0.99995567  1  -0.801167  0.025763  1.895527  0.014  -0.744967  0.036645  2.129437  0.021  -0.764857  0.032896  2.098887  0.019  -0.553371  -0.729994  0.040114  2.150853  0.024
