# generated using pymatgen
data_CdH42C36N18(ClO4)2
_symmetry_space_group_name_H-M   'P 1'
_cell_length_a   8.67392868
_cell_length_b   10.19042427
_cell_length_c   13.17993476
_cell_angle_alpha   107.03254241
_cell_angle_beta   94.35655981
_cell_angle_gamma   112.59756104
_symmetry_Int_Tables_number   1
_chemical_formula_structural   CdH42C36N18(ClO4)2
_chemical_formula_sum   'Cd1 H42 C36 N18 Cl2 O8'
_cell_volume   1004.64773773
_cell_formula_units_Z   1
loop_
 _symmetry_equiv_pos_site_id
 _symmetry_equiv_pos_as_xyz
  1  'x, y, z'
loop_
 _atom_site_type_symbol
 _atom_site_label
 _atom_site_symmetry_multiplicity
 _atom_site_fract_x
 _atom_site_fract_y
 _atom_site_fract_z
 _atom_site_occupancy
 _atom_site_hle17_bader_spin_density
 _atom_site_hle17_ddec_charge
 _atom_site_hle17_ddec_spin_density
 _atom_site_hle17_ddec_sum_bond_order
 _atom_site_hle17_magmom
 _atom_site_hse06_10hf_bader_spin_density
 _atom_site_hse06_10hf_ddec_charge
 _atom_site_hse06_10hf_ddec_spin_density
 _atom_site_hse06_10hf_ddec_sum_bond_order
 _atom_site_hse06_10hf_magmom
 _atom_site_hse06_bader_spin_density
 _atom_site_hse06_ddec_charge
 _atom_site_hse06_ddec_spin_density
 _atom_site_hse06_ddec_sum_bond_order
 _atom_site_hse06_magmom
 _atom_site_pbe_bader_spin_density
 _atom_site_pbe_cm5_charge
 _atom_site_pbe_ddec_charge
 _atom_site_pbe_ddec_spin_density
 _atom_site_pbe_ddec_sum_bond_order
 _atom_site_pbe_magmom
Cd  Cd0  1  0.00000035  0.00000109  0.49999991  1  0  1.057576  0  1.706686  0  0  0.849689  0  2.141873  0  0  0.902751  0  2.09893  0  0  0.798098  0.812147  0  2.17076  0
H  H1  1  0.22290511  0.32720431  0.47934610  1  0  0.095787  0  0.984647  0  0  0.101018  0  1.055317  0  0  0.10442  0  1.052776  0  0  0.108084  0.098422  0  1.057538  0
H  H2  1  0.77710226  0.67279562  0.52064713  1  0  0.095751  0  0.984685  0  0  0.101034  0  1.055304  0  0  0.104437  0  1.05276  0  0  0.108091  0.098437  0  1.057528  0
H  H3  1  0.17669466  0.51600931  0.40777101  1  0  0.083859  0  0.940324  0  0  0.090317  0  1.005063  0  0  0.093087  0  1.002856  0  0  0.111286  0.088197  0  1.006893  0
H  H4  1  0.82330949  0.48399620  0.59223014  1  0  0.08389  0  0.94022  0  0  0.09035  0  1.004964  0  0  0.093117  0  1.00276  0  0  0.111289  0.088226  0  1.006795  0
H  H5  1  0.71158424  0.02708246  0.35149083  1  0  0.086937  0  0.998976  0  0  0.089925  0  1.073113  0  0  0.093062  0  1.070374  0  0  0.110841  0.08762  0  1.07509  0
H  H6  1  0.28842171  0.97292194  0.64850941  1  0  0.086966  0  0.998951  0  0  0.089972  0  1.073065  0  0  0.093108  0  1.070327  0  0  0.110841  0.087665  0  1.075048  0
H  H7  1  0.48981040  0.01268205  0.13971942  1  0  0.054507  0  0.928709  0  0  0.070206  0  0.997174  0  0  0.070566  0  0.996114  0  0  0.097815  0.06986  0  0.998013  0
H  H8  1  0.51019778  0.98732231  0.86028397  1  0  0.054437  0  0.928695  0  0  0.070114  0  0.997186  0  0  0.070467  0  0.996126  0  0  0.097789  0.069774  0  0.998017  0
H  H9  1  0.50153222  0.99349005  0.26958753  1  0  0.086386  0  0.954402  0  0  0.106067  0  1.011826  0  0  0.105734  0  1.012467  0  0  0.112943  0.106204  0  1.011461  0
H  H10  1  0.49847348  0.00651882  0.73041827  1  0  0.086365  0  0.954453  0  0  0.106044  0  1.011866  0  0  0.105711  0  1.012507  0  0  0.112931  0.106188  0  1.011498  0
H  H11  1  0.30227298  0.09576761  0.31903922  1  0  0.070081  0  0.939648  0  0  0.083775  0  1.008499  0  0  0.08333  0  1.009028  0  0  0.097915  0.08401  0  1.008085  0
H  H12  1  0.69772722  0.90423449  0.68096168  1  0  0.070092  0  0.939651  0  0  0.083782  0  1.008495  0  0  0.083331  0  1.009031  0  0  0.097915  0.084015  0  1.008082  0
H  H13  1  0.21721985  0.95821027  0.18544188  1  0  0.063861  0  0.953862  0  0  0.08166  0  1.017061  0  0  0.080528  0  1.01957  0  0  0.106542  0.082328  0  1.015441  0
H  H14  1  0.78278558  0.04179070  0.81455907  1  0  0.063905  0  0.953892  0  0  0.081705  0  1.017072  0  0  0.080573  0  1.019579  0  0  0.106554  0.08237  0  1.015447  0
H  H15  1  0.42161309  0.41030896  0.20455854  1  0  0.085566  0  0.951371  0  0  0.096601  0  1.021425  0  0  0.097835  0  1.020164  0  0  0.111529  0.095583  0  1.022459  0
H  H16  1  0.57838263  0.58969091  0.79543781  1  0  0.085457  0  0.95143  0  0  0.096576  0  1.021433  0  0  0.097811  0  1.020169  0  0  0.111532  0.095584  0  1.022445  0
H  H17  1  0.44160982  0.37844448  0.32922633  1  0  0.077642  0  0.925153  0  0  0.095853  0  0.985106  0  0  0.095339  0  0.985571  0  0  0.103937  0.096161  0  0.984854  0
H  H18  1  0.55838335  0.62156218  0.67077295  1  0  0.077654  0  0.925166  0  0  0.095843  0  0.985187  0  0  0.09533  0  0.985651  0  0  0.103953  0.096152  0  0.984938  0
H  H19  1  0.71581699  0.43846949  0.27456782  1  0  0.087338  0  0.94967  0  0  0.100645  0  1.014514  0  0  0.101113  0  1.014684  0  0  0.11401  0.100212  0  1.014493  0
H  H20  1  0.28417963  0.56153716  0.72543241  1  0  0.087331  0  0.949693  0  0  0.100668  0  1.014463  0  0  0.101124  0  1.014662  0  0  0.114023  0.100233  0  1.014433  0
H  H21  1  0.61870957  0.29973042  0.14256417  1  0  0.05298  0  0.934206  0  0  0.067932  0  1.006919  0  0  0.067509  0  1.007237  0  0  0.09727  0.06817  0  1.006722  0
H  H22  1  0.38128488  0.70026939  0.85743740  1  0  0.053046  0  0.934194  0  0  0.067957  0  1.006929  0  0  0.067532  0  1.00725  0  0  0.097276  0.068192  0  1.006729  0
H  H23  1  0.98482291  0.95364833  0.16903685  1  0  0.068973  0  0.990756  0  0  0.075356  0  1.061003  0  0  0.077631  0  1.061183  0  0  0.101332  0.073876  0  1.060706  0
H  H24  1  0.01517631  0.04634696  0.83096320  1  0  0.068904  0  0.990826  0  0  0.075294  0  1.061075  0  0  0.077569  0  1.061252  0  0  0.10129  0.073818  0  1.060766  0
H  H25  1  0.70881129  0.12427003  0.01946303  1  0  0.065581  0  0.95768  0  0  0.07507  0  1.02372  0  0  0.078893  0  1.020799  0  0  0.101744  0.072239  0  1.026074  0
H  H26  1  0.29118297  0.87571962  0.98053241  1  0  0.065529  0  0.957751  0  0  0.075028  0  1.023782  0  0  0.078852  0  1.020857  0  0  0.101721  0.072194  0  1.026152  0
H  H27  1  0.98031878  0.35592051  0.04471983  1  0  0.075392  0  0.966839  0  0  0.076939  0  1.044069  0  0  0.080411  0  1.040508  0  0  0.107003  0.074298  0  1.046795  0
H  H28  1  0.01967349  0.64407476  0.95528058  1  0  0.075435  0  0.966735  0  0  0.077002  0  1.043962  0  0  0.080477  0  1.040393  0  0  0.107008  0.07436  0  1.046694  0
H  H29  1  0.19409255  0.80360667  0.38366858  1  0  0.102407  0  0.984624  0  0  0.104809  0  1.057541  0  0  0.107917  0  1.055945  0  0  0.11098  0.102563  0  1.058965  0
H  H30  1  0.80591057  0.19639661  0.61632973  1  0  0.102381  0  0.98464  0  0  0.104778  0  1.057565  0  0  0.107886  0  1.055971  0  0  0.110957  0.102529  0  1.058984  0
H  H31  1  0.14953281  0.59339378  0.20934504  1  0  0.086714  0  0.933747  0  0  0.094307  0  0.996779  0  0  0.09715  0  0.994449  0  0  0.116529  0.092446  0  0.998071  0
H  H32  1  0.85046972  0.40661064  0.79065273  1  0  0.086742  0  0.933704  0  0  0.094301  0  0.996775  0  0  0.097144  0  0.994443  0  0  0.116547  0.092445  0  0.998066  0
H  H33  1  0.73640974  0.80648006  0.26840599  1  0  0.088519  0  1.00214  0  0  0.091795  0  1.07547  0  0  0.095017  0  1.072907  0  0  0.111839  0.089656  0  1.077022  0
H  H34  1  0.26357920  0.19350606  0.73159821  1  0  0.088475  0  1.002265  0  0  0.091809  0  1.075526  0  0  0.095035  0  1.07295  0  0  0.11185  0.089677  0  1.077069  0
H  H35  1  0.56531251  0.73932023  0.14345824  1  0  0.082224  0  0.950401  0  0  0.10178  0  1.007651  0  0  0.101362  0  1.008328  0  0  0.112494  0.101969  0  1.007343  0
H  H36  1  0.43468657  0.26068189  0.85654108  1  0  0.082239  0  0.95039  0  0  0.101796  0  1.007625  0  0  0.101376  0  1.008303  0  0  0.112502  0.101983  0  1.007319  0
H  H37  1  0.59534371  0.71923513  0.00931508  1  0  0.074225  0  0.933518  0  0  0.081039  0  1.012878  0  0  0.08245  0  1.011109  0  0  0.101476  0.079939  0  1.014319  0
H  H38  1  0.40465380  0.28076131  0.99068286  1  0  0.074221  0  0.933499  0  0  0.081012  0  1.012881  0  0  0.082432  0  1.011105  0  0  0.101463  0.079908  0  1.014324  0
H  H39  1  0.68291005  0.50395017  0.91329776  1  0  0.071258  0  0.964226  0  0  0.080417  0  1.039998  0  0  0.081645  0  1.038392  0  0  0.102906  0.079499  0  1.041183  0
H  H40  1  0.31708605  0.49605305  0.08670393  1  0  0.071279  0  0.964204  0  0  0.080434  0  1.039972  0  0  0.081663  0  1.038367  0  0  0.102933  0.079519  0  1.041155  0
H  H41  1  0.71240516  0.39730011  0.99259163  1  0  0.080593  0  0.944583  0  0  0.096402  0  1.007344  0  0  0.09711  0  1.00665  0  0  0.11304  0.095827  0  1.007892  0
H  H42  1  0.28759165  0.60269973  0.00740781  1  0  0.080607  0  0.944559  0  0  0.096417  0  1.007319  0  0  0.097127  0  1.006623  0  0  0.113043  0.095844  0  1.007866  0
C  C43  1  0.09911997  0.30265777  0.43374614  1  0  0.008285  0  3.71397  0  0  -0.029767  0  3.979413  0  0  -0.029841  0  3.999035  0  0  0.009383  -0.030216  0  3.966724  0
C  C44  1  0.90088676  0.69734328  0.56624882  1  0  0.008289  0  3.714102  0  0  -0.029802  0  3.979534  0  0  -0.029876  0  3.999155  0  0  0.009364  -0.030246  0  3.966841  0
C  C45  1  0.07165412  0.40581597  0.39398815  1  0  0.105883  0  3.742039  0  0  0.083041  0  4.005685  0  0  0.08815  0  4.021901  0  0  0.045935  0.079619  0  3.994939  0
C  C46  1  0.92835130  0.59418730  0.60601104  1  0  0.105767  0  3.742036  0  0  0.082914  0  4.005712  0  0  0.088024  0  4.021931  0  0  0.0459  0.079496  0  3.994959  0
C  C47  1  0.78818846  0.24285754  0.32218035  1  0  0.323816  0  3.79407  0  0  0.300258  0  4.054209  0  0  0.316035  0  4.068231  0  0  0.234038  0.289542  0  4.044694  0
C  C48  1  0.21181624  0.75714912  0.67782109  1  0  0.323773  0  3.794  0  0  0.30026  0  4.054186  0  0  0.316037  0  4.068207  0  0  0.234017  0.28955  0  4.044664  0
C  C49  1  0.81500717  0.13546633  0.36135603  1  0  0.001949  0  3.647774  0  0  -0.034284  0  3.908637  0  0  -0.033102  0  3.924026  0  0  0.037557  -0.035256  0  3.898325  0
C  C50  1  0.18499828  0.86453695  0.63864165  1  0  0.001887  0  3.647823  0  0  -0.03434  0  3.908624  0  0  -0.033158  0  3.924012  0  0  0.037629  -0.035323  0  3.898334  0
C  C51  1  0.48899874  0.06609555  0.22574598  1  0  -0.006868  0  3.644576  0  0  -0.07284  0  3.907715  0  0  -0.068003  0  3.920181  0  0  -0.055458  -0.076004  0  3.899062  0
C  C52  1  0.51100536  0.93390994  0.77425744  1  0  -0.006776  0  3.644623  0  0  -0.072653  0  3.907746  0  0  -0.067805  0  3.920197  0  0  -0.055432  -0.07583  0  3.899099  0
C  C53  1  0.31631537  0.07147255  0.23385992  1  0  -0.015386  0  3.662263  0  0  -0.077651  0  3.924996  0  0  -0.073213  0  3.938472  0  0  -0.061815  -0.080399  0  3.915491  0
C  C54  1  0.68368713  0.92852956  0.76614112  1  0  -0.015529  0  3.662383  0  0  -0.077769  0  3.925037  0  0  -0.073328  0  3.93851  0  0  -0.061834  -0.080513  0  3.915523  0
C  C55  1  0.44066317  0.33373468  0.24212223  1  0  -0.0195  0  3.65658  0  0  -0.084066  0  3.92372  0  0  -0.079042  0  3.934244  0  0  -0.065596  -0.087349  0  3.916443  0
C  C56  1  0.55933355  0.66626741  0.75787848  1  0  -0.019306  0  3.656526  0  0  -0.084028  0  3.923812  0  0  -0.079003  0  3.934331  0  0  -0.065593  -0.087355  0  3.916549  0
C  C57  1  0.61038438  0.32783329  0.22896625  1  0  -0.005808  0  3.660755  0  0  -0.073064  0  3.930546  0  0  -0.067835  0  3.94182  0  0  -0.060439  -0.076466  0  3.922774  0
C  C58  1  0.38961458  0.67217107  0.77103586  1  0  -0.006  0  3.660809  0  0  -0.073096  0  3.93056  0  0  -0.06787  0  3.941833  0  0  -0.060446  -0.076464  0  3.922752  0
C  C59  1  0.14095068  0.16959427  0.14997404  1  0  0.31018  0  3.817078  0  0  0.285653  0  4.07925  0  0  0.301646  0  4.094464  0  0  0.2264  0.274875  0  4.068873  0
C  C60  1  0.85904732  0.83040328  0.85002646  1  0  0.309852  0  3.817271  0  0  0.285483  0  4.07922  0  0  0.301475  0  4.094437  0  0  0.226345  0.274703  0  4.068842  0
C  C61  1  0.98576605  0.04216531  0.13836405  1  0  -0.029913  0  3.705785  0  0  -0.0573  0  3.973145  0  0  -0.060454  0  3.991166  0  0  0.028033  -0.05551  0  3.961137  0
C  C62  1  0.01423371  0.95783110  0.86163704  1  0  -0.029697  0  3.705898  0  0  -0.05714  0  3.973214  0  0  -0.060291  0  3.991234  0  0  0.028128  -0.05535  0  3.96119  0
C  C63  1  0.83273557  0.13684642  0.05695662  1  0  -0.000675  0  3.789743  0  0  -0.031757  0  4.069498  0  0  -0.033278  0  4.087041  0  0  0.007034  -0.031084  0  4.057975  0
C  C64  1  0.16726256  0.86314659  0.94304285  1  0  -0.000562  0  3.789551  0  0  -0.031638  0  4.069267  0  0  -0.033161  0  4.086812  0  0  0.007083  -0.030974  0  4.057772  0
C  C65  1  0.98268470  0.26418710  0.07089308  1  0  0.087037  0  3.760208  0  0  0.063592  0  4.021786  0  0  0.068656  0  4.038875  0  0  0.03991  0.060315  0  4.010202  0
C  C66  1  0.01730827  0.73580478  0.92910583  1  0  0.087001  0  3.759939  0  0  0.063527  0  4.021532  0  0  0.06859  0  4.038621  0  0  0.039926  0.060251  0  4.009957  0
C  C67  1  0.08294831  0.75719954  0.31822374  1  0  0.017537  0  3.70046  0  0  -0.021299  0  3.96852  0  0  -0.020917  0  3.987106  0  0  0.014947  -0.021783  0  3.95573  0
C  C68  1  0.91705028  0.24279918  0.68177478  1  0  0.017609  0  3.700366  0  0  -0.021226  0  3.968409  0  0  -0.020846  0  3.986998  0  0  0.014977  -0.021701  0  3.955608  0
C  C69  1  0.05660134  0.64147995  0.22157932  1  0  0.106449  0  3.7363  0  0  0.081228  0  4.002991  0  0  0.087306  0  4.016622  0  0  0.052183  0.077485  0  3.992987  0
C  C70  1  0.94340060  0.35852332  0.77841967  1  0  0.106335  0  3.736338  0  0  0.08115  0  4.003024  0  0  0.08723  0  4.016655  0  0  0.052161  0.077399  0  3.993024  0
C  C71  1  0.80322776  0.64090663  0.15475278  1  0  0.313551  0  3.805884  0  0  0.28895  0  4.067588  0  0  0.304711  0  4.081916  0  0  0.232342  0.278252  0  4.057663  0
C  C72  1  0.19676908  0.35909092  0.84524765  1  0  0.313557  0  3.805651  0  0  0.288883  0  4.067448  0  0  0.304646  0  4.081774  0  0  0.232305  0.278193  0  4.057515  0
C  C73  1  0.82907776  0.75955003  0.25320605  1  0  -0.021348  0  3.668395  0  0  -0.056852  0  3.929017  0  0  -0.05609  0  3.943695  0  0  0.035289  -0.057591  0  3.918851  0
C  C74  1  0.17091855  0.24044409  0.74679585  1  0  -0.021369  0  3.668449  0  0  -0.056918  0  3.929097  0  0  -0.056151  0  3.943772  0  0  0.035248  -0.057661  0  3.918939  0
C  C75  1  0.55202813  0.65645549  0.06487631  1  0  -0.013834  0  3.646835  0  0  -0.077274  0  3.908688  0  0  -0.072677  0  3.920358  0  0  -0.058172  -0.080239  0  3.900566  0
C  C76  1  0.44796982  0.34354434  0.93512395  1  0  -0.01382  0  3.646701  0  0  -0.077232  0  3.908516  0  0  -0.072641  0  3.920185  0  0  -0.058163  -0.080197  0  3.900398  0
C  C77  1  0.63562976  0.45516877  0.97545352  1  0  -0.024664  0  3.656684  0  0  -0.090742  0  3.921761  0  0  -0.085904  0  3.93268  0  0  -0.064003  -0.093837  0  3.914062  0
C  C78  1  0.36436817  0.54483106  0.02454749  1  0  -0.024709  0  3.656829  0  0  -0.090781  0  3.921885  0  0  -0.085944  0  3.932805  0  0  -0.06403  -0.093882  0  3.914185  0
N  N79  1  0.96735417  0.16717670  0.41686326  1  0  -0.292002  0  3.322638  0  0  -0.211784  0  3.58594  0  0  -0.227302  0  3.60824  0  0  -0.325451  -0.200718  0  3.570432  0
N  N80  1  0.03265253  0.83282434  0.58313246  1  0  -0.291949  0  3.322668  0  0  -0.211742  0  3.585989  0  0  -0.227259  0  3.608289  0  0  -0.325478  -0.200674  0  3.570478  0
N  N81  1  0.91979804  0.37811742  0.33922473  1  0  -0.363227  0  3.049132  0  0  -0.331819  0  3.31849  0  0  -0.344046  0  3.333302  0  0  -0.315114  -0.323497  0  3.308241  0
N  N82  1  0.08020780  0.62188923  0.66077754  1  0  -0.363156  0  3.04914  0  0  -0.331731  0  3.318477  0  0  -0.343956  0  3.333287  0  0  -0.31512  -0.323409  0  3.30822  0
N  N83  1  0.63117976  0.21605327  0.26985561  1  0  -0.196486  0  3.394629  0  0  -0.109136  0  3.630027  0  0  -0.130899  0  3.655086  0  0  -0.279869  -0.094194  0  3.612478  0
N  N84  1  0.36882310  0.78395447  0.73014901  1  0  -0.196317  0  3.394499  0  0  -0.109214  0  3.630126  0  0  -0.130978  0  3.655184  0  0  -0.279852  -0.094284  0  3.612575  0
N  N85  1  0.29814937  0.18346395  0.19228263  1  0  -0.212912  0  3.388315  0  0  -0.128746  0  3.62977  0  0  -0.150152  0  3.653677  0  0  -0.288252  -0.114108  0  3.612983  0
N  N86  1  0.70184910  0.81653700  0.80771867  1  0  -0.212809  0  3.388235  0  0  -0.128666  0  3.629661  0  0  -0.150071  0  3.653567  0  0  -0.28825  -0.114024  0  3.612878  0
N  N87  1  0.13515427  0.28201836  0.11763014  1  0  -0.364424  0  3.072801  0  0  -0.326074  0  3.340106  0  0  -0.339126  0  3.35353  0  0  -0.317339  -0.317228  0  3.330846  0
N  N88  1  0.86484140  0.71797918  0.88237098  1  0  -0.364256  0  3.072839  0  0  -0.325964  0  3.34011  0  0  -0.339017  0  3.353538  0  0  -0.317305  -0.317112  0  3.330852  0
N  N89  1  0.83491596  0.02651239  0.09257097  1  0  -0.257947  0  3.143033  0  0  -0.225315  0  3.424189  0  0  -0.228656  0  3.439505  0  0  -0.317655  -0.222613  0  3.413909  0
N  N90  1  0.16508104  0.97348063  0.90742768  1  0  -0.25806  0  3.143198  0  0  -0.225436  0  3.424377  0  0  -0.228779  0  3.439693  0  0  -0.31773  -0.222727  0  3.41409  0
N  N91  1  0.96607530  0.81443483  0.33241843  1  0  -0.281482  0  3.321974  0  0  -0.202823  0  3.587261  0  0  -0.216844  0  3.607275  0  0  -0.32435  -0.192463  0  3.572899  0
N  N92  1  0.03392385  0.18556272  0.66758214  1  0  -0.28146  0  3.321906  0  0  -0.202804  0  3.587221  0  0  -0.216825  0  3.607234  0  0  -0.324336  -0.192445  0  3.572857  0
N  N93  1  0.92087224  0.58409119  0.14031967  1  0  -0.36748  0  3.057418  0  0  -0.335259  0  3.334197  0  0  -0.346379  0  3.345187  0  0  -0.314104  -0.327496  0  3.326343  0
N  N94  1  0.07912746  0.41590981  0.85967867  1  0  -0.367428  0  3.057451  0  0  -0.33519  0  3.33423  0  0  -0.34631  0  3.345219  0  0  -0.314083  -0.327428  0  3.326378  0
N  N95  1  0.65927041  0.57795486  0.07511887  1  0  -0.194002  0  3.377289  0  0  -0.103094  0  3.607757  0  0  -0.124771  0  3.633046  0  0  -0.279795  -0.088065  0  3.589937  0
N  N96  1  0.34072635  0.42204495  0.92488283  1  0  -0.194048  0  3.377224  0  0  -0.103097  0  3.607677  0  0  -0.124777  0  3.632969  0  0  -0.279831  -0.088068  0  3.589858  0
Cl  Cl97  1  0.47273174  0.21843907  0.56486927  1  0  1.395108  0  6.179176  0  0  1.32579  0  6.750886  0  0  1.378613  0  6.726932  0  0  0.737096  1.289429  0  6.766299  0
Cl  Cl98  1  0.52726972  0.78156078  0.43512967  1  0  1.394992  0  6.179305  0  0  1.325685  0  6.751022  0  0  1.378511  0  6.72708  0  0  0.736983  1.289336  0  6.766423  0
O  O99  1  0.30508147  0.09133502  0.50355293  1  0  -0.596433  0  1.928347  0  0  -0.550199  0  2.208275  0  0  -0.568531  0  2.190977  0  0  -0.328736  -0.537229  0  2.219513  0
O  O100  1  0.69491694  0.90866821  0.49644889  1  0  -0.596413  0  1.928367  0  0  -0.550167  0  2.208269  0  0  -0.568495  0  2.190966  0  0  -0.328726  -0.537197  0  2.219491  0
O  O101  1  0.51003256  0.21061210  0.67270122  1  0  -0.546959  0  1.849858  0  0  -0.51241  0  2.088082  0  0  -0.528167  0  2.075181  0  0  -0.30874  -0.501518  0  2.096606  0
O  O102  1  0.48996833  0.78938661  0.32729819  1  0  -0.546935  0  1.849916  0  0  -0.512354  0  2.088102  0  0  -0.528115  0  2.075203  0  0  -0.308706  -0.501465  0  2.09662  0
O  O103  1  0.60185342  0.20166277  0.50562226  1  0  -0.508174  0  1.908411  0  0  -0.480058  0  2.160102  0  0  -0.496447  0  2.148903  0  0  -0.289187  -0.468758  0  2.167549  0
O  O104  1  0.39814245  0.79833027  0.49437481  1  0  -0.508127  0  1.908448  0  0  -0.48002  0  2.160135  0  0  -0.49643  0  2.148946  0  0  -0.28913  -0.468727  0  2.167585  0
O  O105  1  0.46446951  0.36123606  0.57512325  1  0  -0.519876  0  1.873632  0  0  -0.491647  0  2.115673  0  0  -0.506911  0  2.102795  0  0  -0.296618  -0.48104  0  2.124206  0
O  O106  1  0.53553879  0.63876605  0.42487737  1  0  -0.519843  0  1.87366  0  0  -0.491663  0  2.115748  0  0  -0.50692  0  2.102865  0  0  -0.296598  -0.48106  0  2.124276  0
