# generated using pymatgen
data_Zn2H22C21N2O11
_symmetry_space_group_name_H-M   'P 1'
_cell_length_a   7.32455679
_cell_length_b   8.91303240
_cell_length_c   16.20491843
_cell_angle_alpha   85.93605915
_cell_angle_beta   74.55906473
_cell_angle_gamma   86.76832920
_symmetry_Int_Tables_number   1
_chemical_formula_structural   Zn2H22C21N2O11
_chemical_formula_sum   'Zn2 H22 C21 N2 O11'
_cell_volume   1016.39866208
_cell_formula_units_Z   1
loop_
 _symmetry_equiv_pos_site_id
 _symmetry_equiv_pos_as_xyz
  1  'x, y, z'
loop_
 _atom_site_type_symbol
 _atom_site_label
 _atom_site_symmetry_multiplicity
 _atom_site_fract_x
 _atom_site_fract_y
 _atom_site_fract_z
 _atom_site_occupancy
 _atom_site_pbe_bader_charge
 _atom_site_pbe_bader_spin_density
 _atom_site_pbe_cm5_charge
 _atom_site_pbe_ddec_charge
 _atom_site_pbe_ddec_spin_density
 _atom_site_pbe_ddec_sum_bond_order
 _atom_site_pbe_magmom
Zn  Zn0  1  0.69939891  0.51630876  0.46405502  1  1.278396  0  0.676091  0.81413  0  2.406751  0
Zn  Zn1  1  0.30756537  0.48569741  0.53698748  1  1.283966  0  0.6745  0.814476  0  2.408077  0
H  H2  1  0.74147913  0.66100664  0.89774231  1  0.059187  0  0.103326  0.11687  0  0.978261  0
H  H3  1  0.39172462  0.72936815  0.94118764  1  0.019907  0  0.099434  0.109313  0  0.978237  0
H  H4  1  0.22203353  0.59373394  0.94173790  1  0.038786  0  0.102668  0.114252  0  0.985587  0
H  H5  1  0.64156205  0.29836789  0.05595241  1  0.017831  0  0.101093  0.035859  0  0.967274  0
H  H6  1  0.57142561  0.26052934  0.92494609  1  0.035087  0  0.095531  0.102974  0  0.983599  0
H  H7  1  0.91027248  0.79588322  0.97356590  1  0.02322  0  0.090454  0.085496  0  0.998181  0
H  H8  1  0.88822751  0.75398725  0.08549663  1  0.057389  0  0.095882  0.098284  0  1.007944  0
H  H9  1  0.78383765  0.92562927  0.05008824  1  0.042284  0  0.098626  0.09625  0  1.015528  0
H  H10  1  0.03167222  0.60786188  0.20336979  1  0.027206  0  0.085882  0.07827  0  1.010152  0
H  H11  1  0.11846429  0.41543404  0.20870147  1  0.065994  0  0.090314  0.094944  0  1.023671  0
H  H12  1  0.89877035  0.46015368  0.18204388  1  0.066419  0  0.094433  0.103431  0  1.01446  0
H  H13  1  0.77934621  0.53212578  0.05603942  1  0.100745  0  0.107017  0.052611  0  0.992813  0
H  H14  1  0.54776775  0.06634423  0.12581445  1  0.045427  0  0.090855  0.080902  0  1.013053  0
H  H15  1  0.42095661  0.05256684  0.04592866  1  0.030952  0  0.09033  0.086252  0  1.000425  0
H  H16  1  0.29892448  0.03456541  0.15734015  1  0.07244  0  0.107483  0.114285  0  0.970266  0
H  H17  1  0.81345163  0.47086877  0.91489554  1  0.051649  0  0.098589  0.112219  0  0.971324  0
H  H18  1  0.32800821  0.31566148  0.96620758  1  0.089054  0  0.104733  0.122386  0  0.973235  0
H  H19  1  0.28611304  0.99741446  0.52500979  1  0.11132  0  0.115519  0.138192  0  0.976209  0
H  H20  1  0.72309164  0.00454154  0.47599287  1  0.113732  0  0.115703  0.138165  0  0.974745  0
H  H21  1  0.90008282  0.48741219  0.58601886  1  0.504555  0  0.320282  0.278855  0  0.951543  0
H  H22  1  0.10711195  0.51071515  0.41534939  1  0.506015  0  0.319804  0.277631  0  0.952956  0
H  H23  1  0.28009146  0.69887919  0.09034284  1  0.050167  0  0.101586  0.042838  0  0.980175  0
C  C24  1  0.46351988  0.78891750  0.50245913  1  1.54604  0  0.215679  0.638788  0  4.158324  0
C  C25  1  0.57641833  0.04758941  0.49368724  1  -0.064164  0  -0.073548  -0.160593  0  3.869648  0
C  C26  1  0.50568005  0.51142752  0.33315742  1  1.647519  0  0.22477  0.684977  0  4.224251  0
C  C27  1  0.54557219  0.21303505  0.49865075  1  1.574438  0  0.2154  0.637024  0  4.158062  0
C  C28  1  0.49859084  0.49273968  0.66806621  1  1.644963  0  0.221112  0.685629  0  4.225466  0
C  C29  1  0.66116381  0.58205595  0.03168424  1  0.421677  0  0.010774  0.13944  0  3.795807  0
C  C30  1  0.30244716  0.58994396  0.05998724  1  0.478566  0  0.011408  0.15183  0  3.797957  0
C  C31  1  0.34995041  0.61344033  0.96186316  1  0.023479  0  -0.156  -0.269638  0  3.845428  0
C  C32  1  0.51595596  0.49598123  0.75444721  1  0.258506  0  -0.065382  -0.235278  0  3.994738  0
C  C33  1  0.47624457  0.50483912  0.08436163  1  0.109701  0  -0.001265  -0.00928  0  3.839875  0
C  C34  1  0.81533254  0.80607302  0.03863775  1  0.40985  0  -0.143794  -0.167298  0  3.951915  0
C  C35  1  0.69784103  0.55540508  0.93530324  1  -0.053765  0  -0.158842  -0.285136  0  3.855703  0
C  C36  1  0.04226747  0.49773475  0.17494978  1  0.383541  0  -0.155517  -0.178291  0  3.959682  0
C  C37  1  0.41166658  0.09321514  0.10978011  1  0.396035  0  -0.140299  -0.165675  0  3.966248  0
C  C38  1  0.51352048  0.50337447  0.91877024  1  0.155039  0  0.003292  0.200922  0  3.885005  0
C  C39  1  0.47407887  0.34359802  0.96285257  1  -0.077519  0  -0.158096  -0.280691  0  3.841277  0
C  C40  1  0.49687826  0.34095250  0.05504640  1  0.511957  0  0.014476  0.15702  0  3.813957  0
C  C41  1  0.52289428  0.49997271  0.82841305  1  -0.592076  0  -0.020965  -0.016771  0  4.002045  0
C  C42  1  0.47154384  0.50689335  0.17428479  1  -0.481307  0  -0.01454  0.002797  0  4.057303  0
C  C43  1  0.48704344  0.51102045  0.24691057  1  0.195708  0  -0.058207  -0.229912  0  3.975617  0
C  C44  1  0.43274822  0.95426728  0.50785636  1  -0.00075  0  -0.074976  -0.166217  0  3.874317  0
N  N45  1  0.02501132  0.49034159  0.53523165  1  -0.410833  0  -0.232275  -0.100422  0  3.144253  0
N  N46  1  0.98205467  0.50899621  0.46609070  1  -0.426896  0  -0.231912  -0.09809  0  3.143604  0
O  O47  1  0.63343229  0.73514335  0.47984784  1  -1.154705  0  -0.319036  -0.544714  0  2.31853  0
O  O48  1  0.13146722  0.51009589  0.08486548  1  -1.058399  0  -0.236236  -0.228337  0  2.527897  0
O  O49  1  0.36357907  0.24983583  0.11448768  1  -1.047737  0  -0.22573  -0.204335  0  2.521468  0
O  O50  1  0.31393173  0.71295073  0.52193754  1  -1.150913  0  -0.320063  -0.548469  0  2.299084  0
O  O51  1  0.67079918  0.52945147  0.34192384  1  -1.130304  0  -0.305225  -0.51712  0  2.23874  0
O  O52  1  0.35654235  0.49252520  0.39476265  1  -1.171623  0  -0.309257  -0.584104  0  2.297246  0
O  O53  1  0.69350090  0.28979289  0.47007593  1  -1.147514  0  -0.320316  -0.547391  0  2.302267  0
O  O54  1  0.37765918  0.26571324  0.52982007  1  -1.153945  0  -0.316674  -0.540314  0  2.313205  0
O  O55  1  0.65028988  0.49301043  0.60673910  1  -1.16286  0  -0.310494  -0.586411  0  2.295437  0
O  O56  1  0.33099102  0.49016293  0.65926761  1  -1.119153  0  -0.31453  -0.521495  0  2.211051  0
O  O57  1  0.63850121  0.73862995  0.04804513  1  -1.044284  0  -0.233867  -0.221333  0  2.496182  0
