# generated using pymatgen
data_Al2H3C24S6(BrO4)3
_symmetry_space_group_name_H-M   'P 1'
_cell_length_a   3.97731946
_cell_length_b   20.14062386
_cell_length_c   20.14068043
_cell_angle_alpha   119.99973577
_cell_angle_beta   89.99980517
_cell_angle_gamma   90.00021091
_symmetry_Int_Tables_number   1
_chemical_formula_structural   Al2H3C24S6(BrO4)3
_chemical_formula_sum   'Al2 H3 C24 S6 Br3 O12'
_cell_volume   1397.23456575
_cell_formula_units_Z   1
loop_
 _symmetry_equiv_pos_site_id
 _symmetry_equiv_pos_as_xyz
  1  'x, y, z'
loop_
 _atom_site_type_symbol
 _atom_site_label
 _atom_site_symmetry_multiplicity
 _atom_site_fract_x
 _atom_site_fract_y
 _atom_site_fract_z
 _atom_site_occupancy
 _atom_site_pbe_bader_charge
 _atom_site_pbe_bader_spin_density
 _atom_site_pbe_cm5_charge
 _atom_site_pbe_ddec_charge
 _atom_site_pbe_ddec_spin_density
 _atom_site_pbe_ddec_sum_bond_order
 _atom_site_pbe_magmom
Al  Al0  1  0.00012595  0.50000023  0.49999815  1  2.506246  0  0.422825  1.602748  0  2.561577  0
Al  Al1  1  0.00264964  0.16666675  0.83333274  1  2.503721  0  0.426324  1.598719  0  2.564684  0
H  H2  1  0.47541969  0.17740633  0.61488739  1  0.114486  0  0.1191  0.145041  0  0.968139  0
H  H3  1  0.47541706  0.93748048  0.82259290  1  0.107461  0  0.119067  0.144983  0  0.968178  0
H  H4  1  0.47541851  0.38511399  0.06251814  1  0.11383  0  0.1191  0.145027  0  0.968176  0
C  C5  1  0.50053377  0.44022046  0.38266738  1  1.566399  0  0.2725  0.683606  0  4.077032  0
C  C6  1  0.50053485  0.44244963  0.55977877  1  1.58883  0  0.272523  0.683624  0  4.077083  0
C  C7  1  0.50053387  0.61733182  0.55754819  1  1.672978  0  0.272548  0.683627  0  4.077069  0
C  C8  1  0.50206740  0.22600349  0.77509066  1  1.573033  0  0.274931  0.674857  0  4.077669  0
C  C9  1  0.50206587  0.04908850  0.77399675  1  1.570197  0  0.274886  0.674837  0  4.07751  0
C  C10  1  0.50206594  0.22490968  0.95091149  1  1.674367  0  0.274942  0.674916  0  4.077249  0
C  C11  1  0.49187967  0.42991888  0.68088116  1  -0.08359  0  -0.029899  0.04951  0  4.011955  0
C  C12  1  0.48585155  0.23871003  0.65513815  1  0.053565  0  -0.095823  -0.151856  0  3.981204  0
C  C13  1  0.49946054  0.40023438  0.60243368  1  -0.034404  0  -0.022884  -0.161678  0  3.923835  0
C  C14  1  0.49859342  0.26937658  0.73360851  1  -0.194213  0  -0.014631  -0.103902  0  3.937676  0
C  C15  1  0.50326847  0.29733974  0.63594318  1  -0.152068  0  -0.024228  -3e-06  0  4.079054  0
C  C16  1  0.50688660  0.37144331  0.70039765  1  -0.143445  0  -0.032601  -0.070239  0  4.090901  0
C  C17  1  0.49187835  0.75096532  0.57008052  1  -0.019299  0  -0.029931  0.04936  0  4.012101  0
C  C18  1  0.48584903  0.91642954  0.76129044  1  0.101213  0  -0.095745  -0.151654  0  3.98117  0
C  C19  1  0.49946068  0.70220092  0.59976396  1  -0.143784  0  -0.022821  -0.161515  0  3.92382  0
C  C20  1  0.49859698  0.96423317  0.73062444  1  -0.129687  0  -0.014611  -0.103953  0  3.937756  0
C  C21  1  0.50326257  0.83860497  0.70266014  1  -0.202029  0  -0.02428  -0.000173  0  4.079159  0
C  C22  1  0.50688363  0.82895759  0.62855802  1  -0.11334  0  -0.03262  -0.070142  0  4.090978  0
C  C23  1  0.49187975  0.31911961  0.24903573  1  0.0324  0  -0.029897  0.04949  0  4.011992  0
C  C24  1  0.48585466  0.34486230  0.08356976  1  0.045274  0  -0.095753  -0.151674  0  3.981061  0
C  C25  1  0.49945800  0.39756623  0.29779807  1  -0.074109  0  -0.022821  -0.161567  0  3.923882  0
C  C26  1  0.49859662  0.26639333  0.03576717  1  -0.277438  0  -0.014671  -0.103972  0  3.937658  0
C  C27  1  0.50327547  0.36405775  0.16139444  1  -0.165316  0  -0.024255  -0.000119  0  4.079025  0
C  C28  1  0.50689033  0.29960313  0.17104251  1  -0.166119  0  -0.032633  -0.070263  0  4.090972  0
S  S29  1  0.51725348  0.30057792  0.55201800  1  0.293558  0  0.088769  0.127284  0  2.766705  0
S  S30  1  0.52343220  0.36893981  0.78438156  1  0.317801  0  0.088662  0.130043  0  2.801444  0
S  S31  1  0.51725116  0.75144001  0.69942001  1  0.238324  0  0.088748  0.127253  0  2.766775  0
S  S32  1  0.52343068  0.91544534  0.63106131  1  0.258546  0  0.088665  0.130045  0  2.801431  0
S  S33  1  0.51724972  0.44798355  0.24855875  1  0.291902  0  0.088764  0.12727  0  2.766715  0
S  S34  1  0.52343412  0.21561881  0.08455638  1  0.302765  0  0.088642  0.130025  0  2.80148  0
Br  Br35  1  0.48580051  0.53490525  0.75446037  1  -0.012025  0  0.036584  -0.025238  0  1.479584  0
Br  Br36  1  0.48579695  0.71955862  0.46509417  1  -0.012067  0  0.036598  -0.025216  0  1.479587  0
Br  Br37  1  0.48580189  0.24554014  0.28044365  1  -0.013994  0  0.036611  -0.025202  0  1.479507  0
O  O38  1  0.73523927  0.58433847  0.57343479  1  -1.251852  0  -0.235745  -0.589893  0  2.34905  0
O  O39  1  0.73523974  0.48909938  0.41565943  1  -1.255211  0  -0.235771  -0.589893  0  2.349055  0
O  O40  1  0.73524092  0.42656397  0.51090026  1  -1.252908  0  -0.235738  -0.589875  0  2.349148  0
O  O41  1  0.26638884  0.58344450  0.50904430  1  -1.245608  0  -0.232982  -0.588967  0  2.373838  0
O  O42  1  0.26638750  0.49095513  0.57439716  1  -1.240931  0  -0.23298  -0.588996  0  2.373828  0
O  O43  1  0.26638823  0.42560299  0.41655510  1  -1.240906  0  -0.232943  -0.588992  0  2.373765  0
O  O44  1  0.73738760  0.17627761  0.91726251  1  -1.250805  0  -0.238431  -0.596446  0  2.349311  0
O  O45  1  0.73739145  0.24098639  0.82372206  1  -1.243569  0  -0.23841  -0.596392  0  2.349393  0
O  O46  1  0.73738809  0.08273736  0.75901369  1  -1.244922  0  -0.238411  -0.596414  0  2.349355  0
O  O47  1  0.26967366  0.24070593  0.91733249  1  -1.252541  0  -0.236416  -0.589349  0  2.335046  0
O  O48  1  0.26967557  0.08266655  0.82337093  1  -1.256572  0  -0.236424  -0.589335  0  2.335212  0
O  O49  1  0.26967943  0.17662906  0.75929456  1  -1.254142  0  -0.236436  -0.589347  0  2.335378  0
