# generated using pymatgen
data_ZnH18C26(NO2)4
_symmetry_space_group_name_H-M   'P 1'
_cell_length_a   10.29693341
_cell_length_b   10.96380570
_cell_length_c   12.77026402
_cell_angle_alpha   95.02875394
_cell_angle_beta   114.46434277
_cell_angle_gamma   100.35957650
_symmetry_Int_Tables_number   1
_chemical_formula_structural   ZnH18C26(NO2)4
_chemical_formula_sum   'Zn2 H36 C52 N8 O16'
_cell_volume   1269.51664934
_cell_formula_units_Z   2
loop_
 _symmetry_equiv_pos_site_id
 _symmetry_equiv_pos_as_xyz
  1  'x, y, z'
loop_
 _atom_site_type_symbol
 _atom_site_label
 _atom_site_symmetry_multiplicity
 _atom_site_fract_x
 _atom_site_fract_y
 _atom_site_fract_z
 _atom_site_occupancy
 _atom_site_hle17_bader_spin_density
 _atom_site_hle17_ddec_charge
 _atom_site_hle17_ddec_spin_density
 _atom_site_hle17_ddec_sum_bond_order
 _atom_site_hle17_magmom
 _atom_site_hse06_10hf_bader_spin_density
 _atom_site_hse06_10hf_ddec_charge
 _atom_site_hse06_10hf_ddec_spin_density
 _atom_site_hse06_10hf_ddec_sum_bond_order
 _atom_site_hse06_10hf_magmom
 _atom_site_hse06_bader_spin_density
 _atom_site_hse06_ddec_charge
 _atom_site_hse06_ddec_spin_density
 _atom_site_hse06_ddec_sum_bond_order
 _atom_site_hse06_magmom
 _atom_site_pbe_bader_spin_density
 _atom_site_pbe_cm5_charge
 _atom_site_pbe_ddec_charge
 _atom_site_pbe_ddec_spin_density
 _atom_site_pbe_ddec_sum_bond_order
 _atom_site_pbe_magmom
Zn  Zn0  1  0.44133816  0.31749988  0.82768619  1  0  0.984505  0  1.837939  0  0  0.787679  0  2.303074  0  0  0.835918  0  2.249962  0  0  0.690326  0.750602  0  2.343108  0
Zn  Zn1  1  0.55865965  0.68250345  0.17231538  1  0  0.984409  0  1.838018  0  0  0.78763  0  2.303165  0  0  0.835874  0  2.250054  0  0  0.690214  0.750409  0  2.343218  0
H  H2  1  0.40305945  0.38483158  0.03901360  1  0  0.099456  0  0.946227  0  0  0.106891  0  1.011462  0  0  0.109655  0  1.009262  0  0  0.122246  0.104651  0  1.013461  0
H  H3  1  0.59694545  0.61516614  0.96099293  1  0  0.099339  0  0.94624  0  0  0.106838  0  1.011431  0  0  0.109603  0  1.009231  0  0  0.12221  0.104594  0  1.013438  0
H  H4  1  0.41392268  0.41348233  0.22564604  1  0  0.302588  0  0.939366  0  0  0.281349  0  1.010082  0  0  0.289826  0  1.003305  0  0  0.300363  0.275332  0  1.014883  0
H  H5  1  0.58607590  0.58650785  0.77435875  1  0  0.302547  0  0.939292  0  0  0.281271  0  1.010072  0  0  0.289747  0  1.003299  0  0  0.300367  0.27527  0  1.014844  0
H  H6  1  0.61225110  0.13399311  0.94768749  1  0  0.101245  0  0.941369  0  0  0.110533  0  1.000875  0  0  0.113823  0  0.997738  0  0  0.122205  0.108077  0  1.003147  0
H  H7  1  0.38775599  0.86600925  0.05231537  1  0  0.101242  0  0.941341  0  0  0.110526  0  1.00086  0  0  0.113817  0  0.997721  0  0  0.122177  0.108063  0  1.003128  0
H  H8  1  0.97997410  0.08801223  0.33910212  1  0  0.297481  0  0.879469  0  0  0.289412  0  0.927983  0  0  0.295662  0  0.923729  0  0  0.32696  0.284865  0  0.931241  0
H  H9  1  0.02002157  0.91198731  0.66089773  1  0  0.297429  0  0.87955  0  0  0.289384  0  0.928046  0  0  0.295625  0  0.923804  0  0  0.326969  0.284841  0  0.931302  0
H  H10  1  0.67597274  0.05516449  0.13698496  1  0  0.098248  0  0.955999  0  0  0.108692  0  1.015198  0  0  0.111172  0  1.015249  0  0  0.10517  0.106879  0  1.015404  0
H  H11  1  0.32403777  0.94483502  0.86301720  1  0  0.09818  0  0.956071  0  0  0.108629  0  1.015263  0  0  0.111108  0  1.015315  0  0  0.105146  0.1068  0  1.015478  0
H  H12  1  0.59631992  0.14665757  0.28189994  1  0  0.115221  0  0.960673  0  0  0.123135  0  1.023323  0  0  0.126175  0  1.021452  0  0  0.10932  0.120975  0  1.024626  0
H  H13  1  0.40369418  0.85334292  0.71810655  1  0  0.115289  0  0.960581  0  0  0.123147  0  1.023308  0  0  0.126186  0  1.021436  0  0  0.10932  0.120985  0  1.024627  0
H  H14  1  0.22483021  0.67652073  0.48736626  1  0  0.391945  0  0.879437  0  0  0.367216  0  0.953623  0  0  0.377034  0  0.942269  0  0  0.310223  0.360091  0  0.961892  0
H  H15  1  0.77517262  0.32347870  0.51262799  1  0  0.391906  0  0.879559  0  0  0.367161  0  0.953789  0  0  0.376983  0  0.942424  0  0  0.310203  0.360039  0  0.962049  0
H  H16  1  0.43131182  0.52132930  0.38076339  1  0  0.117305  0  0.947441  0  0  0.126973  0  1.00889  0  0  0.130294  0  1.00736  0  0  0.111069  0.1247  0  1.009942  0
H  H17  1  0.56869054  0.47865986  0.61923704  1  0  0.117292  0  0.947437  0  0  0.127012  0  1.008821  0  0  0.130335  0  1.007284  0  0  0.111055  0.124713  0  1.009877  0
H  H18  1  0.00930103  0.80508971  0.92156668  1  0  0.382403  0  0.81509  0  0  0.376541  0  0.856196  0  0  0.38351  0  0.849421  0  0  0.339375  0.371549  0  0.861213  0
H  H19  1  0.99069304  0.19491549  0.07843385  1  0  0.382525  0  0.815011  0  0  0.376664  0  0.856118  0  0  0.383634  0  0.84934  0  0  0.339447  0.371663  0  0.861146  0
H  H20  1  0.08817901  0.49239702  0.49155067  1  0  0.123026  0  0.98165  0  0  0.129026  0  1.047529  0  0  0.13361  0  1.043276  0  0  0.109632  0.125707  0  1.050557  0
H  H21  1  0.91182065  0.50760620  0.50844443  1  0  0.12302  0  0.981557  0  0  0.128981  0  1.04749  0  0  0.133564  0  1.043238  0  0  0.109633  0.125685  0  1.050515  0
H  H22  1  0.17514786  0.15571909  0.35559143  1  0  0.090467  0  0.979991  0  0  0.0981  0  1.048645  0  0  0.102156  0  1.045203  0  0  0.102439  0.095121  0  1.051428  0
H  H23  1  0.82484510  0.84427391  0.64441180  1  0  0.090506  0  0.980021  0  0  0.098172  0  1.048642  0  0  0.102231  0  1.045198  0  0  0.102472  0.095195  0  1.051426  0
H  H24  1  0.80512314  0.89947536  0.25127903  1  0  0.112953  0  0.979085  0  0  0.120148  0  1.043244  0  0  0.124809  0  1.038192  0  0  0.119729  0.116665  0  1.046912  0
H  H25  1  0.19486718  0.10052795  0.74871940  1  0  0.112918  0  0.979056  0  0  0.120137  0  1.043177  0  0  0.124799  0  1.03812  0  0  0.119695  0.116644  0  1.046836  0
H  H26  1  0.50027027  0.77794453  0.37576663  1  0  0.095339  0  0.930749  0  0  0.103795  0  0.992153  0  0  0.106576  0  0.989962  0  0  0.123342  0.101709  0  0.99374  0
H  H27  1  0.49971941  0.22206063  0.62422938  1  0  0.095386  0  0.930799  0  0  0.103858  0  0.992175  0  0  0.106638  0  0.989986  0  0  0.123416  0.10179  0  0.993764  0
H  H28  1  0.61162272  0.96265802  0.53899572  1  0  0.124759  0  0.952882  0  0  0.133865  0  1.008902  0  0  0.137403  0  1.007423  0  0  0.116089  0.131317  0  1.010193  0
H  H29  1  0.38836912  0.03734715  0.46100176  1  0  0.124854  0  0.952846  0  0  0.133923  0  1.008905  0  0  0.137461  0  1.007424  0  0  0.116104  0.131386  0  1.010182  0
H  H30  1  0.82020765  0.13080998  0.55163528  1  0  0.127959  0  0.939451  0  0  0.139759  0  0.991528  0  0  0.143592  0  0.988498  0  0  0.120134  0.136747  0  0.994097  0
H  H31  1  0.17979131  0.86918960  0.44836796  1  0  0.127913  0  0.939423  0  0  0.139697  0  0.991527  0  0  0.143529  0  0.988498  0  0  0.120127  0.136695  0  0.994081  0
H  H32  1  0.92030837  0.27556161  0.81880462  1  0  0.11181  0  0.945151  0  0  0.117255  0  1.012571  0  0  0.122603  0  1.007064  0  0  0.102061  0.113299  0  1.0171  0
H  H33  1  0.07969664  0.72444247  0.18118595  1  0  0.111872  0  0.945172  0  0  0.117301  0  1.012599  0  0  0.122647  0  1.007094  0  0  0.102096  0.113345  0  1.017137  0
H  H34  1  0.82910383  0.63291194  0.89248009  1  0  0.10399  0  0.958758  0  0  0.112474  0  1.025025  0  0  0.116005  0  1.022795  0  0  0.103584  0.110086  0  1.026442  0
H  H35  1  0.17089348  0.36708194  0.10751987  1  0  0.10401  0  0.958701  0  0  0.1125  0  1.024976  0  0  0.116025  0  1.022744  0  0  0.103605  0.110106  0  1.026397  0
H  H36  1  0.22100306  0.62030163  0.85028019  1  0  0.115743  0  0.970366  0  0  0.122496  0  1.037289  0  0  0.125314  0  1.036957  0  0  0.103427  0.120607  0  1.037331  0
H  H37  1  0.77899372  0.37971011  0.14971695  1  0  0.115682  0  0.970455  0  0  0.122412  0  1.037389  0  0  0.125227  0  1.03706  0  0  0.103414  0.120558  0  1.037393  0
C  C38  1  0.46248454  0.31121161  0.06339568  1  0  0.051628  0  3.639422  0  0  0.012669  0  3.889093  0  0  0.018413  0  3.904545  0  0  0.048578  0.008665  0  3.879207  0
C  C39  1  0.53752169  0.68878704  0.93661134  1  0  0.051876  0  3.639242  0  0  0.012869  0  3.888929  0  0  0.018617  0  3.904389  0  0  0.04867  0.008842  0  3.879039  0
C  C40  1  0.57835485  0.16924209  0.01228679  1  0  0.113806  0  3.698363  0  0  0.07492  0  3.956467  0  0  0.081714  0  3.97426  0  0  0.04161  0.070576  0  3.944232  0
C  C41  1  0.42165440  0.83076028  0.98771753  1  0  0.113777  0  3.698265  0  0  0.074915  0  3.956402  0  0  0.081717  0  3.974197  0  0  0.04164  0.070571  0  3.944151  0
C  C42  1  0.61383015  0.12745926  0.11820656  1  0  -0.104857  0  3.772726  0  0  -0.117779  0  4.032999  0  0  -0.124238  0  4.054772  0  0  -0.085121  -0.113878  0  4.018606  0
C  C43  1  0.38617932  0.87254026  0.88179606  1  0  -0.104706  0  3.77276  0  0  -0.117624  0  4.032978  0  0  -0.12408  0  4.054745  0  0  -0.085155  -0.113734  0  4.01861  0
C  C44  1  0.57092672  0.17833836  0.19893552  1  0  -0.088655  0  3.663999  0  0  -0.115606  0  3.911514  0  0  -0.112963  0  3.92723  0  0  -0.06881  -0.11717  0  3.901034  0
C  C45  1  0.42908019  0.82165931  0.80106852  1  0  -0.088871  0  3.664158  0  0  -0.115794  0  3.911627  0  0  -0.113149  0  3.927339  0  0  -0.068846  -0.117373  0  3.901182  0
C  C46  1  0.49263030  0.27251502  0.17091872  1  0  0.220204  0  3.77382  0  0  0.219975  0  4.017127  0  0  0.223466  0  4.038555  0  0  0.106662  0.217148  0  4.003039  0
C  C47  1  0.50737699  0.72747985  0.82908758  1  0  0.220164  0  3.773807  0  0  0.219991  0  4.017055  0  0  0.223483  0  4.038481  0  0  0.106674  0.217149  0  4.002977  0
C  C48  1  0.38531160  0.26233802  0.30896729  1  0  0.546686  0  3.824425  0  0  0.500848  0  4.113342  0  0  0.529933  0  4.112211  0  0  0.239529  0.480977  0  4.11377  0
C  C49  1  0.61468989  0.73765121  0.69103757  1  0  0.546606  0  3.824467  0  0  0.50084  0  4.113293  0  0  0.529925  0  4.112166  0  0  0.239582  0.480968  0  4.113748  0
C  C50  1  0.30945138  0.33123496  0.36363491  1  0  -0.038479  0  3.791849  0  0  -0.016312  0  4.032426  0  0  -0.022071  0  4.055122  0  0  -0.015642  -0.012523  0  4.017145  0
C  C51  1  0.69054575  0.66875424  0.63636623  1  0  -0.038518  0  3.791889  0  0  -0.016376  0  4.032462  0  0  -0.022135  0  4.055165  0  0  -0.015709  -0.012567  0  4.017165  0
C  C52  1  0.34385352  0.46264859  0.39362149  1  0  -0.175229  0  3.680407  0  0  -0.208084  0  3.932097  0  0  -0.210327  0  3.950773  0  0  -0.087603  -0.20602  0  3.919427  0
C  C53  1  0.65614613  0.53734245  0.60637743  1  0  -0.175319  0  3.680589  0  0  -0.208201  0  3.932189  0  0  -0.210453  0  3.950895  0  0  -0.087658  -0.206134  0  3.919507  0
C  C54  1  0.26373412  0.52103843  0.43974939  1  0  0.343071  0  3.810335  0  0  0.339571  0  4.072461  0  0  0.34862  0  4.089412  0  0  0.08834  0.332451  0  4.0614  0
C  C55  1  0.73626322  0.47895632  0.56024516  1  0  0.343104  0  3.810371  0  0  0.339657  0  4.072396  0  0  0.348703  0  4.089353  0  0  0.088401  0.332528  0  4.061327  0
C  C56  1  0.15042550  0.44703002  0.45608835  1  0  -0.179451  0  3.671142  0  0  -0.212312  0  3.915697  0  0  -0.213989  0  3.932672  0  0  -0.089172  -0.210616  0  3.904108  0
C  C57  1  0.84957677  0.55297044  0.54391207  1  0  -0.179418  0  3.671009  0  0  -0.212304  0  3.915569  0  0  -0.213989  0  3.932537  0  0  -0.089167  -0.210603  0  3.903986  0
C  C58  1  0.11483332  0.31564569  0.42513042  1  0  -0.040709  0  3.806622  0  0  -0.020862  0  4.049686  0  0  -0.027076  0  4.072904  0  0  -0.018837  -0.016833  0  4.033901  0
C  C59  1  0.88516477  0.68435481  0.57487104  1  0  -0.040737  0  3.806762  0  0  -0.020829  0  4.049757  0  0  -0.027008  0  4.072932  0  0  -0.018861  -0.016825  0  4.033996  0
C  C60  1  0.19551559  0.25750433  0.37964293  1  0  -0.125513  0  3.757238  0  0  -0.169592  0  4.022639  0  0  -0.168853  0  4.041818  0  0  -0.095537  -0.170141  0  4.009779  0
C  C61  1  0.80448154  0.74248864  0.62035926  1  0  -0.125536  0  3.757448  0  0  -0.169679  0  4.022857  0  0  -0.168944  0  4.042006  0  0  -0.095549  -0.170228  0  4.010004  0
C  C62  1  0.98904541  0.24534353  0.44202309  1  0  0.564377  0  3.789161  0  0  0.519954  0  4.069916  0  0  0.549364  0  4.068649  0  0  0.254642  0.500102  0  4.070107  0
C  C63  1  0.01095453  0.75465602  0.55797810  1  0  0.564328  0  3.789198  0  0  0.519894  0  4.069964  0  0  0.549294  0  4.068701  0  0  0.254633  0.500048  0  4.070144  0
C  C64  1  0.82472873  0.03296004  0.39826113  1  0  0.209582  0  3.807393  0  0  0.204854  0  4.067862  0  0  0.208603  0  4.090112  0  0  0.102368  0.201947  0  4.052993  0
C  C65  1  0.17526649  0.96704142  0.60174106  1  0  0.209577  0  3.807301  0  0  0.204923  0  4.067653  0  0  0.208674  0  4.089898  0  0  0.1024  0.202018  0  4.052763  0
C  C66  1  0.76234287  0.92215270  0.31420072  1  0  0.00758  0  3.659856  0  0  -0.032302  0  3.915251  0  0  -0.028887  0  3.931988  0  0  0.038453  -0.034497  0  3.903884  0
C  C67  1  0.23764923  0.07784964  0.68579586  1  0  0.007554  0  3.659941  0  0  -0.032307  0  3.915224  0  0  -0.028905  0  3.931979  0  0  0.038503  -0.034484  0  3.903839  0
C  C68  1  0.59356866  0.85061677  0.38527838  1  0  0.13104  0  3.665708  0  0  0.095209  0  3.917245  0  0  0.101562  0  3.935254  0  0  0.051579  0.090925  0  3.904999  0
C  C69  1  0.40642065  0.14938656  0.61472131  1  0  0.131019  0  3.665723  0  0  0.095173  0  3.917274  0  0  0.10153  0  3.935279  0  0  0.051596  0.090891  0  3.905056  0
C  C70  1  0.65370099  0.95614664  0.47390796  1  0  -0.086538  0  3.723213  0  0  -0.09664  0  3.975981  0  0  -0.102138  0  3.995888  0  0  -0.07259  -0.093366  0  3.962949  0
C  C71  1  0.34629016  0.04385574  0.52609145  1  0  -0.086592  0  3.723286  0  0  -0.096691  0  3.976094  0  0  -0.102187  0  3.995994  0  0  -0.072594  -0.093404  0  3.96304  0
C  C72  1  0.77077777  0.04885736  0.48188256  1  0  -0.103961  0  3.658703  0  0  -0.132098  0  3.911206  0  0  -0.130554  0  3.926335  0  0  -0.06899  -0.132917  0  3.901321  0
C  C73  1  0.22921956  0.95114409  0.51811951  1  0  -0.103925  0  3.65863  0  0  -0.132054  0  3.911099  0  0  -0.130507  0  3.926226  0  0  -0.068974  -0.132856  0  3.901176  0
C  C74  1  0.18483295  0.36357869  0.82494510  1  0  0.637288  0  3.921984  0  0  0.591485  0  4.211318  0  0  0.625176  0  4.204405  0  0  0.196673  0.56822  0  4.215341  0
C  C75  1  0.81516971  0.63643202  0.17504755  1  0  0.637197  0  3.922034  0  0  0.591437  0  4.21142  0  0  0.625126  0  4.20451  0  0  0.196582  0.568169  0  4.215459  0
C  C76  1  0.08217345  0.44048746  0.83475847  1  0  -0.045572  0  3.767829  0  0  -0.021047  0  4.004851  0  0  -0.028567  0  4.02777  0  0  -0.021569  -0.01612  0  3.99002  0
C  C77  1  0.91782656  0.55952137  0.16523322  1  0  -0.045344  0  3.767444  0  0  -0.021044  0  4.004757  0  0  -0.028551  0  4.027652  0  0  -0.021604  -0.016126  0  3.989966  0
C  C78  1  0.95051309  0.37807171  0.83335866  1  0  -0.08593  0  3.714258  0  0  -0.128759  0  3.969697  0  0  -0.127226  0  3.987755  0  0  -0.088186  -0.130514  0  3.959015  0
C  C79  1  0.04949000  0.62193245  0.16663680  1  0  -0.086122  0  3.714234  0  0  -0.128891  0  3.969722  0  0  -0.127361  0  3.987776  0  0  -0.088247  -0.130661  0  3.959067  0
C  C80  1  0.85727636  0.44700810  0.85074292  1  0  -0.046944  0  3.798852  0  0  -0.018967  0  4.030288  0  0  -0.02676  0  4.055186  0  0  -0.02123  -0.013892  0  4.014198  0
C  C81  1  0.14272585  0.55299234  0.14925591  1  0  -0.046918  0  3.79873  0  0  -0.018867  0  4.030101  0  0  -0.026661  0  4.055  0  0  -0.021215  -0.013783  0  4.014011  0
C  C82  1  0.71341876  0.37640411  0.84100144  1  0  0.633609  0  3.893107  0  0  0.58285  0  4.185959  0  0  0.615716  0  4.180168  0  0  0.201594  0.560112  0  4.189556  0
C  C83  1  0.28658315  0.62359538  0.15899645  1  0  0.633655  0  3.8931  0  0  0.582847  0  4.186011  0  0  0.615711  0  4.180219  0  0  0.201551  0.560097  0  4.18961  0
C  C84  1  0.89865055  0.57883455  0.87390024  1  0  -0.202784  0  3.742979  0  0  -0.236211  0  3.996224  0  0  -0.238789  0  4.017214  0  0  -0.098758  -0.233445  0  3.981414  0
C  C85  1  0.10134606  0.42116495  0.12609677  1  0  -0.202822  0  3.742945  0  0  -0.236285  0  3.996186  0  0  -0.238853  0  4.017167  0  0  -0.098794  -0.233544  0  3.981384  0
C  C86  1  0.02883158  0.64123128  0.87291898  1  0  0.319606  0  3.818877  0  0  0.315742  0  4.089062  0  0  0.323482  0  4.106467  0  0  0.076556  0.310114  0  4.076691  0
C  C87  1  0.97116540  0.35877297  0.12708161  1  0  0.319586  0  3.818805  0  0  0.315744  0  4.088934  0  0  0.323485  0  4.10634  0  0  0.076567  0.310113  0  4.076576  0
C  C88  1  0.11974325  0.57230475  0.85143427  1  0  -0.16101  0  3.652425  0  0  -0.195299  0  3.902683  0  0  -0.196323  0  3.921273  0  0  -0.092958  -0.19344  0  3.88937  0
C  C89  1  0.88025520  0.42770513  0.14856484  1  0  -0.161018  0  3.652338  0  0  -0.195195  0  3.902653  0  0  -0.196222  0  3.921243  0  0  -0.092922  -0.193375  0  3.889344  0
N  N90  1  0.50362694  0.26013064  0.98614261  1  0  -0.321743  0  3.357816  0  0  -0.233183  0  3.636499  0  0  -0.252489  0  3.652638  0  0  -0.331842  -0.219919  0  3.625346  0
N  N91  1  0.49638060  0.73987273  0.01386516  1  0  -0.321708  0  3.357772  0  0  -0.233228  0  3.636586  0  0  -0.252556  0  3.652749  0  0  -0.33182  -0.219928  0  3.625379  0
N  N92  1  0.44048851  0.32839597  0.24357081  1  0  -0.459336  0  3.329258  0  0  -0.403934  0  3.563641  0  0  -0.426815  0  3.573152  0  0  -0.400035  -0.388103  0  3.55683  0
N  N93  1  0.55951526  0.67159794  0.75643275  1  0  -0.459145  0  3.329066  0  0  -0.403764  0  3.563442  0  0  -0.426645  0  3.57296  0  0  -0.400043  -0.387938  0  3.556643  0
N  N94  1  0.93965833  0.11927277  0.39406751  1  0  -0.441877  0  3.362973  0  0  -0.392744  0  3.603984  0  0  -0.414496  0  3.614934  0  0  -0.394132  -0.377632  0  3.596154  0
N  N95  1  0.06034006  0.88072868  0.60593490  1  0  -0.441765  0  3.362955  0  0  -0.392718  0  3.603999  0  0  -0.414466  0  3.614961  0  0  -0.394151  -0.377604  0  3.596156  0
N  N96  1  0.64926390  0.83377111  0.30787465  1  0  -0.301847  0  3.340783  0  0  -0.213778  0  3.618043  0  0  -0.23201  0  3.633831  0  0  -0.324074  -0.201152  0  3.607116  0
N  N97  1  0.35072878  0.16623314  0.69212380  1  0  -0.301899  0  3.340878  0  0  -0.213839  0  3.618146  0  0  -0.232071  0  3.633929  0  0  -0.324167  -0.201241  0  3.607254  0
O  O98  1  0.30211148  0.42437279  0.81944805  1  0  -0.650712  0  2.010279  0  0  -0.578261  0  2.276866  0  0  -0.606769  0  2.262312  0  0  -0.342068  -0.556901  0  2.287498  0
O  O99  1  0.69789061  0.57563980  0.18054377  1  0  -0.650714  0  2.010416  0  0  -0.578262  0  2.276982  0  0  -0.606769  0  2.262428  0  0  -0.342089  -0.556905  0  2.287609  0
O  O100  1  0.15675072  0.24790237  0.82731995  1  0  -0.632948  0  1.917982  0  0  -0.59072  0  2.133481  0  0  -0.613236  0  2.123569  0  0  -0.339694  -0.574021  0  2.139397  0
O  O101  1  0.84326023  0.75211118  0.17267630  1  0  -0.63294  0  1.918113  0  0  -0.59069  0  2.133593  0  0  -0.613204  0  2.123681  0  0  -0.339644  -0.574006  0  2.139527  0
O  O102  1  0.68936073  0.26094550  0.84146069  1  0  -0.594834  0  1.935904  0  0  -0.551742  0  2.159878  0  0  -0.573985  0  2.151487  0  0  -0.310292  -0.535401  0  2.165024  0
O  O103  1  0.31064170  0.73905209  0.15853645  1  0  -0.594842  0  1.935961  0  0  -0.551727  0  2.159966  0  0  -0.57397  0  2.151578  0  0  -0.310302  -0.535431  0  2.165129  0
O  O104  1  0.61262214  0.44040063  0.82845936  1  0  -0.673534  0  2.045602  0  0  -0.58988  0  2.308872  0  0  -0.618502  0  2.293839  0  0  -0.335021  -0.568817  0  2.320382  0
O  O105  1  0.38737798  0.55959605  0.17153934  1  0  -0.673512  0  2.04566  0  0  -0.589868  0  2.308926  0  0  -0.6185  0  2.293925  0  0  -0.335017  -0.568811  0  2.320445  0
O  O106  1  0.38957325  0.15116857  0.31710603  1  0  -0.536497  0  1.909091  0  0  -0.498338  0  2.118493  0  0  -0.518659  0  2.113173  0  0  -0.295509  -0.484261  0  2.122118  0
O  O107  1  0.61043061  0.84882537  0.68289991  1  0  -0.536544  0  1.909155  0  0  -0.498406  0  2.118523  0  0  -0.518731  0  2.113205  0  0  -0.29554  -0.484277  0  2.12215  0
O  O108  1  0.29888013  0.64887977  0.46638849  1  0  -0.515181  0  2.075612  0  0  -0.470818  0  2.281998  0  0  -0.489559  0  2.274933  0  0  -0.355187  -0.457037  0  2.286826  0
O  O109  1  0.70112092  0.35111309  0.53360631  1  0  -0.515161  0  2.075662  0  0  -0.470808  0  2.282021  0  0  -0.48955  0  2.274967  0  0  -0.355168  -0.457004  0  2.286824  0
O  O110  1  0.93186375  0.29816980  0.49611641  1  0  -0.549797  0  1.985828  0  0  -0.49826  0  2.19914  0  0  -0.519999  0  2.192468  0  0  -0.275495  -0.483301  0  2.203426  0
O  O111  1  0.06813616  0.70183351  0.50388504  1  0  -0.549737  0  1.985926  0  0  -0.498194  0  2.199224  0  0  -0.519931  0  2.19256  0  0  -0.27543  -0.483204  0  2.20349  0
O  O112  1  0.07081459  0.77076507  0.89171123  1  0  -0.510899  0  2.070363  0  0  -0.46982  0  2.265879  0  0  -0.485836  0  2.258974  0  0  -0.355806  -0.458138  0  2.270194  0
O  O113  1  0.92917995  0.22923738  0.10829395  1  0  -0.51103  0  2.070204  0  0  -0.469955  0  2.265696  0  0  -0.48597  0  2.25879  0  0  -0.355925  -0.458292  0  2.270023  0
