# generated using pymatgen
data_AgH9C14(N2O)2
_symmetry_space_group_name_H-M   'P 1'
_cell_length_a   6.41119316
_cell_length_b   10.67888444
_cell_length_c   18.63549468
_cell_angle_alpha   89.99983228
_cell_angle_beta   92.45505487
_cell_angle_gamma   90.00037377
_symmetry_Int_Tables_number   1
_chemical_formula_structural   AgH9C14(N2O)2
_chemical_formula_sum   'Ag4 H36 C56 N16 O8'
_cell_volume   1274.69671186
_cell_formula_units_Z   4
loop_
 _symmetry_equiv_pos_site_id
 _symmetry_equiv_pos_as_xyz
  1  'x, y, z'
loop_
 _atom_site_type_symbol
 _atom_site_label
 _atom_site_symmetry_multiplicity
 _atom_site_fract_x
 _atom_site_fract_y
 _atom_site_fract_z
 _atom_site_occupancy
 _atom_site_hle17_bader_spin_density
 _atom_site_hle17_ddec_charge
 _atom_site_hle17_ddec_spin_density
 _atom_site_hle17_ddec_sum_bond_order
 _atom_site_hle17_magmom
 _atom_site_hse06_10hf_bader_spin_density
 _atom_site_hse06_10hf_ddec_charge
 _atom_site_hse06_10hf_ddec_spin_density
 _atom_site_hse06_10hf_ddec_sum_bond_order
 _atom_site_hse06_10hf_magmom
 _atom_site_hse06_bader_spin_density
 _atom_site_hse06_ddec_charge
 _atom_site_hse06_ddec_spin_density
 _atom_site_hse06_ddec_sum_bond_order
 _atom_site_hse06_magmom
 _atom_site_pbe_bader_charge
 _atom_site_pbe_bader_spin_density
 _atom_site_pbe_cm5_charge
 _atom_site_pbe_ddec_charge
 _atom_site_pbe_ddec_spin_density
 _atom_site_pbe_ddec_sum_bond_order
 _atom_site_pbe_magmom
Ag  Ag0  1  0.27138258  0.71577370  0.60617002  1  0  0.530788  0  1.393162  0  0  0.378231  0  1.825434  0  0  0.410473  0  1.782319  0  0.581588  0  0.450691  0.356202  0  1.855312  0
Ag  Ag1  1  0.22862101  0.21572832  0.89383163  1  0  0.530883  0  1.393226  0  0  0.378274  0  1.825604  0  0  0.410516  0  1.782478  0  0.581671  0  0.450706  0.356246  0  1.855487  0
Ag  Ag2  1  0.72860744  0.28426443  0.39382661  1  0  0.530895  0  1.393265  0  0  0.378371  0  1.825604  0  0  0.410606  0  1.782483  0  0.581817  0  0.450765  0.35635  0  1.855483  0
Ag  Ag3  1  0.77138427  0.78423489  0.10616915  1  0  0.530798  0  1.393267  0  0  0.378263  0  1.825528  0  0  0.410504  0  1.78241  0  0.581552  0  0.450701  0.356235  0  1.855408  0
H  H4  1  0.84608364  0.88730826  0.81627468  1  0  0.094427  0  0.968812  0  0  0.106192  0  1.026963  0  0  0.109083  0  1.025092  0  0.069984  0  0.102375  0.104144  0  1.028258  0
H  H5  1  0.65396757  0.38731855  0.68373082  1  0  0.094601  0  0.968788  0  0  0.106231  0  1.027095  0  0  0.10912  0  1.025225  0  0.070138  0  0.102477  0.104182  0  1.028392  0
H  H6  1  0.15397470  0.11267837  0.18372746  1  0  0.094566  0  0.968753  0  0  0.106221  0  1.027044  0  0  0.109112  0  1.025174  0  0.070105  0  0.102466  0.104176  0  1.028334  0
H  H7  1  0.34606268  0.61271115  0.31627060  1  0  0.094495  0  0.968798  0  0  0.106201  0  1.027018  0  0  0.109088  0  1.02515  0  0.069872  0  0.102393  0.104153  0  1.028312  0
H  H8  1  0.15444234  0.87382133  0.73693054  1  0  0.109806  0  0.976299  0  0  0.114117  0  1.049826  0  0  0.118139  0  1.04667  0  0.119441  0  0.104895  0.111262  0  1.05215  0
H  H9  1  0.34561434  0.37379049  0.76307569  1  0  0.109841  0  0.976239  0  0  0.114083  0  1.049862  0  0  0.118096  0  1.046731  0  0.119464  0  0.104925  0.111234  0  1.052168  0
H  H10  1  0.84562224  0.12620463  0.26307176  1  0  0.109869  0  0.976341  0  0  0.114044  0  1.050012  0  0  0.118056  0  1.046881  0  0.119368  0  0.104937  0.111198  0  1.052317  0
H  H11  1  0.65441445  0.62619333  0.23692462  1  0  0.109747  0  0.976548  0  0  0.114027  0  1.05013  0  0  0.118049  0  1.046976  0  0.119156  0  0.104927  0.111173  0  1.052451  0
H  H12  1  0.08304850  0.26828736  0.68992732  1  0  0.115311  0  0.952915  0  0  0.126406  0  1.012189  0  0  0.129181  0  1.011536  0  0.106972  0  0.108038  0.124453  0  1.012691  0
H  H13  1  0.41691420  0.76826683  0.81007222  1  0  0.115272  0  0.95319  0  0  0.126376  0  1.012426  0  0  0.129147  0  1.01177  0  0.107097  0  0.108054  0.124428  0  1.012933  0
H  H14  1  0.91689959  0.73172736  0.31006610  1  0  0.115219  0  0.953212  0  0  0.126413  0  1.012346  0  0  0.129187  0  1.011688  0  0.106941  0  0.10805  0.124458  0  1.012851  0
H  H15  1  0.58303271  0.23171886  0.18993405  1  0  0.11536  0  0.95291  0  0  0.126472  0  1.012163  0  0  0.129243  0  1.01151  0  0.107656  0  0.108058  0.124524  0  1.01267  0
H  H16  1  0.78505695  0.27709590  0.76928414  1  0  0.10136  0  0.971095  0  0  0.110306  0  1.033985  0  0  0.112809  0  1.033204  0  0.100525  0  0.101849  0.108537  0  1.034542  0
H  H17  1  0.71489701  0.77711182  0.73071512  1  0  0.101411  0  0.970793  0  0  0.110302  0  1.033781  0  0  0.112805  0  1.033004  0  0.10055  0  0.101822  0.108532  0  1.034338  0
H  H18  1  0.21487885  0.72288323  0.23070681  1  0  0.101441  0  0.970861  0  0  0.110394  0  1.033762  0  0  0.112899  0  1.032981  0  0.100543  0  0.101851  0.108624  0  1.03432  0
H  H19  1  0.28504492  0.22291788  0.26929425  1  0  0.101322  0  0.971232  0  0  0.110266  0  1.034116  0  0  0.112775  0  1.033328  0  0.100375  0  0.101846  0.108439  0  1.034739  0
H  H20  1  0.71741873  0.14938136  0.57718404  1  0  0.13585  0  0.964803  0  0  0.139427  0  1.034404  0  0  0.14353  0  1.032134  0  0.149247  0  0.109483  0.13643  0  1.03628  0
H  H21  1  0.78255386  0.64933712  0.92280335  1  0  0.136083  0  0.964659  0  0  0.139643  0  1.034271  0  0  0.143751  0  1.031992  0  0.150017  0  0.109527  0.136642  0  1.036155  0
H  H22  1  0.28256462  0.85065115  0.42280008  1  0  0.135826  0  0.964972  0  0  0.139482  0  1.034467  0  0  0.143592  0  1.032181  0  0.149975  0  0.109418  0.136478  0  1.036356  0
H  H23  1  0.21740193  0.35062796  0.07719134  1  0  0.135885  0  0.964935  0  0  0.139484  0  1.034484  0  0  0.143588  0  1.032212  0  0.14949  0  0.109528  0.136488  0  1.036358  0
H  H24  1  0.41510521  0.25116776  0.65989221  1  0  0.11124  0  0.964123  0  0  0.125636  0  1.022603  0  0  0.127495  0  1.021508  0  0.153549  0  0.12873  0.124264  0  1.023359  0
H  H25  1  0.08486766  0.75113192  0.84009470  1  0  0.111431  0  0.963625  0  0  0.125657  0  1.022323  0  0  0.127515  0  1.021239  0  0.154055  0  0.128693  0.124294  0  1.023087  0
H  H26  1  0.58487029  0.74886475  0.34009224  1  0  0.111315  0  0.964021  0  0  0.125606  0  1.022634  0  0  0.127458  0  1.021558  0  0.15382  0  0.128694  0.124252  0  1.023383  0
H  H27  1  0.91508828  0.24884628  0.15989838  1  0  0.111263  0  0.964111  0  0  0.125656  0  1.022577  0  0  0.127514  0  1.021485  0  0.153482  0  0.128754  0.12428  0  1.023363  0
H  H28  1  0.58748334  0.58077604  0.50992691  1  0  0.077494  0  0.945403  0  0  0.090255  0  1.005135  0  0  0.092818  0  1.00241  0  0.109324  0  0.119542  0.088345  0  1.007344  0
H  H29  1  0.91254577  0.08073242  0.99007588  1  0  0.077533  0  0.945486  0  0  0.090339  0  1.00515  0  0  0.092891  0  1.002422  0  0.108731  0  0.119683  0.088429  0  1.007359  0
H  H30  1  0.41254866  0.41925085  0.49007241  1  0  0.077476  0  0.945454  0  0  0.09028  0  1.005135  0  0  0.092844  0  1.002388  0  0.108904  0  0.119573  0.08836  0  1.007364  0
H  H31  1  0.08751213  0.91923735  0.00993108  1  0  0.077555  0  0.945433  0  0  0.090323  0  1.005142  0  0  0.092865  0  1.00244  0  0.109358  0  0.119604  0.088411  0  1.007352  0
H  H32  1  0.92327543  0.63036581  0.45182383  1  0  0.113086  0  0.966333  0  0  0.119044  0  1.030618  0  0  0.123257  0  1.026665  0  0.187837  0  0.118493  0.115988  0  1.033544  0
H  H33  1  0.57676919  0.13032047  0.04818940  1  0  0.113314  0  0.965964  0  0  0.119073  0  1.03053  0  0  0.123286  0  1.026583  0  0.187303  0  0.118586  0.116002  0  1.033451  0
H  H34  1  0.07675340  0.36966483  0.54817595  1  0  0.113142  0  0.966127  0  0  0.119033  0  1.030514  0  0  0.123244  0  1.026564  0  0.187598  0  0.118563  0.115966  0  1.033437  0
H  H35  1  0.42329577  0.86963619  0.95182580  1  0  0.113107  0  0.966151  0  0  0.119009  0  1.030517  0  0  0.123221  0  1.026567  0  0.188142  0  0.118489  0.115949  0  1.033444  0
H  H36  1  0.91710007  0.98478059  0.54547816  1  0  0.087316  0  0.962635  0  0  0.092941  0  1.032046  0  0  0.095642  0  1.030368  0  0.104068  0  0.117586  0.091011  0  1.033367  0
H  H37  1  0.58291093  0.48472800  0.95452847  1  0  0.087331  0  0.962542  0  0  0.093025  0  1.031934  0  0  0.095722  0  1.030268  0  0.104628  0  0.117672  0.091109  0  1.033228  0
H  H38  1  0.08289936  0.01525379  0.45451818  1  0  0.087345  0  0.962552  0  0  0.092977  0  1.032033  0  0  0.095676  0  1.030364  0  0.104807  0  0.117605  0.091051  0  1.03335  0
H  H39  1  0.41706944  0.51521274  0.04547114  1  0  0.087278  0  0.962582  0  0  0.092902  0  1.032032  0  0  0.095603  0  1.030354  0  0.104292  0  0.117553  0.09097  0  1.033358  0
C  C40  1  0.79394399  0.08138992  0.79600511  1  0  -0.072481  0  3.769808  0  0  -0.052445  0  4.002328  0  0  -0.061365  0  4.02677  0  -0.026192  0  -0.026046  -0.046806  0  3.986096  0
C  C41  1  0.70605573  0.58139583  0.70399425  1  0  -0.072438  0  3.770066  0  0  -0.052339  0  4.002475  0  0  -0.061258  0  4.026919  0  -0.026834  0  -0.025975  -0.046685  0  3.986219  0
C  C42  1  0.20605252  0.91860139  0.20398901  1  0  -0.072512  0  3.770178  0  0  -0.052415  0  4.00261  0  0  -0.061338  0  4.027054  0  -0.027409  0  -0.026018  -0.046764  0  3.986359  0
C  C43  1  0.29392907  0.41862825  0.29600816  1  0  -0.072268  0  3.769977  0  0  -0.052237  0  4.002448  0  0  -0.061158  0  4.026893  0  -0.004513  0  -0.025964  -0.046595  0  3.986202  0
C  C44  1  0.90215130  0.96894990  0.78794298  1  0  -0.073886  0  3.768218  0  0  -0.091106  0  4.010515  0  0  -0.090713  0  4.030643  0  -0.007465  0  -0.088416  -0.09116  0  3.997044  0
C  C45  1  0.59788018  0.46894958  0.71205826  1  0  -0.074079  0  3.768622  0  0  -0.091262  0  4.010977  0  0  -0.090869  0  4.031105  0  -0.006744  0  -0.088625  -0.091325  0  3.997507  0
C  C46  1  0.09788408  0.03104515  0.21205374  1  0  -0.074015  0  3.768795  0  0  -0.091218  0  4.011113  0  0  -0.090824  0  4.031242  0  -0.006379  0  -0.088605  -0.091274  0  3.997631  0
C  C47  1  0.40212817  0.53106139  0.28794314  1  0  -0.07421  0  3.768587  0  0  -0.091391  0  4.010913  0  0  -0.091  0  4.031049  0  -0.001401  0  -0.088604  -0.091449  0  3.997444  0
C  C48  1  0.07307733  0.96170874  0.74479192  1  0  -0.131814  0  3.721441  0  0  -0.155936  0  3.98125  0  0  -0.160015  0  4.000171  0  -0.051524  0  -0.089211  -0.153368  0  3.968794  0
C  C49  1  0.42696122  0.46170140  0.75521116  1  0  -0.13169  0  3.721522  0  0  -0.155721  0  3.981246  0  0  -0.159804  0  4.00017  0  -0.051571  0  -0.089117  -0.153161  0  3.968819  0
C  C50  1  0.92695940  0.03830317  0.25520698  1  0  -0.131684  0  3.721317  0  0  -0.155671  0  3.981053  0  0  -0.15975  0  3.999976  0  -0.051686  0  -0.089102  -0.153101  0  3.968597  0
C  C51  1  0.57305484  0.53830676  0.24479151  1  0  -0.131507  0  3.721314  0  0  -0.155642  0  3.981081  0  0  -0.159719  0  3.999995  0  -0.056567  0  -0.08911  -0.15308  0  3.968663  0
C  C52  1  0.13864378  0.06935074  0.70928717  1  0  0.171009  0  3.759951  0  0  0.151693  0  4.005621  0  0  0.157359  0  4.028119  0  0.328173  0  0.10003  0.148014  0  3.99057  0
C  C53  1  0.36136608  0.56932762  0.79071357  1  0  0.171136  0  3.75986  0  0  0.151783  0  4.005475  0  0  0.157445  0  4.027974  0  0.327386  0  0.100114  0.148104  0  3.990424  0
C  C54  1  0.86136492  0.93066023  0.29071048  1  0  0.171124  0  3.759663  0  0  0.151818  0  4.005236  0  0  0.15748  0  4.027733  0  0.327524  0  0.100036  0.14814  0  3.990189  0
C  C55  1  0.63862496  0.43065994  0.20928900  1  0  0.171013  0  3.759795  0  0  0.151767  0  4.00539  0  0  0.157434  0  4.027885  0  0.328412  0  0.100001  0.148069  0  3.990364  0
C  C56  1  0.03656406  0.18395349  0.71808791  1  0  -0.158124  0  3.730924  0  0  -0.177214  0  3.987998  0  0  -0.182488  0  4.007994  0  -0.061885  0  -0.092333  -0.173813  0  3.974734  0
C  C57  1  0.46340431  0.68394357  0.78191499  1  0  -0.158265  0  3.731406  0  0  -0.177373  0  3.988486  0  0  -0.18264  0  4.008479  0  -0.061852  0  -0.092445  -0.173984  0  3.97523  0
C  C58  1  0.96340080  0.81605467  0.28191023  1  0  -0.158328  0  3.73158  0  0  -0.177517  0  3.988627  0  0  -0.182788  0  4.008619  0  -0.061788  0  -0.092469  -0.174115  0  3.975363  0
C  C59  1  0.53654708  0.31606366  0.21809354  1  0  -0.158557  0  3.731075  0  0  -0.177693  0  3.988223  0  0  -0.182966  0  4.008218  0  -0.062829  0  -0.092497  -0.174289  0  3.974954  0
C  C60  1  0.86620540  0.18899498  0.76194175  1  0  -0.066747  0  3.767624  0  0  -0.089117  0  4.019614  0  0  -0.087523  0  4.038735  0  -0.026658  0  -0.089672  -0.089939  0  4.006819  0
C  C61  1  0.63376526  0.68899490  0.73805901  1  0  -0.066828  0  3.767585  0  0  -0.089164  0  4.019587  0  0  -0.087573  0  4.03871  0  -0.026582  0  -0.089623  -0.089985  0  4.006783  0
C  C62  1  0.13375351  0.81099820  0.23805301  1  0  -0.066723  0  3.767572  0  0  -0.089126  0  4.019631  0  0  -0.087531  0  4.038744  0  -0.026109  0  -0.089614  -0.08995  0  4.006835  0
C  C63  1  0.36619096  0.31101888  0.26194804  1  0  -0.066511  0  3.767192  0  0  -0.088861  0  4.01913  0  0  -0.087268  0  4.038242  0  -0.048707  0  -0.089569  -0.089638  0  4.006357  0
C  C64  1  0.59948052  0.08294696  0.83880364  1  0  0.620078  0  3.969888  0  0  0.571869  0  4.25859  0  0  0.60564  0  4.255324  0  1.551087  0  0.185105  0.548954  0  4.259769  0
C  C65  1  0.90052231  0.58298050  0.66119633  1  0  0.620278  0  3.970465  0  0  0.572019  0  4.259243  0  0  0.605795  0  4.255978  0  1.551615  0  0.185169  0.549098  0  4.260421  0
C  C66  1  0.40052193  0.91701532  0.16119385  1  0  0.620076  0  3.970843  0  0  0.571818  0  4.259618  0  0  0.605597  0  4.256351  0  1.551622  0  0.185103  0.548894  0  4.260797  0
C  C67  1  0.09946596  0.41705482  0.33880240  1  0  0.619938  0  3.969544  0  0  0.571747  0  4.258233  0  0  0.605519  0  4.254967  0  1.55112  0  0.185062  0.548834  0  4.259406  0
C  C68  1  0.54065051  0.97196996  0.60113636  1  0  0.117963  0  3.819829  0  0  0.108992  0  4.082105  0  0  0.112913  0  4.104  0  0.500826  0  0.094158  0.106888  0  4.066959  0
C  C69  1  0.95935855  0.47193389  0.89887129  1  0  0.117871  0  3.819872  0  0  0.10902  0  4.081982  0  0  0.112942  0  4.103886  0  0.500438  0  0.094166  0.106911  0  4.066825  0
C  C70  1  0.45935043  0.02805880  0.39886056  1  0  0.117868  0  3.819601  0  0  0.108889  0  4.081777  0  0  0.112848  0  4.103708  0  0.500748  0  0.09415  0.106784  0  4.066616  0
C  C71  1  0.04063346  0.52804149  0.10113774  1  0  0.117843  0  3.819845  0  0  0.108848  0  4.082103  0  0  0.112782  0  4.104017  0  0.50109  0  0.094183  0.106746  0  4.066945  0
C  C72  1  0.59030107  0.10186409  0.60260047  1  0  -0.210317  0  3.718743  0  0  -0.229621  0  3.982379  0  0  -0.239522  0  4.006339  0  -0.018238  0  -0.103569  -0.223102  0  3.966237  0
C  C73  1  0.90969637  0.60181919  0.89739453  1  0  -0.210725  0  3.719254  0  0  -0.230017  0  3.982827  0  0  -0.239919  0  4.006788  0  -0.019232  0  -0.103839  -0.223499  0  3.966694  0
C  C74  1  0.40968320  0.89816468  0.39739064  1  0  -0.210308  0  3.718585  0  0  -0.229628  0  3.982059  0  0  -0.239529  0  4.006012  0  -0.019308  0  -0.103683  -0.223106  0  3.965923  0
C  C75  1  0.09029039  0.39814590  0.10260364  1  0  -0.210322  0  3.718756  0  0  -0.229606  0  3.982339  0  0  -0.239509  0  4.006303  0  -0.018357  0  -0.103662  -0.223087  0  3.966197  0
C  C76  1  0.43973204  0.15535260  0.64346465  1  0  0.01113  0  3.644066  0  0  -0.048253  0  3.901588  0  0  -0.042276  0  3.919264  0  0.305968  0  0.022745  -0.051789  0  3.889341  0
C  C77  1  0.06024546  0.65530159  0.85653419  1  0  0.011092  0  3.643714  0  0  -0.048205  0  3.901231  0  0  -0.042237  0  3.918914  0  0.305459  0  0.022892  -0.051765  0  3.88901  0
C  C78  1  0.56025706  0.84467336  0.35652498  1  0  0.011101  0  3.643561  0  0  -0.04822  0  3.901075  0  0  -0.042249  0  3.91875  0  0.306053  0  0.022877  -0.051783  0  3.888863  0
C  C79  1  0.93971578  0.34465507  0.14346923  1  0  0.011133  0  3.643861  0  0  -0.048245  0  3.901434  0  0  -0.042272  0  3.919118  0  0.305865  0  0.022752  -0.051802  0  3.889206  0
C  C80  1  0.64543697  0.87228935  0.56321591  1  0  0.162179  0  3.732828  0  0  0.161846  0  3.966428  0  0  0.167645  0  3.985026  0  0.447928  0  0.13019  0.157455  0  3.954193  0
C  C81  1  0.85457952  0.37224631  0.93678925  1  0  0.162449  0  3.732626  0  0  0.162064  0  3.966315  0  0  0.167858  0  3.984931  0  0.447548  0  0.130166  0.157698  0  3.954033  0
C  C82  1  0.35455602  0.12773661  0.43678242  1  0  0.162125  0  3.732847  0  0  0.162087  0  3.966206  0  0  0.167752  0  3.984991  0  0.447188  0  0.130172  0.157713  0  3.953951  0
C  C83  1  0.14543322  0.62771597  0.06321549  1  0  0.162016  0  3.733122  0  0  0.161801  0  3.96658  0  0  0.167548  0  3.985253  0  0.447917  0  0.130135  0.157418  0  3.954332  0
C  C84  1  0.65846261  0.67293451  0.51599719  1  0  0.087832  0  3.693935  0  0  0.058169  0  3.938643  0  0  0.061463  0  3.957699  0  0.462652  0  0.054091  0.055479  0  3.926312  0
C  C85  1  0.84155252  0.17289189  0.98400953  1  0  0.087511  0  3.694156  0  0  0.057902  0  3.938785  0  0  0.06121  0  3.957837  0  0.463087  0  0.053877  0.055205  0  3.926462  0
C  C86  1  0.34154136  0.32709144  0.48400087  1  0  0.087669  0  3.694099  0  0  0.058067  0  3.938818  0  0  0.061385  0  3.957867  0  0.463807  0  0.054013  0.055375  0  3.92648  0
C  C87  1  0.15848348  0.82707319  0.01599740  1  0  0.087851  0  3.693965  0  0  0.058193  0  3.938597  0  0  0.061507  0  3.957649  0  0.462303  0  0.054136  0.05551  0  3.926256  0
C  C88  1  0.84708738  0.69983918  0.48496216  1  0  0.057185  0  3.687056  0  0  0.032611  0  3.947828  0  0  0.035279  0  3.960677  0  0.482042  0  0.046493  0.030529  0  3.93978  0
C  C89  1  0.65294510  0.19979232  0.01504646  1  0  0.05705  0  3.686286  0  0  0.032444  0  3.947296  0  0  0.03515  0  3.960059  0  0.482277  0  0.046283  0.030388  0  3.939232  0
C  C90  1  0.15292620  0.30019146  0.51503347  1  0  0.057218  0  3.686766  0  0  0.032609  0  3.947674  0  0  0.035283  0  3.960502  0  0.482251  0  0.046373  0.030542  0  3.939622  0
C  C91  1  0.34709372  0.80016246  0.98496377  1  0  0.057136  0  3.686731  0  0  0.03257  0  3.947552  0  0  0.035246  0  3.960379  0  0.481821  0  0.046447  0.030489  0  3.939505  0
C  C92  1  0.84134140  0.89486957  0.53480116  1  0  0.060803  0  3.649499  0  0  0.029119  0  3.907902  0  0  0.031435  0  3.9213  0  0.56923  0  0.057827  0.027272  0  3.899461  0
C  C93  1  0.65868631  0.39481873  0.96520642  1  0  0.060386  0  3.649778  0  0  0.028494  0  3.908406  0  0  0.030806  0  3.921812  0  0.567811  0  0.057447  0.026639  0  3.899965  0
C  C94  1  0.15867198  0.10516387  0.46519661  1  0  0.060558  0  3.649878  0  0  0.028587  0  3.908513  0  0  0.030938  0  3.921948  0  0.569083  0  0.057502  0.026735  0  3.90007  0
C  C95  1  0.34132174  0.60512856  0.03479819  1  0  0.060934  0  3.649398  0  0  0.029131  0  3.907917  0  0  0.031464  0  3.921329  0  0.569215  0  0.057776  0.027279  0  3.899478  0
N  N96  1  0.31146926  0.06069184  0.66451439  1  0  0.063084  0  3.586698  0  0  0.173879  0  3.765319  0  0  0.165766  0  3.787241  0  -0.815891  0  -0.113936  0.179026  0  3.750549  0
N  N97  1  0.18853870  0.56065980  0.83548791  1  0  0.063483  0  3.586078  0  0  0.174427  0  3.764581  0  0  0.166328  0  3.786489  0  -0.815754  0  -0.11366  0.179572  0  3.749814  0
N  N98  1  0.68853329  0.93933130  0.33548203  1  0  0.063397  0  3.586308  0  0  0.174254  0  3.764864  0  0  0.166154  0  3.786771  0  -0.815964  0  -0.113709  0.179397  0  3.750101  0
N  N99  1  0.81144912  0.43932027  0.16451565  1  0  0.063238  0  3.586401  0  0  0.173984  0  3.76506  0  0  0.165873  0  3.786978  0  -0.816398  0  -0.113851  0.179139  0  3.750294  0
N  N100  1  0.37132763  0.94840924  0.63914920  1  0  -0.282105  0  2.959384  0  0  -0.265665  0  3.23248  0  0  -0.274716  0  3.245789  0  -0.668863  0  -0.224596  -0.259337  0  3.223404  0
N  N101  1  0.12869897  0.44837546  0.86086163  1  0  -0.282574  0  2.959245  0  0  -0.266216  0  3.232311  0  0  -0.275269  0  3.245616  0  -0.668902  0  -0.2248  -0.259889  0  3.223241  0
N  N102  1  0.62869170  0.05161765  0.36085194  1  0  -0.282489  0  2.959152  0  0  -0.266097  0  3.232237  0  0  -0.275146  0  3.245532  0  -0.668913  0  -0.224781  -0.25977  0  3.223164  0
N  N103  1  0.87131020  0.55160367  0.13914784  1  0  -0.282184  0  2.959079  0  0  -0.265746  0  3.232235  0  0  -0.274795  0  3.245539  0  -0.668818  0  -0.224682  -0.259415  0  3.223152  0
N  N104  1  0.55559382  0.75793569  0.55428987  1  0  -0.289945  0  3.323773  0  0  -0.210104  0  3.597991  0  0  -0.225634  0  3.613156  0  -1.148262  0  -0.328059  -0.199372  0  3.587769  0
N  N105  1  0.94442658  0.25789255  0.94571378  1  0  -0.289964  0  3.324204  0  0  -0.21004  0  3.598386  0  0  -0.225568  0  3.613544  0  -1.147647  0  -0.327954  -0.199316  0  3.588163  0
N  N106  1  0.44442595  0.24209682  0.44570646  1  0  -0.28992  0  3.323855  0  0  -0.210266  0  3.598163  0  0  -0.225756  0  3.613353  0  -1.147581  0  -0.328  -0.19954  0  3.587945  0
N  N107  1  0.05559709  0.74207441  0.05429124  1  0  -0.290044  0  3.324116  0  0  -0.210208  0  3.598254  0  0  -0.225719  0  3.613424  0  -1.148023  0  -0.328096  -0.199481  0  3.588036  0
N  N108  1  0.94080669  0.81172440  0.49524788  1  0  -0.272476  0  3.096828  0  0  -0.235939  0  3.379513  0  0  -0.241357  0  3.38913  0  -1.191157  0  -0.305605  -0.232121  0  3.373404  0
N  N109  1  0.55921858  0.31167672  0.00476378  1  0  -0.27207  0  3.096651  0  0  -0.2354  0  3.379296  0  0  -0.240825  0  3.388925  0  -1.189567  0  -0.305291  -0.231588  0  3.373185  0
N  N110  1  0.05921449  0.18831185  0.50475009  1  0  -0.272096  0  3.096785  0  0  -0.23545  0  3.379494  0  0  -0.240865  0  3.389105  0  -1.192329  0  -0.305264  -0.231638  0  3.373386  0
N  N111  1  0.44080313  0.68827432  0.99524548  1  0  -0.272405  0  3.096637  0  0  -0.235814  0  3.37929  0  0  -0.241232  0  3.388906  0  -1.191271  0  -0.305505  -0.231999  0  3.373182  0
O  O112  1  0.54398616  0.98565344  0.87034548  1  0  -0.641117  0  1.921492  0  0  -0.592953  0  2.144439  0  0  -0.617684  0  2.135954  0  -1.184229  0  -0.340776  -0.575305  0  2.149416  0
O  O113  1  0.95603939  0.48568212  0.62965615  1  0  -0.641328  0  1.921496  0  0  -0.593126  0  2.144451  0  0  -0.617844  0  2.135935  0  -1.184272  0  -0.340783  -0.575471  0  2.149421  0
O  O114  1  0.45605627  0.01431633  0.12965948  1  0  -0.641268  0  1.921626  0  0  -0.593027  0  2.144583  0  0  -0.617757  0  2.136078  0  -1.184226  0  -0.340736  -0.575371  0  2.149553  0
O  O115  1  0.04395160  0.51436256  0.37034695  1  0  -0.641102  0  1.920606  0  0  -0.592951  0  2.143526  0  0  -0.617685  0  2.13504  0  -1.184365  0  -0.340717  -0.575298  0  2.148498  0
O  O116  1  0.50348966  0.18964725  0.83797492  1  0  -0.628973  0  2.122847  0  0  -0.542353  0  2.398327  0  0  -0.57662  0  2.391903  0  -1.130008  0  -0.350103  -0.518104  0  2.401823  0
O  O117  1  0.99648775  0.68967891  0.66202065  1  0  -0.628899  0  2.123192  0  0  -0.542311  0  2.398706  0  0  -0.576576  0  2.392283  0  -1.130402  0  -0.350161  -0.518062  0  2.402203  0
O  O118  1  0.49647905  0.81031409  0.16201527  1  0  -0.628835  0  2.123394  0  0  -0.542268  0  2.398917  0  0  -0.576533  0  2.392494  0  -1.130426  0  -0.35014  -0.518016  0  2.402411  0
O  O119  1  0.00348330  0.31036390  0.33797819  1  0  -0.628905  0  2.123044  0  0  -0.542306  0  2.398526  0  0  -0.576561  0  2.392094  0  -1.129891  0  -0.3501  -0.518061  0  2.402014  0
