# generated using pymatgen
data_Al2H11C22S2ClO12
_symmetry_space_group_name_H-M   'P 1'
_cell_length_a   6.63014614
_cell_length_b   12.78632769
_cell_length_c   15.46566608
_cell_angle_alpha   79.19333651
_cell_angle_beta   76.13192068
_cell_angle_gamma   74.12464879
_symmetry_Int_Tables_number   1
_chemical_formula_structural   Al2H11C22S2ClO12
_chemical_formula_sum   'Al2 H11 C22 S2 Cl1 O12'
_cell_volume   1213.85604111
_cell_formula_units_Z   1
loop_
 _symmetry_equiv_pos_site_id
 _symmetry_equiv_pos_as_xyz
  1  'x, y, z'
loop_
 _atom_site_type_symbol
 _atom_site_label
 _atom_site_symmetry_multiplicity
 _atom_site_fract_x
 _atom_site_fract_y
 _atom_site_fract_z
 _atom_site_occupancy
 _atom_site_pbe_bader_charge
 _atom_site_pbe_bader_spin_density
 _atom_site_pbe_cm5_charge
 _atom_site_pbe_ddec_charge
 _atom_site_pbe_ddec_spin_density
 _atom_site_pbe_ddec_sum_bond_order
 _atom_site_pbe_magmom
Al  Al0  1  0.50069654  0.49453526  0.50091577  1  2.503264  0  0.39486  1.644733  0  2.574662  0
Al  Al1  1  0.99888771  0.49770842  0.49982833  1  2.505586  0  0.394567  1.648372  0  2.573204  0
H  H2  1  0.25479345  0.38564546  0.59097857  1  0.621601  0  0.356259  0.434873  0  0.844903  0
H  H3  1  0.70847733  0.62667804  0.43831196  1  0.63165  0  0.339671  0.416973  0  0.886599  0
H  H4  1  0.93592087  0.45585415  0.76698175  1  0.076136  0  0.108507  0.121884  0  1.012046  0
H  H5  1  0.06630324  0.54650477  0.23465341  1  0.093201  0  0.111344  0.127283  0  1.006421  0
H  H6  1  0.73983782  0.43311635  0.22850138  1  0.073187  0  0.104653  0.111335  0  1.006947  0
H  H7  1  0.80507514  0.44015550  0.06490939  1  0.141115  0  0.10446  0.116933  0  1.071507  0
H  H8  1  0.26232508  0.56549115  0.77277389  1  0.072576  0  0.102424  0.108428  0  1.008034  0
H  H9  1  0.19738805  0.56509133  0.93575908  1  0.139948  0  0.104182  0.116961  0  1.073221  0
H  H10  1  0.61396224  0.13895354  0.55929679  1  0.113638  0  0.118057  0.14176  0  0.983077  0
H  H11  1  0.04273945  0.43885562  0.88977706  1  0.613182  0  0.330747  0.356366  0  0.897742  0
H  H12  1  0.96008896  0.57274229  0.11064192  1  0.616577  0  0.334047  0.361205  0  0.887478  0
C  C13  1  0.85920991  0.30106125  0.50307978  1  1.610723  0  0.261271  0.647233  0  4.146351  0
C  C14  1  0.65046579  0.50126411  0.66068808  1  1.572939  0  0.263477  0.63841  0  4.092504  0
C  C15  1  0.14360067  0.69262502  0.49521424  1  1.610713  0  0.25809  0.66109  0  4.136883  0
C  C16  1  0.35149019  0.49188565  0.34147934  1  1.555916  0  0.266925  0.638705  0  4.087517  0
C  C17  1  0.60427534  0.50694708  0.75896709  1  -0.036351  0  -0.021033  -0.015193  0  4.023981  0
C  C18  1  0.39789270  0.49157488  0.24252881  1  -0.01026  0  -0.017729  -0.011629  0  4.024677  0
C  C19  1  0.77221947  0.47854442  0.80499844  1  0.007104  0  -0.106016  -0.245029  0  4.003031  0
C  C20  1  0.73727724  0.47740352  0.89780064  1  0.44193  0  0.084899  0.266092  0  4.02066  0
C  C21  1  0.22986449  0.52415692  0.19634641  1  -0.029028  0  -0.103815  -0.246518  0  4.000698  0
C  C22  1  0.26519632  0.53001126  0.10307670  1  0.449998  0  0.086687  0.270952  0  4.017801  0
C  C23  1  0.60663286  0.46141402  0.19332955  1  -0.011422  0  -0.102303  -0.134172  0  4.044841  0
C  C24  1  0.64190718  0.46585460  0.10065444  1  -0.071379  0  -0.101123  -0.138488  0  3.998288  0
C  C25  1  0.39563492  0.53887947  0.80793242  1  -0.074806  0  -0.103869  -0.13646  0  4.046974  0
C  C26  1  0.36048372  0.53855697  0.90020671  1  0.009673  0  -0.100701  -0.137306  0  3.999709  0
C  C27  1  0.52564927  0.50551253  0.95071325  1  -0.044658  0  -0.0082  -0.006192  0  3.887299  0
C  C28  1  0.47670933  0.50152973  0.05014390  1  0.0292  0  -0.010682  -0.010968  0  3.886511  0
C  C29  1  0.22421442  0.88461686  0.46334706  1  0.163606  0  0.007397  0.099259  0  4.089944  0
C  C30  1  0.78324222  0.11120363  0.53102387  1  0.070605  0  -0.08874  -0.134792  0  3.966476  0
C  C31  1  0.09258759  0.81176089  0.49534943  1  -0.101253  0  -0.025941  -0.190956  0  3.944635  0
C  C32  1  0.91749126  0.18200054  0.50086264  1  -0.185029  0  -0.017029  -0.116574  0  3.964324  0
C  C33  1  0.89615081  0.00233503  0.51906459  1  -0.18783  0  -0.022355  0.002148  0  4.076725  0
C  C34  1  0.11324162  0.99327435  0.47790353  1  -0.149907  0  -0.03105  -0.089247  0  4.093931  0
S  S35  1  0.83219037  0.87695787  0.54119087  1  0.272166  0  0.095715  0.145895  0  2.815931  0
S  S36  1  0.18043876  0.11771190  0.45675934  1  0.277181  0  0.093889  0.143311  0  2.765573  0
Cl  Cl37  1  0.48507691  0.85394711  0.40780649  1  -0.172336  0  0.021156  -0.033283  0  1.587282  0
O  O38  1  0.66042148  0.34656145  0.52378316  1  -1.266531  0  -0.235406  -0.588409  0  2.328317  0
O  O39  1  0.84763472  0.47743624  0.62202421  1  -1.271006  0  -0.243736  -0.611026  0  2.359634  0
O  O40  1  0.98540719  0.64798066  0.51241051  1  -1.253307  0  -0.240112  -0.587681  0  2.312968  0
O  O41  1  0.50954494  0.47012636  0.38064991  1  -1.254782  0  -0.235237  -0.580656  0  2.315255  0
O  O42  1  0.34057900  0.64324361  0.47805058  1  -1.256468  0  -0.235233  -0.595786  0  2.384121  0
O  O43  1  0.15447322  0.51704702  0.37974740  1  -1.265733  0  -0.239459  -0.597985  0  2.35846  0
O  O44  1  0.01208107  0.34924897  0.48491304  1  -1.24228  0  -0.234793  -0.579768  0  2.321935  0
O  O45  1  0.49182508  0.51791926  0.62256235  1  -1.259199  0  -0.239866  -0.591305  0  2.318356  0
O  O46  1  0.25062021  0.44685701  0.54354611  1  -1.425566  0  -0.448136  -0.996467  0  2.220475  0
O  O47  1  0.74498760  0.54837115  0.45797112  1  -1.439066  0  -0.449424  -0.988226  0  2.198583  0
O  O48  1  0.91347488  0.44825040  0.93667614  1  -1.129896  0  -0.338886  -0.425024  0  2.364066  0
O  O49  1  0.08939021  0.56411146  0.06375583  1  -1.135323  0  -0.34241  -0.431063  0  2.351816  0
