# generated using pymatgen
data_Mn3H40C75N4(O2F3)6
_symmetry_space_group_name_H-M   'P 1'
_cell_length_a   13.32918291
_cell_length_b   19.74406047
_cell_length_c   22.27978988
_cell_angle_alpha   78.99352073
_cell_angle_beta   72.60855895
_cell_angle_gamma   70.27796923
_symmetry_Int_Tables_number   1
_chemical_formula_structural   Mn3H40C75N4(O2F3)6
_chemical_formula_sum   'Mn6 H80 C150 N8 O24 F36'
_cell_volume   5240.62088621
_cell_formula_units_Z   2
loop_
 _symmetry_equiv_pos_site_id
 _symmetry_equiv_pos_as_xyz
  1  'x, y, z'
loop_
 _atom_site_type_symbol
 _atom_site_label
 _atom_site_symmetry_multiplicity
 _atom_site_fract_x
 _atom_site_fract_y
 _atom_site_fract_z
 _atom_site_occupancy
 _atom_site_pbe_bader_charge
 _atom_site_pbe_bader_spin_density
 _atom_site_pbe_cm5_charge
 _atom_site_pbe_ddec_charge
 _atom_site_pbe_ddec_spin_density
 _atom_site_pbe_ddec_sum_bond_order
 _atom_site_pbe_magmom
Mn  Mn0  1  0.27942519  0.45366355  0.47713084  1  1.480956  4.514485  0.604798  0.86622  4.646195  2.430207  4.426
Mn  Mn1  1  0.71022133  0.04630633  0.02283743  1  1.48176  4.514126  0.605201  0.866291  4.645496  2.430364  4.426
Mn  Mn2  1  0.72057862  0.54633206  0.52286889  1  1.481055  4.514491  0.604807  0.866199  4.646182  2.430224  4.426
Mn  Mn3  1  0.28979314  0.95368109  0.97715372  1  1.481722  4.514142  0.605219  0.866276  4.645675  2.430355  4.426
Mn  Mn4  1  0.50000646  0.50000508  0.49999661  1  1.568135  4.537523  0.610674  1.085254  4.674783  2.320661  4.478
Mn  Mn5  1  0.99998063  0.00001522  0.00000714  1  1.569329  4.537383  0.610919  1.085583  4.674697  2.320109  4.478
H  H6  1  0.12039859  0.67348180  0.39634445  1  0.081705  0.00025  0.104572  0.103831  -0.00012  1.007892  0.0
H  H7  1  0.05160481  0.80355317  0.36031459  1  0.099835  0.000122  0.100446  0.108461  6.7e-05  0.997602  0.0
H  H8  1  0.27380607  0.84845410  0.44327385  1  0.072424  9.2e-05  0.095096  0.10551  4.5e-05  1.025386  0.0
H  H9  1  0.34905034  0.71797313  0.47216020  1  0.109547  0.000294  0.106257  0.108122  -0.00014  1.008764  0.0
H  H10  1  0.08773700  0.56262553  0.41877272  1  0.114137  0.000943  0.119142  0.087552  9e-06  1.01605  0.001
H  H11  1  0.90019418  0.43928099  0.38466714  1  0.068231  0.000157  0.115498  0.118237  -0.000139  0.982827  0.0
H  H12  1  0.95417266  0.30516128  0.41955316  1  0.077868  0.000229  0.104789  0.109143  0.000121  1.009674  0.0
H  H13  1  0.95290689  0.02247443  0.20315417  1  0.090558  0.00025  0.100906  0.103807  -5.3e-05  1.044849  0.0
H  H14  1  0.94535531  0.01010774  0.31649115  1  0.065536  8.2e-05  0.093158  0.101654  3.5e-05  1.031532  0.0
H  H15  1  0.26064336  0.84500913  0.28363511  1  0.085575  0.000116  0.101627  0.109274  6.3e-05  1.000919  0.0
H  H16  1  0.26968824  0.86227282  0.16907902  1  0.049404  0.000372  0.10435  0.104049  -9e-05  1.005654  0.0
H  H17  1  0.53253183  0.39170056  0.27545557  1  0.097065  0.00052  0.110942  0.117252  0.00022  0.986182  0.0
H  H18  1  0.71489895  0.32244368  0.21307794  1  0.073894  6.7e-05  0.102989  0.11117  1.1e-05  0.997519  0.0
H  H19  1  0.84273365  0.28014205  0.37749938  1  0.09439  4.5e-05  0.091151  0.093436  -1e-06  1.048601  0.0
H  H20  1  0.66228037  0.35250290  0.43752576  1  0.129191  0.000357  0.106557  0.109294  -0.00042  1.051623  0.0
H  H21  1  0.93281172  0.55785213  0.37777709  1  0.109503  0.000679  0.109082  0.114325  0.000134  1.023964  0.0
H  H22  1  0.41001586  0.29035058  0.53078544  1  0.100686  0.001807  0.126427  0.096603  0.000709  0.967943  0.001
H  H23  1  0.24134501  0.14422411  0.51466627  1  0.110854  2.9e-05  0.110898  0.118055  -2e-06  0.98327  0.0
H  H24  1  0.39264833  0.16451198  0.54760535  1  0.070936  0.000942  0.113088  0.118483  0.000565  0.983769  0.0
H  H25  1  0.07782559  0.19767680  0.46609001  1  0.073716  0.000196  0.104451  0.113905  0.000121  1.003104  0.0
H  H26  1  0.69025769  0.82651849  0.10362618  1  0.056239  0.000263  0.104515  0.104581  -0.00012  1.007817  0.0
H  H27  1  0.71546228  0.69646584  0.13975124  1  0.052464  0.000122  0.101493  0.109922  6.7e-05  0.999499  0.0
H  H28  1  0.06544584  0.65150596  0.05671046  1  0.09897  9.4e-05  0.095313  0.105452  4.5e-05  1.024629  0.0
H  H29  1  0.03911121  0.78197106  0.02772933  1  0.081927  0.000302  0.107234  0.109773  -0.00014  1.00976  0.0
H  H30  1  0.56919980  0.93738532  0.08113431  1  0.137133  0.000917  0.119501  0.087683  1e-05  1.016446  0.001
H  H31  1  0.22427061  0.06071077  0.11524238  1  0.065929  0.000166  0.11576  0.117764  -0.00014  0.983464  0.0
H  H32  1  0.17902389  0.19486836  0.08050240  1  0.099999  0.000227  0.104934  0.109684  0.00012  1.009993  0.0
H  H33  1  0.67842396  0.47750707  0.29679982  1  0.087461  0.000255  0.10041  0.103686  -5.3e-05  1.045009  0.0
H  H34  1  0.77192899  0.48982132  0.18346177  1  0.087351  8.2e-05  0.093571  0.101736  3.6e-05  1.03077  0.0
H  H35  1  0.88939267  0.65484833  0.21644134  1  0.073087  0.000115  0.101799  0.109289  6.2e-05  0.999971  0.0
H  H36  1  0.80104329  0.63765578  0.33095421  1  0.057721  0.000372  0.103653  0.104138  -9e-05  1.004134  0.0
H  H37  1  0.69985405  0.10823672  0.22446462  1  0.059245  0.000545  0.110398  0.117158  0.000221  0.986168  0.0
H  H38  1  0.75052573  0.17756710  0.28687831  1  0.062908  6.6e-05  0.103142  0.110886  1.1e-05  0.996975  0.0
H  H39  1  0.00031029  0.21995221  0.12245911  1  0.082691  4.4e-05  0.09217  0.094144  -1e-06  1.047992  0.0
H  H40  1  0.95225295  0.14756998  0.06240628  1  0.130983  0.000359  0.106676  0.109603  -0.000418  1.050623  0.0
H  H41  1  0.36854877  0.94213730  0.12204775  1  0.094119  0.000681  0.109603  0.115004  0.000134  1.024085  0.0
H  H42  1  0.73117830  0.20975368  0.96939609  1  0.059518  0.001837  0.126569  0.096549  0.000709  0.968661  0.001
H  H43  1  0.40029765  0.35579892  0.98533584  1  0.107919  3e-05  0.110947  0.115499  1e-06  0.986254  0.0
H  H44  1  0.60478717  0.33560311  0.95262737  1  0.083142  0.00094  0.113344  0.117252  0.000568  0.984016  0.0
H  H45  1  0.24175744  0.30232305  0.03384772  1  0.092091  0.000196  0.104127  0.113968  0.000121  1.004076  0.0
H  H46  1  0.87959753  0.32651871  0.60365717  1  0.081721  0.00025  0.104571  0.103823  -0.00012  1.007914  0.0
H  H47  1  0.94839524  0.19644732  0.63968542  1  0.099848  0.000122  0.100445  0.10846  6.7e-05  0.99761  0.0
H  H48  1  0.72619243  0.15154641  0.55672824  1  0.072499  9.2e-05  0.09509  0.10549  4.5e-05  1.025338  0.0
H  H49  1  0.65094246  0.28202956  0.52784345  1  0.109618  0.000294  0.106282  0.108115  -0.000139  1.008711  0.0
H  H50  1  0.91226666  0.43737385  0.58122503  1  0.114089  0.000943  0.119159  0.087525  9e-06  1.016116  0.001
H  H51  1  0.09980639  0.56071845  0.61533566  1  0.068269  0.000157  0.11552  0.11827  -0.00014  0.982729  0.0
H  H52  1  0.04582739  0.69483922  0.58044775  1  0.077854  0.000229  0.104784  0.109137  0.000121  1.009653  0.0
H  H53  1  0.04709795  0.97752063  0.79684458  1  0.090657  0.00025  0.100913  0.103857  -5.3e-05  1.044865  0.0
H  H54  1  0.05464046  0.98989164  0.68350580  1  0.06559  8.2e-05  0.093185  0.101612  3.6e-05  1.031605  0.0
H  H55  1  0.73935378  0.15498925  0.71637029  1  0.085596  0.000115  0.101637  0.109305  6.3e-05  1.000919  0.0
H  H56  1  0.73031123  0.13772552  0.83092238  1  0.049409  0.000372  0.104354  0.104039  -8.9e-05  1.005662  0.0
H  H57  1  0.46746874  0.60829887  0.72454767  1  0.097034  0.00052  0.110918  0.117222  0.00022  0.986208  0.0
H  H58  1  0.28510077  0.67755412  0.78692440  1  0.073898  6.7e-05  0.102962  0.111109  1.1e-05  0.997629  0.0
H  H59  1  0.15726926  0.71985737  0.62250208  1  0.094482  4.5e-05  0.091185  0.093496  -1e-06  1.048584  0.0
H  H60  1  0.33772315  0.64749869  0.56247656  1  0.128928  0.000357  0.106592  0.109334  -0.00042  1.051493  0.0
H  H61  1  0.06718834  0.44214836  0.62222382  1  0.109548  0.000679  0.109068  0.11434  0.000134  1.02396  0.0
H  H62  1  0.58998215  0.70965102  0.46921743  1  0.10071  0.001807  0.126434  0.096649  0.000709  0.96795  0.001
H  H63  1  0.75865269  0.85577639  0.48533507  1  0.110859  2.8e-05  0.110923  0.118147  -2e-06  0.983233  0.0
H  H64  1  0.60735119  0.83548798  0.45239620  1  0.070998  0.000942  0.113082  0.11848  0.000565  0.983796  0.0
H  H65  1  0.92217104  0.80232264  0.53391351  1  0.073765  0.000196  0.104458  0.113949  0.000122  1.003044  0.0
H  H66  1  0.30974155  0.17348198  0.89637219  1  0.056229  0.000263  0.104521  0.104612  -0.00012  1.007798  0.0
H  H67  1  0.28453749  0.30354379  0.86024270  1  0.05229  0.000122  0.101466  0.109857  6.7e-05  0.999465  0.0
H  H68  1  0.93455377  0.34849019  0.94328816  1  0.099238  9.4e-05  0.095333  0.105523  4.5e-05  1.024648  0.0
H  H69  1  0.96089948  0.21802669  0.97226741  1  0.082085  0.000302  0.107172  0.109561  -0.000139  1.00993  0.0
H  H70  1  0.43080128  0.06261463  0.91886605  1  0.137136  0.000918  0.119481  0.087593  1e-05  1.016494  0.001
H  H71  1  0.77573126  0.93928917  0.88475784  1  0.0659  0.000167  0.115729  0.117683  -0.00014  0.983491  0.0
H  H72  1  0.82097506  0.80513104  0.91949710  1  0.099993  0.000227  0.104939  0.109683  0.00012  1.010037  0.0
H  H73  1  0.32157112  0.52249397  0.70320146  1  0.087486  0.000255  0.100396  0.103667  -5.2e-05  1.045054  0.0
H  H74  1  0.22806502  0.51017865  0.81654079  1  0.087353  8.2e-05  0.093555  0.101778  3.6e-05  1.030867  0.0
H  H75  1  0.11060669  0.34515539  0.78355732  1  0.073185  0.000115  0.101819  0.109316  6.2e-05  0.999962  0.0
H  H76  1  0.19895850  0.36234957  0.66904551  1  0.057865  0.000372  0.103628  0.104136  -9e-05  1.004192  0.0
H  H77  1  0.30014687  0.89175836  0.77553663  1  0.059413  0.000545  0.110424  0.117199  0.000221  0.986195  0.0
H  H78  1  0.24947630  0.82243066  0.71311957  1  0.062872  6.6e-05  0.103132  0.110878  1.1e-05  0.996907  0.0
H  H79  1  0.99968669  0.78004617  0.87754166  1  0.082568  4.4e-05  0.092133  0.094112  -1e-06  1.047962  0.0
H  H80  1  0.04776370  0.85243213  0.93759263  1  0.131141  0.000358  0.1067  0.109612  -0.000419  1.050678  0.0
H  H81  1  0.63145393  0.05786425  0.87795068  1  0.093978  0.000682  0.109586  0.11503  0.000134  1.02409  0.0
H  H82  1  0.26881810  0.79024947  0.03059917  1  0.059448  0.001838  0.126553  0.096519  0.000709  0.968683  0.001
H  H83  1  0.59969659  0.64420049  0.01466543  1  0.107957  3e-05  0.110978  0.115537  1e-06  0.98626  0.0
H  H84  1  0.39520555  0.66439793  0.04737344  1  0.082854  0.00094  0.113338  0.117235  0.000568  0.983954  0.0
H  H85  1  0.75824200  0.69767527  0.96615189  1  0.092093  0.000196  0.104138  0.113971  0.000121  1.004055  0.0
C  C86  1  0.28368955  0.60860981  0.45752111  1  1.5893  0.019063  0.227369  0.595289  0.018546  4.178515  0.017
C  C87  1  0.23862516  0.68744770  0.43699761  1  0.00221  0.00294  -0.016764  -0.035702  0.001625  3.974193  0.001
C  C88  1  0.15413523  0.71234017  0.40579014  1  0.022398  0.00357  -0.081723  -0.082207  0.002566  3.987492  0.002
C  C89  1  0.11505907  0.78545967  0.38625835  1  -0.080652  -0.000525  -0.093563  -0.134579  -0.000548  3.98373  -0.001
C  C90  1  0.15677970  0.83604133  0.39933914  1  -0.075316  0.00371  -0.019431  0.081465  0.002911  3.956289  0.002
C  C91  1  0.23995296  0.81118372  0.43160085  1  -0.067406  -0.000654  -0.09862  -0.139501  -0.000657  3.989544  -0.001
C  C92  1  0.28175192  0.73755123  0.44896633  1  -0.037618  0.004173  -0.081471  -0.078145  0.003004  3.963741  0.003
C  C93  1  0.07125260  0.51185154  0.41982250  1  0.519706  0.015785  0.06391  0.111332  0.012309  3.925645  0.01
C  C94  1  0.96717279  0.44294983  0.40119280  1  -0.017376  0.015482  -0.050771  -0.053223  0.012219  3.898839  0.009
C  C95  1  0.02151454  0.31004750  0.43488661  1  -0.051441  0.000691  -0.078718  -0.102801  0.000349  3.968895  0.0
C  C96  1  0.12121045  0.38841087  0.44836156  1  0.492197  0.011155  0.125407  0.12488  0.00857  3.967712  0.008
C  C97  1  0.19445201  0.32580581  0.47462802  1  0.500507  0.004905  0.126041  0.127281  0.003713  3.961664  0.003
C  C98  1  0.02046426  0.98402532  0.22109108  1  0.065218  0.003501  -0.082679  -0.07633  0.00258  3.949747  0.002
C  C99  1  0.01624573  0.97616573  0.28526879  1  -0.037492  -0.000393  -0.097615  -0.135034  -0.000416  3.981423  0.0
C  C100  1  0.10254161  0.92608031  0.30855078  1  -0.019923  0.003129  -0.021465  0.077085  0.002458  3.953915  0.002
C  C101  1  0.19340136  0.88464515  0.26616164  1  -0.075136  -0.000399  -0.093763  -0.127364  -0.00042  3.989105  0.0
C  C102  1  0.19865499  0.89402329  0.20201969  1  0.011551  0.003474  -0.087227  -0.094039  0.002468  3.997227  0.002
C  C103  1  0.11223885  0.94390598  0.17876224  1  -0.091344  0.003188  -0.014936  -0.031305  0.001854  3.967985  0.002
C  C104  1  0.12043129  0.95560214  0.10906176  1  1.577549  0.019558  0.225148  0.591206  0.018911  4.180597  0.017
C  C105  1  0.10658926  0.91631451  0.37807816  1  0.04609  6.4e-05  -0.011689  -0.267007  6e-05  3.845267  0.0
C  C106  1  0.99009867  0.94125132  0.42434332  1  1.718541  0.0002  0.301315  0.676649  0.000172  3.963858  0.0
C  C107  1  0.17573064  0.96462277  0.38209795  1  1.715551  0.000173  0.299886  0.681675  0.00015  3.969245  0.0
C  C108  1  0.47424520  0.41242042  0.39875224  1  1.524257  0.024936  0.214952  0.573702  0.025015  4.161668  0.02
C  C109  1  0.58574599  0.37501489  0.36071343  1  -0.081409  -0.001614  -0.010856  -0.024097  -0.003004  3.97405  -0.003
C  C110  1  0.60173519  0.36741687  0.29698310  1  -0.035255  0.006401  -0.07815  -0.08411  0.004857  3.962335  0.004
C  C111  1  0.70394757  0.32851095  0.26238880  1  -0.048675  -0.001407  -0.092161  -0.132382  -0.001465  3.98213  -0.001
C  C112  1  0.79195563  0.29492995  0.29078830  1  -0.047292  0.00616  -0.01735  0.084609  0.004824  3.950699  0.004
C  C113  1  0.77631526  0.30455598  0.35400143  1  -0.084377  -0.000966  -0.099159  -0.144035  -0.001014  3.992187  -0.001
C  C114  1  0.67438551  0.34452950  0.38850902  1  0.053649  0.005947  -0.08091  -0.080739  0.004228  3.950043  0.004
C  C115  1  0.96205157  0.30533352  0.20995405  1  1.72435  0.000375  0.302161  0.682778  0.000325  3.96486  0.0
C  C116  1  0.98560036  0.50872289  0.39707603  1  -1e-06  -0.00021  -0.077952  -0.124479  -0.000698  3.982881  -0.001
C  C117  1  0.03543999  0.38019973  0.42769638  1  0.013993  -0.000675  0.002752  0.044347  -0.001364  4.008197  -0.001
C  C118  1  0.34514871  0.27917395  0.51737018  1  0.502323  0.007768  0.065673  0.11053  0.00572  3.946329  0.005
C  C119  1  0.25162663  0.19788382  0.50824576  1  -0.062597  0.006414  -0.063786  -0.079934  0.004963  3.938256  0.004
C  C120  1  0.33505296  0.20901259  0.52644140  1  -0.007372  0.001321  -0.084749  -0.142008  0.000892  4.016194  0.001
C  C121  1  0.08979617  0.25069365  0.46065025  1  0.020113  -0.000723  -0.082705  -0.119817  -0.000859  3.975818  0.0
C  C122  1  0.17813399  0.25695949  0.48118552  1  -0.005923  0.000982  0.000383  0.048676  0.000556  4.011669  0.0
C  C123  1  0.84986189  0.89137118  0.04249929  1  1.58741  0.019093  0.227716  0.59393  0.018541  4.184978  0.017
C  C124  1  0.86305390  0.81254515  0.06299100  1  -0.001285  0.002947  -0.015173  -0.032458  0.00163  3.972527  0.001
C  C125  1  0.77226569  0.78766884  0.09421247  1  0.065305  0.003553  -0.083995  -0.086384  0.00257  3.989036  0.002
C  C126  1  0.78673413  0.71456319  0.11378864  1  -0.022954  -0.000523  -0.094705  -0.135962  -0.000549  3.98516  -0.001
C  C127  1  0.89209447  0.66397228  0.10070071  1  -0.082664  0.003717  -0.017484  0.084456  0.002915  3.951921  0.002
C  C128  1  0.98265949  0.68879875  0.06838949  1  -0.05226  -0.000665  -0.100126  -0.141128  -0.000653  3.987966  -0.001
C  C129  1  0.96821277  0.76243007  0.05099690  1  -0.071336  0.004187  -0.082028  -0.079496  0.003005  3.966173  0.003
C  C130  1  0.50300483  0.98814355  0.08007419  1  0.510234  0.01585  0.063928  0.112932  0.012356  3.92532  0.01
C  C131  1  0.31142548  0.05705512  0.09871520  1  -0.030662  0.015573  -0.052832  -0.053317  0.012292  3.899089  0.009
C  C132  1  0.26656051  0.18997364  0.06510009  1  0.010657  0.000701  -0.077645  -0.102485  0.000359  3.972938  0.0
C  C133  1  0.45806900  0.11160483  0.05156762  1  0.513261  0.011202  0.124312  0.122893  0.008603  3.966529  0.008
C  C134  1  0.49497304  0.17420920  0.02532720  1  0.541029  0.004869  0.126064  0.127849  0.003709  3.962194  0.003
C  C135  1  0.72546444  0.51595885  0.27889742  1  -0.022745  0.003521  -0.083473  -0.077339  0.002575  3.951356  0.002
C  C136  1  0.77760399  0.52378671  0.21472520  1  0.003077  -0.000404  -0.098579  -0.136341  -0.000412  3.978664  0.0
C  C137  1  0.83706473  0.57388729  0.19144458  1  -0.06804  0.003134  -0.021005  0.077936  0.002457  3.949951  0.002
C  C138  1  0.84422770  0.61526999  0.23385507  1  -0.081244  -0.000391  -0.0943  -0.126709  -0.000423  3.986345  0.0
C  C139  1  0.79465606  0.60590959  0.29799123  1  0.053583  0.003466  -0.087008  -0.095763  0.002469  3.997587  0.002
C  C140  1  0.73477410  0.55607385  0.32123394  1  -0.053197  0.003175  -0.013745  -0.029588  0.001855  3.969408  0.002
C  C141  1  0.68486387  0.54446147  0.39092300  1  1.585845  0.019484  0.225896  0.592156  0.018867  4.184015  0.017
C  C142  1  0.90079548  0.58369877  0.12192548  1  0.052134  6.2e-05  -0.010894  -0.267893  6.1e-05  3.845041  0.0
C  C143  1  0.85543197  0.55890082  0.07556999  1  1.727468  0.0002  0.302505  0.681879  0.000173  3.957075  0.0
C  C144  1  0.02222002  0.53534129  0.11783916  1  1.710025  0.000173  0.298785  0.678018  0.000149  3.97212  0.0
C  C145  1  0.78549349  0.08755459  0.10119082  1  1.530714  0.024965  0.213064  0.568185  0.025075  4.16667  0.02
C  C146  1  0.82155266  0.12495913  0.13923483  1  -0.059871  -0.001623  -0.011268  -0.022786  -0.003003  3.974754  -0.003
C  C147  1  0.76624085  0.13253597  0.20295070  1  0.037121  0.006373  -0.079046  -0.086367  0.004865  3.964871  0.004
C  C148  1  0.79493793  0.17145575  0.23756467  1  -0.000524  -0.001416  -0.091563  -0.129963  -0.001468  3.982306  -0.001
C  C149  1  0.87771986  0.20507474  0.20916528  1  -0.077321  0.006173  -0.018259  0.081665  0.004832  3.952656  0.004
C  C150  1  0.93487888  0.19548992  0.14596089  1  -0.028638  -0.000991  -0.099146  -0.142512  -0.001013  3.990761  -0.001
C  C151  1  0.90741848  0.15551359  0.11145300  1  -0.033226  0.006002  -0.080769  -0.081978  0.004235  3.948454  0.004
C  C152  1  0.97733179  0.19471184  0.29006919  1  1.700563  0.000377  0.300765  0.678881  0.000325  3.964865  0.0
C  C153  1  0.39150546  0.99126629  0.10280063  1  -0.018721  -0.000184  -0.077161  -0.125604  -0.000711  3.98023  -0.002
C  C154  1  0.34345442  0.11980828  0.07225503  1  -0.038036  -0.000679  0.004608  0.045934  -0.001378  4.00615  -0.001
C  C155  1  0.64174782  0.22089200  0.98273306  1  0.549406  0.007704  0.063965  0.107049  0.005706  3.950594  0.005
C  C156  1  0.45784353  0.30215064  0.99174869  1  -0.015808  0.00638  -0.063646  -0.077622  0.004946  3.9358  0.004
C  C157  1  0.57057554  0.29104320  0.97366789  1  -0.049357  0.001364  -0.084343  -0.138681  0.000908  4.013097  0.001
C  C158  1  0.30127276  0.24930698  0.03928848  1  -0.0531  -0.000731  -0.083717  -0.121217  -0.000869  3.979879  0.0
C  C159  1  0.41638372  0.24305672  0.01875638  1  -0.016012  0.000999  0.000137  0.048473  0.000564  4.008652  0.0
C  C160  1  0.71630524  0.39139015  0.54248041  1  1.589053  0.019068  0.227397  0.595233  0.018549  4.178193  0.017
C  C161  1  0.76137121  0.31255226  0.56300452  1  0.002675  0.002939  -0.016736  -0.035736  0.001624  3.974237  0.001
C  C162  1  0.84586197  0.28766141  0.59421110  1  0.022335  0.003571  -0.081719  -0.082189  0.002566  3.987522  0.002
C  C163  1  0.88493838  0.21454137  0.61374294  1  -0.08084  -0.000525  -0.093584  -0.134587  -0.000548  3.98375  -0.001
C  C164  1  0.84321745  0.16395862  0.60066194  1  -0.075202  0.003711  -0.019393  0.081468  0.002912  3.95622  0.002
C  C165  1  0.76004577  0.18881625  0.56840129  1  -0.067206  -0.000654  -0.098633  -0.139471  -0.000657  3.989564  -0.001
C  C166  1  0.71824470  0.26244820  0.55103585  1  -0.038294  0.004175  -0.08151  -0.078153  0.003006  3.963764  0.003
C  C167  1  0.92875083  0.48814840  0.58017654  1  0.519761  0.015781  0.063952  0.111389  0.012306  3.925828  0.01
C  C168  1  0.03282595  0.55705014  0.59880978  1  -0.017566  0.01548  -0.050755  -0.053188  0.012217  3.898659  0.009
C  C169  1  0.97848496  0.68995245  0.56511359  1  -0.051423  0.000692  -0.078687  -0.102731  0.00035  3.968942  0.0
C  C170  1  0.87879064  0.61158909  0.55163925  1  0.492283  0.011154  0.125397  0.124963  0.008569  3.967626  0.008
C  C171  1  0.80554593  0.67419415  0.52537381  1  0.500458  0.004903  0.126058  0.127242  0.003712  3.961675  0.003
C  C172  1  0.97954149  0.01597300  0.77890871  1  0.065546  0.003501  -0.082649  -0.076383  0.00258  3.949778  0.002
C  C173  1  0.98375427  0.02383313  0.71473152  1  -0.037552  -0.000393  -0.097627  -0.134885  -0.000416  3.981457  0.0
C  C174  1  0.89745495  0.07391749  0.69145170  1  -0.01992  0.003127  -0.021494  0.076967  0.002457  3.953907  0.002
C  C175  1  0.80659811  0.11535319  0.73384065  1  -0.075123  -0.000397  -0.093752  -0.127371  -0.000419  3.989078  0.0
C  C176  1  0.80134848  0.10597667  0.79798203  1  0.011645  0.003472  -0.087225  -0.094001  0.002467  3.99734  0.002
C  C177  1  0.88776591  0.05609450  0.82123645  1  -0.092009  0.003187  -0.014956  -0.031331  0.001853  3.968047  0.002
C  C178  1  0.87956648  0.04440158  0.89093675  1  1.577611  0.019557  0.225013  0.590954  0.018913  4.180736  0.017
C  C179  1  0.89340808  0.08368328  0.62192327  1  0.046308  6.4e-05  -0.011723  -0.267012  6e-05  3.845127  0.0
C  C180  1  0.00989921  0.05874701  0.57565747  1  1.718354  0.0002  0.301361  0.676743  0.000172  3.963748  0.0
C  C181  1  0.82426684  0.03537987  0.61790080  1  1.715469  0.000172  0.299912  0.681831  0.000149  3.969206  0.0
C  C182  1  0.52576027  0.58757683  0.60124959  1  1.524327  0.02494  0.214993  0.573677  0.025019  4.161487  0.02
C  C183  1  0.41425583  0.62498344  0.63928798  1  -0.081276  -0.001614  -0.010915  -0.024222  -0.003004  3.974163  -0.003
C  C184  1  0.39826482  0.63258202  0.70301944  1  -0.035279  0.006402  -0.078105  -0.083999  0.004857  3.962261  0.004
C  C185  1  0.29605089  0.67148795  0.73761538  1  -0.048892  -0.001407  -0.092194  -0.132432  -0.001466  3.982227  -0.001
C  C186  1  0.20804414  0.70506948  0.70921419  1  -0.046977  0.00616  -0.017291  0.084641  0.004824  3.950694  0.004
C  C187  1  0.22368789  0.69544289  0.64599964  1  -0.084754  -0.000966  -0.099273  -0.144231  -0.001014  3.992186  -0.001
C  C188  1  0.32561822  0.65546995  0.61149498  1  0.05404  0.005946  -0.080841  -0.080601  0.004227  3.949982  0.004
C  C189  1  0.03794917  0.69466373  0.79004730  1  1.724347  0.000375  0.302184  0.682692  0.000325  3.964805  0.0
C  C190  1  0.01440072  0.49127706  0.60292433  1  2.8e-05  -0.000211  -0.07794  -0.124531  -0.000698  3.983008  -0.001
C  C191  1  0.96456164  0.61980077  0.57230423  1  0.013952  -0.000675  0.002765  0.044306  -0.001364  4.008241  -0.001
C  C192  1  0.65485106  0.72082547  0.48263231  1  0.502256  0.007766  0.065636  0.110456  0.005719  3.946352  0.005
C  C193  1  0.74837107  0.80211668  0.49175558  1  -0.062572  0.006412  -0.063826  -0.080114  0.004962  3.938303  0.004
C  C194  1  0.66494498  0.79098736  0.47355954  1  -0.007443  0.001321  -0.084781  -0.142014  0.000892  4.016259  0.001
C  C195  1  0.91020122  0.74930577  0.53935133  1  0.020083  -0.000723  -0.082734  -0.119915  -0.00086  3.975859  0.0
C  C196  1  0.82186395  0.74304047  0.51881632  1  -0.00593  0.000982  0.000423  0.048768  0.000556  4.011656  0.0
C  C197  1  0.15013997  0.10862876  0.95750003  1  1.587494  0.019097  0.227783  0.594042  0.018544  4.184688  0.017
C  C198  1  0.13695016  0.18745697  0.93700978  1  -0.00123  0.00295  -0.015128  -0.032301  0.001632  3.972329  0.001
C  C199  1  0.22774119  0.21233218  0.90578574  1  0.003464  0.003572  -0.08411  -0.086581  0.002571  3.988927  0.002
C  C200  1  0.21326913  0.28544050  0.88620662  1  0.039158  -0.000541  -0.094599  -0.135788  -0.00055  3.984945  -0.001
C  C201  1  0.10790534  0.33603033  0.89929581  1  -0.083107  0.003718  -0.017511  0.084384  0.002916  3.952092  0.002
C  C202  1  0.01734426  0.31120386  0.93160632  1  -0.05252  -0.000665  -0.100079  -0.141073  -0.000653  3.988266  -0.001
C  C203  1  0.03179368  0.23757365  0.94900180  1  -0.071485  0.004187  -0.08198  -0.079416  0.003005  3.966349  0.003
C  C204  1  0.49699654  0.01185748  0.91992548  1  0.510035  0.015856  0.064018  0.113174  0.01236  3.925156  0.01
C  C205  1  0.68857617  0.94294539  0.90128675  1  -0.030893  0.015577  -0.052804  -0.053192  0.012295  3.899078  0.009
C  C206  1  0.73344084  0.81002578  0.93490211  1  0.010414  0.0007  -0.077625  -0.102417  0.000357  3.972874  0.0
C  C207  1  0.54193206  0.88839510  0.94843140  1  0.513223  0.011205  0.124251  0.122798  0.008606  3.966587  0.008
C  C208  1  0.50502620  0.82579127  0.97467161  1  0.541042  0.004876  0.126051  0.127882  0.003714  3.96215  0.003
C  C209  1  0.27453532  0.48404057  0.72110328  1  -0.022328  0.00352  -0.083433  -0.077277  0.002575  3.951286  0.002
C  C210  1  0.22239242  0.47621487  0.78527574  1  0.00304  -0.000404  -0.098606  -0.136474  -0.000412  3.978708  0.0
C  C211  1  0.16293119  0.42611536  0.80855535  1  -0.06814  0.003133  -0.02098  0.077928  0.002456  3.950026  0.002
C  C212  1  0.15577161  0.38473212  0.76614478  1  -0.081545  -0.000391  -0.094325  -0.126681  -0.000422  3.986305  0.0
C  C213  1  0.20534878  0.39409252  0.70200895  1  0.053881  0.003465  -0.086977  -0.095855  0.002468  3.997736  0.002
C  C214  1  0.26523228  0.44392824  0.67876327  1  -0.053772  0.003177  -0.013787  -0.029524  0.001857  3.969383  0.002
C  C215  1  0.31514168  0.45554058  0.60907078  1  1.585452  0.019487  0.225907  0.592312  0.018868  4.183989  0.017
C  C216  1  0.09920169  0.41630279  0.87807307  1  0.052347  6.1e-05  -0.010902  -0.267906  6e-05  3.845211  0.0
C  C217  1  0.14456466  0.44110019  0.92442831  1  1.727426  0.0002  0.302498  0.68189  0.000173  3.956883  0.0
C  C218  1  0.97777709  0.46465864  0.88215879  1  1.709816  0.000173  0.298885  0.678169  0.00015  3.971783  0.0
C  C219  1  0.21450443  0.91244535  0.89880923  1  1.530891  0.024951  0.213045  0.568244  0.025059  4.166653  0.02
C  C220  1  0.17845221  0.87503754  0.86076183  1  -0.060298  -0.001622  -0.011267  -0.022783  -0.003002  3.974876  -0.003
C  C221  1  0.23376320  0.86745909  0.79704774  1  0.03671  0.006367  -0.079098  -0.086484  0.004861  3.965275  0.004
C  C222  1  0.20506432  0.82853987  0.76243624  1  -0.000291  -0.001415  -0.091523  -0.129849  -0.001467  3.982392  -0.001
C  C223  1  0.12228114  0.79492198  0.79083702  1  -0.077292  0.006167  -0.018281  0.081533  0.004828  3.952843  0.004
C  C224  1  0.06512126  0.80450518  0.85404141  1  -0.028859  -0.00099  -0.099104  -0.142387  -0.001012  3.990794  -0.001
C  C225  1  0.09258720  0.84448310  0.88854531  1  -0.032827  0.005998  -0.080807  -0.082058  0.004231  3.948666  0.004
C  C226  1  0.02266707  0.80528434  0.70993226  1  1.700537  0.000377  0.30067  0.678835  0.000325  3.964734  0.0
C  C227  1  0.60849593  0.00873475  0.89720038  1  -0.018735  -0.000183  -0.077157  -0.125725  -0.000711  3.980189  -0.002
C  C228  1  0.65654673  0.88019330  0.92774638  1  -0.037302  -0.000679  0.004628  0.045968  -0.001379  4.006097  -0.001
C  C229  1  0.35824883  0.77910902  0.01726658  1  0.549442  0.007714  0.06396  0.10702  0.005714  3.950493  0.005
C  C230  1  0.54215258  0.69784985  0.00825249  1  -0.015779  0.006388  -0.063759  -0.077816  0.004953  3.935781  0.004
C  C231  1  0.42942214  0.70895729  0.02633166  1  -0.049123  0.001362  -0.084244  -0.138518  0.000906  4.01296  0.001
C  C232  1  0.69872620  0.75069244  0.96071237  1  -0.05323  -0.00073  -0.083764  -0.121317  -0.000868  3.979875  0.0
C  C233  1  0.58361578  0.75694322  0.98124338  1  -0.015911  0.000998  0.000208  0.048579  0.000563  4.008475  0.0
C  C234  1  0.90123644  0.25000209  0.24999653  1  0.051615  0.00011  -0.011487  -0.276302  0.000121  3.847388  0.0
C  C235  1  0.09876454  0.74999462  0.75000487  1  0.051653  0.00011  -0.011457  -0.276131  0.00012  3.847177  0.0
N  N236  1  0.13739275  0.45353218  0.44481190  1  -1.259123  0.052969  -0.31001  -0.263021  0.034415  3.503626  0.014
N  N237  1  0.27699823  0.33576723  0.49220807  1  -1.247286  0.050566  -0.302454  -0.256714  0.034766  3.483458  0.021
N  N238  1  0.53580745  0.04647182  0.05511059  1  -1.259094  0.053054  -0.311415  -0.264797  0.034498  3.50826  0.014
N  N239  1  0.60504224  0.16427396  0.00781158  1  -1.260833  0.050571  -0.301208  -0.254005  0.034786  3.485056  0.021
N  N240  1  0.86261196  0.54646667  0.55518709  1  -1.259085  0.052969  -0.310094  -0.263105  0.034414  3.503573  0.014
N  N241  1  0.72300256  0.66423165  0.50779343  1  -1.247287  0.050568  -0.302414  -0.256648  0.03476  3.483355  0.021
N  N242  1  0.46419540  0.95352755  0.94488506  1  -1.258863  0.053063  -0.311404  -0.264827  0.034498  3.508159  0.014
N  N243  1  0.39495755  0.83572706  0.99218793  1  -1.26094  0.050599  -0.301232  -0.253975  0.034792  3.485068  0.021
O  O244  1  0.37417734  0.58953327  0.47269587  1  -1.201701  0.063419  -0.298694  -0.564177  0.046281  2.370922  0.029
O  O245  1  0.22707857  0.56714869  0.45894047  1  -1.207369  0.070906  -0.312047  -0.556366  0.047965  2.330256  0.03
O  O246  1  0.46241573  0.42112598  0.45717623  1  -1.215381  0.099499  -0.310569  -0.584255  0.072534  2.365247  0.043
O  O247  1  0.39159389  0.43140416  0.37599071  1  -1.162769  0.06751  -0.309182  -0.531568  0.047742  2.120606  0.042
O  O248  1  0.03222795  0.98278913  0.09130665  1  -1.183274  0.063022  -0.296051  -0.547647  0.04488  2.316418  0.03
O  O249  1  0.21832350  0.93773401  0.07319832  1  -1.207801  0.073272  -0.317431  -0.574521  0.051195  2.391583  0.032
O  O250  1  0.93644906  0.91043540  0.02742468  1  -1.197287  0.063366  -0.299614  -0.564702  0.046293  2.370412  0.029
O  O251  1  0.75322570  0.93283271  0.04102913  1  -1.206049  0.070888  -0.311655  -0.555368  0.047999  2.33603  0.03
O  O252  1  0.84074401  0.07887933  0.04276071  1  -1.218476  0.099382  -0.310446  -0.582796  0.072489  2.364997  0.043
O  O253  1  0.69911502  0.06852164  0.12396133  1  -1.167557  0.067676  -0.307027  -0.52758  0.047735  2.121001  0.042
O  O254  1  0.60601525  0.51736002  0.40862343  1  -1.190711  0.06304  -0.296567  -0.54771  0.0448  2.318067  0.03
O  O255  1  0.72894984  0.56236767  0.42681700  1  -1.206335  0.073252  -0.317424  -0.575359  0.051216  2.392639  0.032
O  O256  1  0.62581571  0.41046888  0.52730872  1  -1.201809  0.063414  -0.29865  -0.563982  0.046273  2.370659  0.029
O  O257  1  0.77292426  0.43285065  0.54105339  1  -1.207061  0.070917  -0.312129  -0.556436  0.047971  2.330142  0.03
O  O258  1  0.53759136  0.57887288  0.54282412  1  -1.215297  0.09952  -0.310612  -0.584257  0.072547  2.365354  0.043
O  O259  1  0.60841049  0.56859202  0.62401107  1  -1.16295  0.06751  -0.309169  -0.5315  0.047743  2.120395  0.042
O  O260  1  0.96777284  0.01721132  0.90868918  1  -1.18312  0.063002  -0.295993  -0.547549  0.044872  2.316233  0.03
O  O261  1  0.78167824  0.06226973  0.92680170  1  -1.207969  0.073298  -0.31738  -0.574347  0.051197  2.391756  0.032
O  O262  1  0.06355292  0.08956075  0.97257395  1  -1.197358  0.063397  -0.29966  -0.564817  0.046308  2.370433  0.029
O  O263  1  0.24677297  0.06716720  0.95896720  1  -1.206138  0.070896  -0.311677  -0.555362  0.047991  2.335835  0.03
O  O264  1  0.15924987  0.92112601  0.95723688  1  -1.218436  0.099357  -0.310441  -0.582769  0.072457  2.364803  0.043
O  O265  1  0.30088619  0.93147451  0.87603833  1  -1.167383  0.067629  -0.307009  -0.527621  0.047731  2.121038  0.042
O  O266  1  0.39398566  0.48264526  0.59136838  1  -1.189961  0.063022  -0.296484  -0.547746  0.0448  2.3181  0.03
O  O267  1  0.27106008  0.43763167  0.57317646  1  -1.206643  0.073256  -0.3175  -0.57549  0.05122  2.392799  0.032
F  F268  1  0.28284491  0.93874160  0.34923899  1  -0.620286  2.7e-05  -0.101579  -0.206899  1e-06  1.298797  0.0
F  F269  1  0.17652490  0.96821857  0.44255274  1  -0.611811  6.9e-05  -0.106182  -0.217872  4.2e-05  1.346079  0.0
F  F270  1  0.13745620  0.03364207  0.35691843  1  -0.614854  3.5e-05  -0.104517  -0.207048  1.4e-05  1.344707  0.0
F  F271  1  0.94303266  0.01410979  0.42062086  1  -0.620933  6.7e-05  -0.098013  -0.199461  4e-05  1.353413  0.0
F  F272  1  0.99407586  0.91864870  0.48551003  1  -0.614537  6.7e-05  -0.100644  -0.207299  4.2e-05  1.351717  0.0
F  F273  1  0.91836683  0.91228126  0.41292930  1  -0.624681  3.8e-05  -0.099004  -0.213824  8e-06  1.318766  0.0
F  F274  1  0.96430952  0.35229527  0.24649068  1  -0.615485  0.000111  -0.100389  -0.201194  6.3e-05  1.329381  0.0
F  F275  1  0.90982383  0.34537595  0.16496228  1  -0.620094  3.4e-05  -0.094282  -0.19761  -2e-06  1.328935  0.0
F  F276  1  0.06896171  0.27365617  0.17931339  1  -0.61953  0.000106  -0.101181  -0.214933  5.9e-05  1.329702  0.0
F  F277  1  0.07075119  0.56121678  0.15064365  1  -0.61601  2.7e-05  -0.10134  -0.206279  1e-06  1.298312  0.0
F  F278  1  0.08688191  0.53175391  0.05735104  1  -0.61258  6.9e-05  -0.106846  -0.217582  4.2e-05  1.348352  0.0
F  F279  1  0.02779765  0.46634751  0.14304326  1  -0.612413  3.5e-05  -0.103741  -0.205532  1.4e-05  1.345433  0.0
F  F280  1  0.87760459  0.48602277  0.07916290  1  -0.62477  6.7e-05  -0.097991  -0.20051  4e-05  1.351315  0.0
F  F281  1  0.89782243  0.58165012  0.01444859  1  -0.616077  6.7e-05  -0.101333  -0.208944  4.2e-05  1.351607  0.0
F  F282  1  0.74334124  0.58780700  0.08702791  1  -0.62939  3.8e-05  -0.09916  -0.21478  8e-06  1.318533  0.0
F  F283  1  0.06310443  0.14775642  0.25349750  1  -0.612163  0.00011  -0.100226  -0.200592  6.3e-05  1.328153  0.0
F  F284  1  0.92029914  0.15459000  0.33503315  1  -0.620447  3.4e-05  -0.093583  -0.195985  -2e-06  1.330673  0.0
F  F285  1  0.02192956  0.22637967  0.32070699  1  -0.605614  0.000106  -0.100724  -0.214007  6e-05  1.329794  0.0
F  F286  1  0.71714920  0.06126318  0.65075731  1  -0.62035  2.7e-05  -0.101576  -0.206931  1e-06  1.298692  0.0
F  F287  1  0.82347282  0.03178353  0.55744606  1  -0.611869  6.9e-05  -0.106195  -0.217932  4.2e-05  1.346165  0.0
F  F288  1  0.86253869  0.96636113  0.64308205  1  -0.614714  3.5e-05  -0.104532  -0.207103  1.4e-05  1.344746  0.0
F  F289  1  0.05696320  0.98589124  0.57937937  1  -0.620951  6.7e-05  -0.098011  -0.199489  4e-05  1.353462  0.0
F  F290  1  0.00592232  0.08135071  0.51449052  1  -0.614533  6.7e-05  -0.100613  -0.207297  4.1e-05  1.351735  0.0
F  F291  1  0.08162716  0.08771870  0.58707192  1  -0.624586  3.8e-05  -0.099057  -0.213862  8e-06  1.318736  0.0
F  F292  1  0.03569388  0.64770306  0.75351044  1  -0.615487  0.000111  -0.100394  -0.201183  6.4e-05  1.329475  0.0
F  F293  1  0.09017614  0.65462132  0.83504056  1  -0.620206  3.4e-05  -0.094297  -0.197585  -2e-06  1.328813  0.0
F  F294  1  0.93103777  0.72634218  0.82068935  1  -0.619542  0.000106  -0.101211  -0.214941  5.9e-05  1.329691  0.0
F  F295  1  0.92924987  0.43878473  0.84935015  1  -0.615609  2.7e-05  -0.101368  -0.206338  1e-06  1.298198  0.0
F  F296  1  0.91311223  0.46824384  0.94264605  1  -0.612777  6.9e-05  -0.106871  -0.217593  4.2e-05  1.348444  0.0
F  F297  1  0.97220110  0.53365404  0.85695500  1  -0.612444  3.5e-05  -0.103758  -0.205579  1.4e-05  1.345238  0.0
F  F298  1  0.12239174  0.51397875  0.92083132  1  -0.624783  6.7e-05  -0.098  -0.20047  4e-05  1.351238  0.0
F  F299  1  0.10217445  0.41835035  0.98554976  1  -0.616019  6.7e-05  -0.101324  -0.208944  4.2e-05  1.351538  0.0
F  F300  1  0.25665512  0.41219454  0.91296855  1  -0.629283  3.8e-05  -0.099206  -0.214849  8e-06  1.318551  0.0
F  F301  1  0.93689366  0.85223977  0.74650543  1  -0.612215  0.00011  -0.100301  -0.200645  6.3e-05  1.328086  0.0
F  F302  1  0.07969925  0.84540727  0.66496998  1  -0.620303  3.4e-05  -0.09354  -0.195964  -2e-06  1.33066  0.0
F  F303  1  0.97807294  0.77361542  0.67929442  1  -0.605655  0.000105  -0.100632  -0.213984  6e-05  1.329799  0.0
