# generated using pymatgen
data_Al3H22C48N12Cl3O14
_symmetry_space_group_name_H-M   'P 1'
_cell_length_a   13.85783981
_cell_length_b   13.33834920
_cell_length_c   35.17909544
_cell_angle_alpha   89.86568814
_cell_angle_beta   89.80235434
_cell_angle_gamma   61.27506824
_symmetry_Int_Tables_number   1
_chemical_formula_structural   Al3H22C48N12Cl3O14
_chemical_formula_sum   'Al6 H44 C96 N24 Cl6 O28'
_cell_volume   5702.27322497
_cell_formula_units_Z   2
loop_
 _symmetry_equiv_pos_site_id
 _symmetry_equiv_pos_as_xyz
  1  'x, y, z'
loop_
 _atom_site_type_symbol
 _atom_site_label
 _atom_site_symmetry_multiplicity
 _atom_site_fract_x
 _atom_site_fract_y
 _atom_site_fract_z
 _atom_site_occupancy
 _atom_site_pbe_bader_charge
 _atom_site_pbe_bader_spin_density
 _atom_site_pbe_cm5_charge
 _atom_site_pbe_ddec_charge
 _atom_site_pbe_ddec_spin_density
 _atom_site_pbe_ddec_sum_bond_order
 _atom_site_pbe_magmom
Al  Al0  1  0.25708403  0.22755217  0.49991188  1  2.48916  0  0.395692  1.693623  0  2.548973  0
Al  Al1  1  0.47272224  0.25796879  0.50045504  1  2.47818  0  0.503582  1.666467  0  2.501177  0
Al  Al2  1  0.25197248  0.46970248  0.50022417  1  2.485217  0  0.503693  1.668331  0  2.500013  0
Al  Al3  1  0.74490640  0.48525874  0.99997907  1  2.493659  0  0.395465  1.693231  0  2.548743  0
Al  Al4  1  0.52752338  0.73041076  0.00044698  1  2.480542  0  0.504159  1.667222  0  2.499334  0
Al  Al5  1  0.74765263  0.72298614  0.00037709  1  2.477255  0  0.503789  1.666851  0  2.501672  0
H  H6  1  0.60101351  0.31215316  0.59572017  1  0.082268  0  0.113288  0.116116  0  0.990268  0
H  H7  1  0.08004420  0.61563701  0.59612498  1  0.093716  0  0.111796  0.114828  0  0.991618  0
H  H8  1  0.32201622  0.07067977  0.59994329  1  0.111696  0  0.115176  0.120044  0  0.987842  0
H  H9  1  0.39648485  0.91339499  0.09628616  1  0.097581  0  0.113782  0.116679  0  0.989111  0
H  H10  1  0.91727024  0.70061791  0.09636023  1  0.087685  0  0.111236  0.114207  0  0.992771  0
H  H11  1  0.68318802  0.39300720  0.09976406  1  0.132663  0  0.114255  0.118159  0  0.988978  0
H  H12  1  0.27843061  0.60430182  0.60001282  1  0.123849  0  0.1122  0.115756  0  0.9947  0
H  H13  1  0.11267997  0.27949835  0.60269921  1  0.094509  0  0.112962  0.116729  0  0.991677  0
H  H14  1  0.61071584  0.11154766  0.60200852  1  0.132904  0  0.110318  0.11306  0  0.996053  0
H  H15  1  0.71964793  0.88190915  0.10022179  1  0.126954  0  0.112  0.114957  0  0.99719  0
H  H16  1  0.88992678  0.39400765  0.10255953  1  0.101625  0  0.114883  0.120298  0  0.988842  0
H  H17  1  0.38896897  0.71778028  0.10164609  1  0.110298  0  0.110975  0.11379  0  0.99457  0
H  H18  1  0.69346742  0.42130077  0.89848283  1  0.166155  0  0.112617  0.120794  0  1.016089  0
H  H19  1  0.87949138  0.71204447  0.90095388  1  0.120958  0  0.10333  0.107233  0  1.031581  0
H  H20  1  0.42576596  0.86892580  0.90213186  1  0.128111  0  0.104386  0.108669  0  1.038422  0
H  H21  1  0.30677376  0.11167402  0.39972899  1  0.111111  0  0.11476  0.123478  0  1.009146  0
H  H22  1  0.12479635  0.59028150  0.40062610  1  0.117278  0  0.103357  0.107016  0  1.03222  0
H  H23  1  0.57411180  0.29263732  0.40159239  1  0.149432  0  0.104422  0.108098  0  1.037659  0
H  H24  1  0.62700439  0.33607739  0.66492817  1  0.10122  0  0.110104  0.109998  0  1.007603  0
H  H25  1  0.03412645  0.64471922  0.66569448  1  0.108531  0  0.108758  0.108055  0  1.009348  0
H  H26  1  0.34168064  0.02772898  0.66986683  1  0.081746  0  0.10898  0.107748  0  1.010415  0
H  H27  1  0.37022381  0.96378905  0.16550263  1  0.121714  0  0.110286  0.110134  0  1.0067  0
H  H28  1  0.96356393  0.68368219  0.16584300  1  0.064796  0  0.108158  0.107329  0  1.009846  0
H  H29  1  0.66409572  0.37037328  0.16975869  1  0.10038  0  0.109605  0.108537  0  1.010129  0
H  H30  1  0.30357326  0.62888006  0.66920455  1  0.129166  0  0.110012  0.108932  0  1.011626  0
H  H31  1  0.06677350  0.30762508  0.67223467  1  0.092204  0  0.10894  0.107355  0  1.015572  0
H  H32  1  0.63060311  0.07022561  0.67193561  1  0.07967  0  0.108445  0.107515  0  1.012369  0
H  H33  1  0.69438509  0.93176999  0.16942192  1  0.113613  0  0.11001  0.108934  0  1.012809  0
H  H34  1  0.93648343  0.37591568  0.17202980  1  0.094561  0  0.108589  0.106857  0  1.016031  0
H  H35  1  0.36959910  0.69688417  0.17166107  1  0.104392  0  0.108661  0.107737  0  1.01183  0
H  H36  1  0.67966040  0.39425834  0.82886539  1  0.112855  0  0.111163  0.113493  0  1.0056  0
H  H37  1  0.92508910  0.69936580  0.83175548  1  0.13491  0  0.109358  0.11208  0  1.007272  0
H  H38  1  0.39750701  0.91509907  0.83304154  1  0.122408  0  0.111134  0.114345  0  1.00657  0
H  H39  1  0.31904807  0.07270456  0.32997170  1  0.098421  0  0.111531  0.114095  0  1.005609  0
H  H40  1  0.07872526  0.62453265  0.33154607  1  0.125648  0  0.109239  0.112169  0  1.00739  0
H  H41  1  0.60262685  0.31064963  0.33246103  1  0.108361  0  0.111333  0.114372  0  1.006798  0
H  H42  1  0.34831313  0.67473631  0.83043352  1  0.142216  0  0.109994  0.120803  0  1.018377  0
H  H43  1  0.97716531  0.35397030  0.83100693  1  0.134438  0  0.109372  0.11819  0  1.024932  0
H  H44  1  0.66636461  0.99140847  0.83494478  1  0.1247  0  0.111577  0.123015  0  1.015871  0
H  H45  1  0.65062228  0.02176294  0.33032916  1  0.113409  0  0.110253  0.120981  0  1.018336  0
H  H46  1  0.02021371  0.33527048  0.33070853  1  0.128131  0  0.10941  0.119042  0  1.024489  0
H  H47  1  0.33627427  0.65677469  0.33507394  1  0.148509  0  0.111742  0.122575  0  1.016187  0
H  H48  1  0.15644756  0.13924290  0.52188211  1  0.568716  0  0.289209  0.37672  0  0.932856  0
H  H49  1  0.79416748  0.29773399  0.01833151  1  0.572988  0  0.288858  0.377456  0  0.931986  0
C  C50  1  0.13618280  0.42285022  0.55520199  1  1.553302  0  0.271838  0.635993  0  4.094626  0
C  C51  1  0.44566306  0.12791784  0.55627707  1  1.559301  0  0.270879  0.635136  0  4.092675  0
C  C52  1  0.41878827  0.43739626  0.55382490  1  1.540649  0  0.278074  0.646079  0  4.082863  0
C  C53  1  0.86202219  0.56283761  0.05558731  1  1.572693  0  0.271068  0.632401  0  4.095654  0
C  C54  1  0.55503797  0.57119290  0.05576422  1  1.570757  0  0.27217  0.638655  0  4.091128  0
C  C55  1  0.57929832  0.85630722  0.05413020  1  1.547052  0  0.276978  0.644071  0  4.083484  0
C  C56  1  0.48103026  0.49846856  0.71192949  1  0.975457  0  0.243653  0.246813  0  3.974159  0
C  C57  1  0.02326928  0.49214330  0.71404133  1  0.985043  0  0.243072  0.247556  0  3.97564  0
C  C58  1  0.49789626  0.02362966  0.71625467  1  0.968001  0  0.245404  0.250852  0  3.970252  0
C  C59  1  0.51618298  0.98068765  0.21226346  1  0.945614  0  0.243953  0.247939  0  3.973638  0
C  C60  1  0.97643510  0.51889753  0.21400005  1  0.958793  0  0.243358  0.249666  0  3.975298  0
C  C61  1  0.50482624  0.52006421  0.21607537  1  0.927767  0  0.244389  0.250176  0  3.970341  0
C  C62  1  0.61062258  0.46094785  0.84436949  1  -0.057515  0  -0.080555  -0.111773  0  3.954174  0
C  C63  1  0.92679540  0.62705175  0.84674052  1  0.006515  0  -0.083166  -0.116143  0  3.958796  0
C  C64  1  0.46191734  0.92189599  0.84857703  1  0.005739  0  -0.079471  -0.111942  0  3.946992  0
C  C65  1  0.38850246  0.06982101  0.34525057  1  -0.012616  0  -0.080114  -0.112232  0  3.953886  0
C  C66  1  0.07578412  0.55448005  0.34647866  1  -0.084955  0  -0.083166  -0.115493  0  3.958492  0
C  C67  1  0.53865841  0.38200624  0.34816459  1  0.033038  0  -0.079403  -0.111558  0  3.948244  0
C  C68  1  0.61806798  0.47572409  0.88302367  1  -0.03726  0  -0.069913  -0.059974  0  3.939502  0
C  C69  1  0.90208611  0.63363348  0.88520572  1  -0.041109  0  -0.075923  -0.063922  0  3.95667  0
C  C70  1  0.47741835  0.89690011  0.88706410  1  -0.027657  0  -0.072837  -0.059964  0  3.945976  0
C  C71  1  0.38189089  0.09103294  0.38398397  1  -0.007363  0  -0.068958  -0.059546  0  3.936789  0
C  C72  1  0.10081464  0.53559006  0.38487187  1  -0.003766  0  -0.076452  -0.065381  0  3.957323  0
C  C73  1  0.52306105  0.37247370  0.38666912  1  -0.04056  0  -0.072766  -0.058451  0  3.944565  0
C  C74  1  0.43215898  0.63263273  0.88424786  1  0.037525  0  0.027064  0.146543  0  4.005038  0
C  C75  1  0.93127876  0.43947787  0.88501159  1  0.040902  0  0.028654  0.144254  0  4.014896  0
C  C76  1  0.62831380  0.93977361  0.88838479  1  0.027689  0  0.029982  0.151668  0  4.001729  0
C  C77  1  0.56792218  0.06211950  0.38449811  1  0.035996  0  0.027242  0.146675  0  4.004112  0
C  C78  1  0.06812975  0.37286681  0.38459068  1  0.038852  0  0.028369  0.144496  0  4.015064  0
C  C79  1  0.37356910  0.56680302  0.38836795  1  0.016431  0  0.029668  0.150244  0  4.004046  0
C  C80  1  0.42421718  0.61877970  0.84529041  1  0.043984  0  -0.086055  -0.181672  0  3.944489  0
C  C81  1  0.95596819  0.43261398  0.84633454  1  0.006569  0  -0.08633  -0.18169  0  3.95014  0
C  C82  1  0.61339723  0.96458204  0.84964667  1  0.050175  0  -0.083777  -0.180823  0  3.938059  0
C  C83  1  0.57503457  0.04128374  0.34548548  1  0.061838  0  -0.085923  -0.181611  0  3.944841  0
C  C84  1  0.04299772  0.39146964  0.34602690  1  0.022129  0  -0.086548  -0.182221  0  3.951735  0
C  C85  1  0.38860873  0.57672179  0.34961345  1  0.034095  0  -0.084466  -0.17883  0  3.938319  0
C  C86  1  0.51296160  0.53365880  0.82503872  1  -0.006409  0  0.001253  0.041945  0  3.993976  0
C  C87  1  0.95363137  0.52556906  0.82692221  1  -0.008563  0  -0.000397  0.042141  0  3.995694  0
C  C88  1  0.53104044  0.95536532  0.82942991  1  -0.045432  0  0.004429  0.049747  0  3.982177  0
C  C89  1  0.48571912  0.04555154  0.32554331  1  0.008853  0  0.00107  0.042493  0  3.994333  0
C  C90  1  0.04691043  0.48139649  0.32668702  1  0.053397  0  -0.000515  0.042037  0  3.996691  0
C  C91  1  0.47035771  0.48487398  0.32919877  1  -0.062121  0  0.005108  0.047757  0  3.985475  0
C  C92  1  0.53051065  0.56164167  0.90392711  1  0.027671  0  -0.010378  -0.097358  0  3.902896  0
C  C93  1  0.90277985  0.54168369  0.90521590  1  0.005672  0  -0.010982  -0.098677  0  3.909941  0
C  C94  1  0.56087811  0.90367637  0.90785529  1  0.005564  0  -0.012167  -0.103943  0  3.911629  0
C  C95  1  0.46991839  0.08903317  0.40455297  1  -0.0027  0  -0.009506  -0.097711  0  3.905135  0
C  C96  1  0.09861966  0.44496458  0.40476603  1  -0.006151  0  -0.011452  -0.09723  0  3.911837  0
C  C97  1  0.44024846  0.46302583  0.40764722  1  0.046079  0  -0.012113  -0.105171  0  3.914601  0
C  C98  1  0.13848071  0.42434570  0.44485680  1  1.576882  0  0.269021  0.641613  0  4.092107  0
C  C99  1  0.44672079  0.12535493  0.44526649  1  1.584  0  0.274218  0.644447  0  4.086439  0
C  C100  1  0.42232361  0.43740932  0.44745114  1  1.570688  0  0.276857  0.658251  0  4.074279  0
C  C101  1  0.86379235  0.56173582  0.94549109  1  1.570133  0  0.272585  0.642441  0  4.087534  0
C  C102  1  0.55458840  0.57407092  0.94459055  1  1.578386  0  0.27026  0.64425  0  4.08663  0
C  C103  1  0.57847288  0.86031170  0.94765516  1  1.578057  0  0.276112  0.656746  0  4.07544  0
C  C104  1  0.43873119  0.45782801  0.59379311  1  -0.012104  0  -0.009043  -0.043333  0  3.966936  0
C  C105  1  0.09822055  0.44614171  0.59545399  1  -0.038429  0  -0.00823  -0.035313  0  3.96016  0
C  C106  1  0.46543279  0.09281712  0.59700593  1  0.010572  0  -0.006795  -0.033633  0  3.954999  0
C  C107  1  0.55901358  0.89647283  0.09415372  1  0.003059  0  -0.009305  -0.043767  0  3.967416  0
C  C108  1  0.90116234  0.54808045  0.09561979  1  -0.056213  0  -0.007814  -0.033671  0  3.960487  0
C  C109  1  0.53656319  0.55577891  0.09664235  1  -0.015993  0  -0.007992  -0.03714  0  3.957374  0
C  C110  1  0.53710795  0.38191583  0.61202058  1  -0.051445  0  -0.072203  -0.076311  0  3.957553  0
C  C111  1  0.07580873  0.54939357  0.61305320  1  0.013445  0  -0.075595  -0.083413  0  3.966282  0
C  C112  1  0.38969398  0.06895780  0.61610198  1  -0.044921  0  -0.073399  -0.078889  0  3.955996  0
C  C113  1  0.46047893  0.91908915  0.11250012  1  -0.07293  0  -0.071971  -0.076233  0  3.956142  0
C  C114  1  0.92265864  0.62951578  0.11321025  1  -0.003587  0  -0.07665  -0.085676  0  3.969811  0
C  C115  1  0.61418099  0.45786769  0.11583762  1  -0.059836  0  -0.072296  -0.076846  0  3.956119  0
C  C116  1  0.55133381  0.39485198  0.65042790  1  0.049801  0  -0.076556  -0.105003  0  3.951151  0
C  C117  1  0.05060080  0.56543012  0.65160530  1  -0.056073  0  -0.079266  -0.106375  0  3.957946  0
C  C118  1  0.40049446  0.04558828  0.65478951  1  0.018061  0  -0.077637  -0.10341  0  3.957111  0
C  C119  1  0.44610483  0.94652372  0.15091989  1  -0.041737  0  -0.075756  -0.103725  0  3.948337  0
C  C120  1  0.94816587  0.62022454  0.15169688  1  0.0092  0  -0.079155  -0.105718  0  3.958715  0
C  C121  1  0.60382597  0.44572892  0.15461409  1  0.032492  0  -0.077623  -0.10399  0  3.955817  0
C  C122  1  0.46699069  0.48423860  0.67120363  1  -0.039432  0  0.002533  0.027913  0  3.975346  0
C  C123  1  0.04756793  0.47790126  0.67309043  1  -0.032742  0  -0.000381  0.023012  0  3.985749  0
C  C124  1  0.48749427  0.04623827  0.67512953  1  -0.028679  0  -0.001202  0.019855  0  3.985701  0
C  C125  1  0.53047958  0.95151222  0.17158792  1  -0.019166  0  0.00301  0.027806  0  3.975127  0
C  C126  1  0.95264300  0.52880627  0.17306388  1  -0.029583  0  -0.001483  0.020878  0  3.98656  0
C  C127  1  0.51535343  0.53210837  0.17492725  1  -0.024454  0  0.000143  0.022219  0  3.982671  0
C  C128  1  0.36852810  0.56037454  0.65284617  1  -0.043881  0  -0.076525  -0.10391  0  3.951002  0
C  C129  1  0.06906377  0.37480749  0.65528006  1  -0.003778  0  -0.078987  -0.106027  0  3.961927  0
C  C130  1  0.56383166  0.06952204  0.65591771  1  -0.037443  0  -0.078559  -0.105419  0  3.956859  0
C  C131  1  0.62929511  0.92851653  0.15314376  1  0.002254  0  -0.077325  -0.104831  0  3.953892  0
C  C132  1  0.93273258  0.44622660  0.15517675  1  0.01055  0  -0.078802  -0.105772  0  3.961952  0
C  C133  1  0.43738377  0.63024574  0.15565052  1  -0.037742  0  -0.078079  -0.105545  0  3.955039  0
C  C134  1  0.35473824  0.54713728  0.61446117  1  -0.064494  0  -0.072508  -0.076065  0  3.958665  0
C  C135  1  0.09409383  0.35935076  0.61681071  1  -0.016383  0  -0.074344  -0.078526  0  3.963019  0
C  C136  1  0.55285111  0.09232791  0.61712866  1  -0.078748  0  -0.076038  -0.08281  0  3.965869  0
C  C137  1  0.64312771  0.90146720  0.11474946  1  -0.050451  0  -0.073371  -0.075885  0  3.95979  0
C  C138  1  0.90720701  0.45601417  0.11680095  1  -0.045422  0  -0.0736  -0.078483  0  3.95907  0
C  C139  1  0.44804826  0.64174042  0.11680745  1  -0.058333  0  -0.075431  -0.081076  0  3.964269  0
C  C140  1  0.50246201  0.52178563  0.78390053  1  0.960066  0  0.244978  0.248708  0  3.968127  0
C  C141  1  0.97946589  0.51433360  0.78604877  1  0.934122  0  0.244225  0.248454  0  3.969376  0
C  C142  1  0.51807865  0.98120799  0.78845951  1  0.978415  0  0.243895  0.245992  0  3.970667  0
C  C143  1  0.49528302  0.02481359  0.28430093  1  0.9431  0  0.245207  0.248435  0  3.968579  0
C  C144  1  0.02036346  0.49680940  0.28592722  1  0.967456  0  0.243476  0.247161  0  3.968935  0
C  C145  1  0.48376679  0.49779380  0.28824220  1  0.972614  0  0.24435  0.246095  0  3.968967  0
N  N146  1  0.58922611  0.43822341  0.76509139  1  -0.549273  0  -0.151182  -0.142626  0  3.20383  0
N  N147  1  0.97700496  0.60433655  0.76734806  1  -0.544935  0  -0.153598  -0.145747  0  3.201736  0
N  N148  1  0.43631382  0.97385612  0.76986045  1  -0.559656  0  -0.150809  -0.142592  0  3.208241  0
N  N149  1  0.40817547  0.02867056  0.26566859  1  -0.540182  0  -0.150875  -0.141975  0  3.202936  0
N  N150  1  0.02305849  0.58432605  0.26728895  1  -0.559861  0  -0.154311  -0.14689  0  3.203873  0
N  N151  1  0.56624747  0.40908426  0.26962274  1  -0.568482  0  -0.150211  -0.141029  0  3.206358  0
N  N152  1  0.57830990  0.42644176  0.72844308  1  -0.558488  0  -0.151704  -0.145272  0  3.207338  0
N  N153  1  0.99930559  0.59302403  0.73062596  1  -0.567041  0  -0.153969  -0.148056  0  3.203272  0
N  N154  1  0.42617739  0.99522592  0.73311952  1  -0.529075  0  -0.151128  -0.143738  0  3.20474  0
N  N155  1  0.41883209  0.00624653  0.22897750  1  -0.540215  0  -0.152119  -0.146277  0  3.206735  0
N  N156  1  0.00080507  0.59547963  0.23060040  1  -0.542953  0  -0.154956  -0.149136  0  3.205008  0
N  N157  1  0.57673656  0.42028869  0.23288466  1  -0.531206  0  -0.15033  -0.143907  0  3.204896  0
N  N158  1  0.39619128  0.58539519  0.73043918  1  -0.553527  0  -0.150312  -0.142479  0  3.214105  0
N  N159  1  0.02764974  0.40136226  0.73303384  1  -0.541805  0  -0.15021  -0.142588  0  3.220325  0
N  N160  1  0.57769156  0.03416258  0.73517377  1  -0.553164  0  -0.150905  -0.14352  0  3.207806  0
N  N161  1  0.60046078  0.98452411  0.23044650  1  -0.539128  0  -0.149894  -0.142321  0  3.214539  0
N  N162  1  0.97029898  0.43351348  0.23305347  1  -0.548407  0  -0.150594  -0.144131  0  3.221978  0
N  N163  1  0.42461804  0.61019586  0.23503715  1  -0.534862  0  -0.150932  -0.143687  0  3.207725  0
N  N164  1  0.40712118  0.59729838  0.76696972  1  -0.551431  0  -0.148778  -0.13587  0  3.210804  0
N  N165  1  0.00537719  0.41266409  0.76951885  1  -0.551539  0  -0.149602  -0.135262  0  3.220691  0
N  N166  1  0.58802236  0.01232092  0.77183214  1  -0.562633  0  -0.150266  -0.137983  0  3.21469  0
N  N167  1  0.58981382  0.00700397  0.26701300  1  -0.541396  0  -0.149486  -0.136534  0  3.212755  0
N  N168  1  0.99275501  0.42224104  0.26948014  1  -0.561838  0  -0.149166  -0.13421  0  3.221013  0
N  N169  1  0.41374976  0.59861500  0.27167630  1  -0.572753  0  -0.15028  -0.137375  0  3.212098  0
Cl  Cl170  1  0.31535808  0.73895559  0.90576000  1  -0.180108  0  0.007362  -0.059709  0  1.495718  0
Cl  Cl171  1  0.93854263  0.31866418  0.90551298  1  -0.152209  0  0.028222  -0.028651  0  1.528015  0
Cl  Cl172  1  0.73020523  0.95835982  0.91005699  1  -0.171584  0  0.014768  -0.050441  0  1.494974  0
Cl  Cl173  1  0.68524738  0.05091498  0.40564687  1  -0.182641  0  0.006639  -0.06025  0  1.493414  0
Cl  Cl174  1  0.05841764  0.26059816  0.40509512  1  -0.158346  0  0.023415  -0.034764  0  1.523338  0
Cl  Cl175  1  0.27280499  0.68761372  0.41035242  1  -0.171315  0  0.016492  -0.048102  0  1.494683  0
O  O176  1  0.35927038  0.13758440  0.54107292  1  -1.238195  0  -0.215886  -0.572044  0  2.363846  0
O  O177  1  0.49410604  0.34948993  0.53696842  1  -1.265683  0  -0.235046  -0.599179  0  2.308383  0
O  O178  1  0.14472202  0.50268606  0.53711125  1  -1.274608  0  -0.248812  -0.61316  0  2.280822  0
O  O179  1  0.63982741  0.49372267  0.03973681  1  -1.254112  0  -0.2206  -0.582218  0  2.355367  0
O  O180  1  0.50440534  0.84331224  0.03721350  1  -1.274263  0  -0.234716  -0.597553  0  2.305884  0
O  O181  1  0.85530716  0.64978773  0.03694464  1  -1.274718  0  -0.251095  -0.616972  0  2.275179  0
O  O182  1  0.16248580  0.32524350  0.54181626  1  -1.251111  0  -0.21888  -0.576706  0  2.35894  0
O  O183  1  0.51594237  0.15140574  0.53974451  1  -1.272749  0  -0.249285  -0.612516  0  2.27334  0
O  O184  1  0.32502251  0.50517012  0.53933565  1  -1.274529  0  -0.233769  -0.596081  0  2.304606  0
O  O185  1  0.83307569  0.49291921  0.04297796  1  -1.237801  0  -0.214135  -0.56475  0  2.36476  0
O  O186  1  0.48540446  0.66582530  0.03983813  1  -1.281054  0  -0.247123  -0.608596  0  2.278491  0
O  O187  1  0.67313869  0.83089605  0.03963318  1  -1.263938  0  -0.23361  -0.596103  0  2.306949  0
O  O188  1  0.35690770  0.13908289  0.45896242  1  -1.2278  0  -0.207045  -0.537729  0  2.343352  0
O  O189  1  0.49623063  0.34371234  0.46192405  1  -1.262908  0  -0.234318  -0.591859  0  2.30485  0
O  O190  1  0.15079674  0.50453413  0.46106449  1  -1.270834  0  -0.249606  -0.611115  0  2.276529  0
O  O191  1  0.64596092  0.49951359  0.95750100  1  -1.242674  0  -0.211637  -0.55489  0  2.35939  0
O  O192  1  0.50478906  0.83968700  0.96204657  1  -1.256958  0  -0.233965  -0.592536  0  2.306779  0
O  O193  1  0.84816138  0.65649582  0.96079506  1  -1.271502  0  -0.248114  -0.610402  0  2.28543  0
O  O194  1  0.16327485  0.32942010  0.45990126  1  -1.240188  0  -0.21054  -0.560381  0  2.427651  0
O  O195  1  0.51589357  0.14639158  0.46323057  1  -1.265261  0  -0.247832  -0.618747  0  2.353132  0
O  O196  1  0.33217248  0.50486723  0.46403427  1  -1.268384  0  -0.233366  -0.604557  0  2.38333  0
O  O197  1  0.84304006  0.48994156  0.96163968  1  -1.23225  0  -0.207483  -0.546659  0  2.410118  0
O  O198  1  0.48420899  0.66215359  0.96334014  1  -1.271093  0  -0.249652  -0.619718  0  2.345266  0
O  O199  1  0.66800800  0.83866001  0.96436646  1  -1.26007  0  -0.23365  -0.603034  0  2.381034  0
O  O200  1  0.32830478  0.31937605  0.50052424  1  -1.608211  0  -0.391025  -1.264092  0  2.288378  0
O  O201  1  0.67195598  0.64822929  0.00049769  1  -1.606887  0  -0.391318  -1.263636  0  2.288848  0
O  O202  1  0.19164755  0.14310284  0.49859177  1  -1.357298  0  -0.578592  -0.995755  0  1.812807  0
O  O203  1  0.81390678  0.33537119  0.99869989  1  -1.363696  0  -0.578316  -0.997496  0  1.81442  0
