# generated using pymatgen
data_Zr6H17C52S10N2Cl5O32
_symmetry_space_group_name_H-M   'P 1'
_cell_length_a   16.46697639
_cell_length_b   16.45196621
_cell_length_c   16.51866774
_cell_angle_alpha   61.60835945
_cell_angle_beta   59.80912231
_cell_angle_gamma   60.24960674
_symmetry_Int_Tables_number   1
_chemical_formula_structural   Zr6H17C52S10N2Cl5O32
_chemical_formula_sum   'Zr6 H17 C52 S10 N2 Cl5 O32'
_cell_volume   3202.42584687
_cell_formula_units_Z   1
loop_
 _symmetry_equiv_pos_site_id
 _symmetry_equiv_pos_as_xyz
  1  'x, y, z'
loop_
 _atom_site_type_symbol
 _atom_site_label
 _atom_site_symmetry_multiplicity
 _atom_site_fract_x
 _atom_site_fract_y
 _atom_site_fract_z
 _atom_site_occupancy
 _atom_site_pbe_bader_charge
 _atom_site_pbe_bader_spin_density
 _atom_site_pbe_cm5_charge
 _atom_site_pbe_ddec_charge
 _atom_site_pbe_ddec_spin_density
 _atom_site_pbe_ddec_sum_bond_order
 _atom_site_pbe_magmom
Zr  Zr0  1  0.88707042  0.90314562  0.59772231  1  2.635976  0  1.630791  2.372444  0  2.786176  0
Zr  Zr1  1  0.11057537  0.10318647  0.39786840  1  2.637959  0  1.628857  2.374778  0  2.777939  0
Zr  Zr2  1  0.10128795  0.89408217  0.60734017  1  2.639687  0  1.621814  2.379072  0  2.740664  0
Zr  Zr3  1  0.89661164  0.11258418  0.38895016  1  2.637264  0  1.619907  2.375764  0  2.737911  0
Zr  Zr4  1  0.10798317  0.89364828  0.38949336  1  2.639528  0  1.619227  2.379857  0  2.729796  0
Zr  Zr5  1  0.88990240  0.11146774  0.60768631  1  2.636132  0  1.619025  2.37807  0  2.733085  0
H  H6  1  0.07655308  0.75295882  0.57810790  1  0.593846  0  0.33203  0.425422  0  0.852229  0
H  H7  1  0.09155715  0.08288125  0.24796115  1  0.594954  0  0.332064  0.425572  0  0.853944  0
H  H8  1  0.08274704  0.08212944  0.58976798  1  0.605403  0  0.331151  0.426088  0  0.85151  0
H  H9  1  0.74409419  0.09458355  0.57743580  1  0.605257  0  0.331366  0.425728  0  0.852811  0
H  H10  1  0.12550115  0.61203864  0.36202429  1  0.124006  0  0.122302  0.148287  0  0.968672  0
H  H11  1  0.61110479  0.12659267  0.90000951  1  0.109953  0  0.121138  0.146776  0  0.971908  0
H  H12  1  0.86648211  0.12466684  0.11823235  1  0.123223  0  0.11859  0.143339  0  0.97614  0
H  H13  1  0.62170606  0.39675642  0.36389287  1  0.105592  0  0.121052  0.146795  0  0.971835  0
H  H14  1  0.09735690  0.64167269  0.87118342  1  0.060626  0  0.101757  0.104957  0  1.038829  0
H  H15  1  0.84245204  0.65580184  0.84929279  1  0.076221  0  0.103916  0.121245  0  1.008754  0
H  H16  1  0.88829655  0.37759601  0.13652106  1  0.087839  0  0.102653  0.105916  0  1.031625  0
H  H17  1  0.15321408  0.35312296  0.14853689  1  0.064847  0  0.103547  0.120326  0  1.010885  0
H  H18  1  0.62057751  0.87605915  0.61080532  1  0.113138  0  0.121646  0.147542  0  0.97159  0
H  H19  1  0.20709744  0.54686516  0.92227139  1  0.43391  0  0.300051  0.291865  0  0.973613  0
H  H20  1  0.24307889  0.46086742  0.01891630  1  0.426535  0  0.309549  0.303441  0  0.937295  0
H  H21  1  0.82145656  0.42965264  0.04194901  1  0.440383  0  0.303144  0.29392  0  0.962487  0
H  H22  1  0.77362336  0.52728978  0.95756427  1  0.426102  0  0.309272  0.302566  0  0.937824  0
C  C23  1  0.99404316  0.73924768  0.48457805  1  1.588304  0  0.225632  0.644056  0  4.157163  0
C  C24  1  0.28122872  0.98811304  0.23514125  1  1.555987  0  0.222685  0.65479  0  4.151463  0
C  C25  1  0.99636052  0.27305710  0.50553666  1  1.576725  0  0.223847  0.65549  0  4.14893  0
C  C26  1  0.72415894  0.00860634  0.76886641  1  1.571936  0  0.226742  0.644353  0  4.155226  0
C  C27  1  0.97925026  0.74203811  0.76623670  1  1.526052  0  0.235458  0.645292  0  4.081891  0
C  C28  1  0.73056004  0.00702156  0.48610752  1  1.591446  0  0.225383  0.643959  0  4.156792  0
C  C29  1  0.01160914  0.27148196  0.23627237  1  1.532986  0  0.234972  0.643712  0  4.085552  0
C  C30  1  0.27543361  0.99281669  0.50019279  1  1.604954  0  0.222429  0.654344  0  4.152307  0
C  C31  1  0.27220521  0.73090005  0.49734440  1  1.596191  0  0.223814  0.656651  0  4.145185  0
C  C32  1  0.99098383  0.99689342  0.77777564  1  1.575747  0  0.223136  0.656232  0  4.148955  0
C  C33  1  0.73345153  0.28232128  0.49358972  1  1.575598  0  0.225713  0.645276  0  4.149879  0
C  C34  1  0.99971463  0.00066520  0.22649198  1  1.584803  0  0.226754  0.647768  0  4.148998  0
C  C35  1  0.92432185  0.42373680  0.56450270  1  0.125886  0  0.008476  0.101231  0  4.088687  0
C  C36  1  0.06171540  0.59306335  0.42352954  1  0.0724  0  -0.08688  -0.13159  0  3.957223  0
C  C37  1  0.99280717  0.36505893  0.50285319  1  -0.105475  0  -0.027951  -0.185473  0  3.934203  0
C  C38  1  0.99312563  0.64972715  0.48620346  1  -0.189271  0  -0.021249  -0.114617  0  3.96511  0
C  C39  1  0.03660053  0.51049198  0.45175956  1  -0.168457  0  -0.020582  0.002145  0  4.074663  0
C  C40  1  0.94929967  0.50670686  0.53536623  1  -0.142152  0  -0.030572  -0.08678  0  4.095906  0
C  C41  1  0.42266990  0.92540799  0.08788819  1  0.092746  0  0.008848  0.101483  0  4.087936  0
C  C42  1  0.58974414  0.06511232  0.91925453  1  0.053128  0  -0.088257  -0.13402  0  3.961504  0
C  C43  1  0.37073851  0.98713771  0.14647978  1  -0.069469  0  -0.029006  -0.186668  0  3.935402  0
C  C44  1  0.63910431  0.00351238  0.86166431  1  -0.159483  0  -0.020581  -0.113181  0  3.963955  0
C  C45  1  0.51076224  0.03652627  0.00238629  1  -0.187558  0  -0.021652  0.001924  0  4.075142  0
C  C46  1  0.50244725  0.95365868  0.00565234  1  -0.10576  0  -0.029435  -0.085326  0  4.093035  0
C  C47  1  0.05940926  0.92885047  0.91682630  1  0.117455  0  0.009736  0.103663  0  4.079167  0
C  C48  1  0.92820157  0.06317991  0.09322184  1  -0.058328  0  -0.090021  -0.134936  0  3.965478  0
C  C49  1  0.99213111  0.99437297  0.86734583  1  -0.081962  0  -0.02812  -0.187144  0  3.925603  0
C  C50  1  0.99675875  0.99778976  0.14027224  1  -0.102119  0  -0.021289  -0.114505  0  3.95555  0
C  C51  1  0.95061504  0.03803459  0.01175255  1  -0.135528  0  -0.022216  0.002231  0  4.075165  0
C  C52  1  0.03580071  0.95376701  0.99900833  1  -0.143298  0  -0.02953  -0.086916  0  4.088998  0
C  C53  1  0.41503175  0.59531294  0.56230478  1  0.161928  0  0.008193  0.101497  0  4.078352  0
C  C54  1  0.59657260  0.42103620  0.42598985  1  0.074275  0  -0.087996  -0.131908  0  3.957992  0
C  C55  1  0.36401681  0.64494134  0.49657749  1  -0.137858  0  -0.028199  -0.186916  0  3.924199  0
C  C56  1  0.64519886  0.37230432  0.49292765  1  -0.205973  0  -0.021265  -0.114079  0  3.953873  0
C  C57  1  0.51267389  0.50280589  0.45085185  1  -0.15291  0  -0.020395  0.004062  0  4.070153  0
C  C58  1  0.49962352  0.51428446  0.53637569  1  -0.13741  0  -0.030481  -0.087086  0  4.091439  0
C  C59  1  0.04074231  0.60926936  0.90019074  1  -0.062419  0  -0.099141  -0.16621  0  3.986859  0
C  C60  1  0.89462943  0.61847668  0.88836213  1  -0.00819  0  -0.108895  -0.239725  0  3.970195  0
C  C61  1  0.88615030  0.53624007  0.96954879  1  0.369832  0  0.098101  0.262504  0  4.088592  0
C  C62  1  0.95620394  0.48811904  0.01961172  1  0.025985  0  -0.010807  -0.003314  0  3.974487  0
C  C63  1  0.94883194  0.40597635  0.10373901  1  -0.03655  0  -0.100989  -0.16971  0  3.995518  0
C  C64  1  0.09884913  0.39265316  0.11166167  1  0.076624  0  -0.109656  -0.239544  0  3.969838  0
C  C65  1  0.10847146  0.47387518  0.02932064  1  0.392002  0  0.100692  0.26739  0  4.085369  0
C  C66  1  0.03553854  0.52496163  0.98212361  1  -0.003561  0  -0.009998  -0.002801  0  3.970476  0
C  C67  1  0.97123363  0.65500722  0.85440856  1  0.006724  0  -0.025146  -0.025413  0  4.049343  0
C  C68  1  0.01899077  0.35938627  0.14891992  1  -0.066193  0  -0.024946  -0.026028  0  4.055169  0
C  C69  1  0.41791717  0.06009477  0.42721342  1  0.044676  0  0.008454  0.101408  0  4.080939  0
C  C70  1  0.59585106  0.93531762  0.55117092  1  0.028126  0  -0.086646  -0.128832  0  3.952986  0
C  C71  1  0.36693434  0.99373786  0.49423671  1  -0.06231  0  -0.02803  -0.18544  0  3.929126  0
C  C72  1  0.64392491  0.00328302  0.48481747  1  -0.140141  0  -0.022231  -0.11536  0  3.961717  0
C  C73  1  0.51340357  0.95547380  0.53013279  1  -0.155394  0  -0.020843  0.003567  0  4.072788  0
C  C74  1  0.50124441  0.03826364  0.44788104  1  -0.110206  0  -0.030401  -0.086092  0  4.097334  0
S  S75  1  0.08734333  0.41170413  0.40952186  1  0.284858  0  0.090462  0.142276  0  2.753085  0
S  S76  1  0.89785876  0.60416363  0.57921572  1  0.278509  0  0.083953  0.135005  0  2.781784  0
S  S77  1  0.42020353  0.07898408  0.10108403  1  0.28672  0  0.084813  0.13385  0  2.763436  0
S  S78  1  0.59110760  0.91065697  0.90742969  1  0.274839  0  0.08919  0.142579  0  2.779334  0
S  S79  1  0.90019969  0.08615436  0.92205590  1  0.279008  0  0.083499  0.13224  0  2.737445  0
S  S80  1  0.08830719  0.90532971  0.08669562  1  0.288104  0  0.088664  0.140621  0  2.772065  0
S  S81  1  0.42066938  0.59235448  0.40278718  1  0.286339  0  0.089402  0.140042  0  2.740281  0
S  S82  1  0.59013302  0.42524953  0.58605478  1  0.280785  0  0.084384  0.133985  0  2.781887  0
S  S83  1  0.42190653  0.90478178  0.58156631  1  0.289963  0  0.089792  0.138383  0  2.751536  0
S  S84  1  0.59045694  0.09136733  0.39630661  1  0.271093  0  0.082121  0.13145  0  2.769025  0
N  N85  1  0.18541191  0.50795731  0.99426408  1  -1.211598  0  -0.596441  -0.618171  0  3.327056  0
N  N86  1  0.80915398  0.50202670  0.00460108  1  -1.215883  0  -0.597754  -0.618225  0  3.315772  0
Cl  Cl87  1  0.82177702  0.40272805  0.66403602  1  -0.166149  0  0.005689  -0.038625  0  1.517928  0
Cl  Cl88  1  0.39685110  0.82766882  0.10744869  1  -0.159547  0  0.009138  -0.034403  0  1.515031  0
Cl  Cl89  1  0.16053009  0.82996617  0.88631750  1  -0.167651  0  0.010153  -0.030912  0  1.520628  0
Cl  Cl90  1  0.38415677  0.62404184  0.66337625  1  -0.175445  0  0.004571  -0.038908  0  1.521153  0
Cl  Cl91  1  0.38857539  0.15802230  0.33098469  1  -0.159068  0  0.007924  -0.038062  0  1.542417  0
O  O92  1  0.92248348  0.77754908  0.55199679  1  -1.178032  0  -0.357063  -0.616527  0  2.294007  0
O  O93  1  0.24726207  0.05714650  0.27125111  1  -1.174739  0  -0.354103  -0.613141  0  2.281314  0
O  O94  1  0.06956033  0.23499360  0.43857061  1  -1.176967  0  -0.354553  -0.613885  0  2.279914  0
O  O95  1  0.75611797  0.94323915  0.72882088  1  -1.171257  0  -0.356384  -0.614905  0  2.293269  0
O  O96  1  0.05073518  0.77279966  0.73464922  1  -1.179264  0  -0.357067  -0.619771  0  2.281494  0
O  O97  1  0.76550833  0.07558826  0.42021906  1  -1.17944  0  -0.353045  -0.616927  0  2.255243  0
O  O98  1  0.94068356  0.24004723  0.26720571  1  -1.180183  0  -0.359039  -0.625859  0  2.276477  0
O  O99  1  0.23938206  0.92613862  0.56943370  1  -1.187107  0  -0.348292  -0.611497  0  2.240161  0
O  O100  1  0.23991494  0.76224444  0.42801875  1  -1.17873  0  -0.351425  -0.614271  0  2.248394  0
O  O101  1  0.92265335  0.06784777  0.74442872  1  -1.170512  0  -0.352616  -0.61681  0  2.248169  0
O  O102  1  0.76475935  0.24705507  0.56445168  1  -1.172231  0  -0.352671  -0.613905  0  2.264944  0
O  O103  1  0.06888099  0.93172156  0.25958155  1  -1.17959  0  -0.353368  -0.615127  0  2.267016  0
O  O104  1  0.05956789  0.92861842  0.73960107  1  -1.182446  0  -0.362554  -0.617477  0  2.328059  0
O  O105  1  0.77011874  0.24612535  0.42398482  1  -1.176231  0  -0.358557  -0.613291  0  2.259747  0
O  O106  1  0.93351795  0.07278096  0.26004753  1  -1.177962  0  -0.360109  -0.616954  0  2.260992  0
O  O107  1  0.23141893  0.76651274  0.56818482  1  -1.175873  0  -0.364432  -0.620671  0  2.325586  0
O  O108  1  0.91400590  0.77964342  0.72609051  1  -1.174915  0  -0.367869  -0.624665  0  2.308466  0
O  O109  1  0.23843771  0.06158278  0.43475736  1  -1.187887  0  -0.369604  -0.619425  0  2.356218  0
O  O110  1  0.07908517  0.23141397  0.27417707  1  -1.181139  0  -0.365947  -0.621413  0  2.308168  0
O  O111  1  0.76242778  0.94054706  0.55577665  1  -1.188286  0  -0.362882  -0.61337  0  2.28658  0
O  O112  1  0.75824838  0.07766550  0.73552821  1  -1.175092  0  -0.359198  -0.612928  0  2.254541  0
O  O113  1  0.06634560  0.77007984  0.41811086  1  -1.180009  0  -0.357137  -0.611098  0  2.250394  0
O  O114  1  0.24333839  0.92213329  0.26784215  1  -1.16664  0  -0.362461  -0.616911  0  2.313946  0
O  O115  1  0.92754141  0.23809936  0.57409890  1  -1.168052  0  -0.362845  -0.617077  0  2.31422  0
O  O116  1  0.81645478  0.06968021  0.55434901  1  -1.232972  0  -0.693732  -1.071744  0  2.351543  0
O  O117  1  0.05827995  0.05922303  0.56480118  1  -1.234671  0  -0.693284  -1.068464  0  2.3518  0
O  O118  1  0.06563207  0.05915501  0.31909823  1  -1.224409  0  -0.694075  -1.068822  0  2.358732  0
O  O119  1  0.05491291  0.82405986  0.55404854  1  -1.220588  0  -0.694567  -1.069246  0  2.359198  0
O  O120  1  0.13287498  0.95388497  0.45669562  1  -1.201483  0  -0.79  -1.147529  0  2.120265  0
O  O121  1  0.95533777  0.96181279  0.44857053  1  -1.203326  0  -0.789549  -1.149282  0  2.118881  0
O  O122  1  0.95726375  0.13472632  0.45722198  1  -1.197229  0  -0.790426  -1.147888  0  2.125808  0
O  O123  1  0.94967463  0.96185429  0.62972252  1  -1.200536  0  -0.791217  -1.14743  0  2.125674  0
