# generated using pymatgen
data_PrH19C15S6(N3O4)2
_symmetry_space_group_name_H-M   'P 1'
_cell_length_a   8.61834160
_cell_length_b   12.31746311
_cell_length_c   14.40781620
_cell_angle_alpha   64.52119433
_cell_angle_beta   77.51652579
_cell_angle_gamma   73.98706651
_symmetry_Int_Tables_number   1
_chemical_formula_structural   PrH19C15S6(N3O4)2
_chemical_formula_sum   'Pr2 H38 C30 S12 N12 O16'
_cell_volume   1318.75124674
_cell_formula_units_Z   2
loop_
 _symmetry_equiv_pos_site_id
 _symmetry_equiv_pos_as_xyz
  1  'x, y, z'
loop_
 _atom_site_type_symbol
 _atom_site_label
 _atom_site_symmetry_multiplicity
 _atom_site_fract_x
 _atom_site_fract_y
 _atom_site_fract_z
 _atom_site_occupancy
 _atom_site_hle17_bader_spin_density
 _atom_site_hle17_ddec_charge
 _atom_site_hle17_ddec_spin_density
 _atom_site_hle17_ddec_sum_bond_order
 _atom_site_hle17_magmom
 _atom_site_hse06_10hf_bader_spin_density
 _atom_site_hse06_10hf_ddec_charge
 _atom_site_hse06_10hf_ddec_spin_density
 _atom_site_hse06_10hf_ddec_sum_bond_order
 _atom_site_hse06_10hf_magmom
 _atom_site_hse06_bader_spin_density
 _atom_site_hse06_ddec_charge
 _atom_site_hse06_ddec_spin_density
 _atom_site_hse06_ddec_sum_bond_order
 _atom_site_hse06_magmom
 _atom_site_pbe_bader_spin_density
 _atom_site_pbe_cm5_charge
 _atom_site_pbe_ddec_charge
 _atom_site_pbe_ddec_spin_density
 _atom_site_pbe_ddec_sum_bond_order
 _atom_site_pbe_magmom
Pr  Pr0  1  0.24778220  0.98635185  0.01223714  1  0  2.302594  0  1.601014  0  0  2.137842  0  2.057029  0  0  2.231036  0  1.917953  0  0  1.487307  2.10546  0  2.090289  0
Pr  Pr1  1  0.75221655  0.01364895  0.98776387  1  0  2.302596  0  1.601128  0  0  2.137874  0  2.057099  0  0  2.231045  0  1.918064  0  0  1.487309  2.105496  0  2.09035  0
H  H2  1  0.78517199  0.84271188  0.82303112  1  0  0.142928  0  0.937832  0  0  0.151179  0  1.000785  0  0  0.154132  0  0.999502  0  0  0.114824  0.149009  0  1.001904  0
H  H3  1  0.21482082  0.15728880  0.17697554  1  0  0.142908  0  0.937981  0  0  0.15112  0  1.000927  0  0  0.15407  0  0.999647  0  0  0.114802  0.148954  0  1.002045  0
H  H4  1  0.63528777  0.89096157  0.73711323  1  0  0.149136  0  0.915766  0  0  0.159151  0  0.97787  0  0  0.162004  0  0.975891  0  0  0.117704  0.157117  0  0.97924  0
H  H5  1  0.36471180  0.10904473  0.26288711  1  0  0.149142  0  0.915835  0  0  0.159119  0  0.977908  0  0  0.161995  0  0.975904  0  0  0.117689  0.157089  0  0.979279  0
H  H6  1  0.91820609  0.31603722  0.24806918  1  0  0.128917  0  0.957188  0  0  0.149293  0  1.018855  0  0  0.15072  0  1.018967  0  0  0.098593  0.14822  0  1.018809  0
H  H7  1  0.08178793  0.68396364  0.75192755  1  0  0.128918  0  0.95729  0  0  0.149315  0  1.018914  0  0  0.150744  0  1.019024  0  0  0.098581  0.148245  0  1.018869  0
H  H8  1  0.90779311  0.23264221  0.17519046  1  0  0.138322  0  0.937969  0  0  0.159858  0  0.995094  0  0  0.161831  0  0.994325  0  0  0.102834  0.158399  0  0.995634  0
H  H9  1  0.09220117  0.76735773  0.82480726  1  0  0.138365  0  0.937957  0  0  0.159899  0  0.995079  0  0  0.161871  0  0.994311  0  0  0.10283  0.158452  0  0.995608  0
H  H10  1  0.73075610  0.27862898  0.24946006  1  0  0.136475  0  0.948546  0  0  0.152499  0  1.013511  0  0  0.154102  0  1.013829  0  0  0.09691  0.151322  0  1.013312  0
H  H11  1  0.26923884  0.72137281  0.75053621  1  0  0.136551  0  0.948551  0  0  0.152546  0  1.013541  0  0  0.154148  0  1.013862  0  0  0.096919  0.151369  0  1.013346  0
H  H12  1  0.45954379  0.54453269  0.15592178  1  0  0.120954  0  0.940267  0  0  0.133083  0  1.004141  0  0  0.134653  0  1.004047  0  0  0.10217  0.131957  0  1.004273  0
H  H13  1  0.54044996  0.45546898  0.84408095  1  0  0.120958  0  0.940235  0  0  0.13312  0  1.004095  0  0  0.13469  0  1.004002  0  0  0.102176  0.131993  0  1.004229  0
H  H14  1  0.25261205  0.54196557  0.21153955  1  0  0.1252  0  0.946166  0  0  0.133652  0  1.013117  0  0  0.136319  0  1.011126  0  0  0.10276  0.131765  0  1.014506  0
H  H15  1  0.74738487  0.45804153  0.78846639  1  0  0.125165  0  0.946147  0  0  0.13363  0  1.013116  0  0  0.1363  0  1.011122  0  0  0.102765  0.131743  0  1.014507  0
H  H16  1  0.81395063  0.70305457  0.58357259  1  0  0.139146  0  0.968271  0  0  0.150763  0  1.043749  0  0  0.153703  0  1.042306  0  0  0.096413  0.148633  0  1.044773  0
H  H17  1  0.18605547  0.29693714  0.41642656  1  0  0.139074  0  0.968289  0  0  0.150747  0  1.04372  0  0  0.153687  0  1.04228  0  0  0.096434  0.148618  0  1.044742  0
H  H18  1  0.98062512  0.74024030  0.60875133  1  0  0.114795  0  0.957356  0  0  0.131855  0  1.025836  0  0  0.133164  0  1.02614  0  0  0.089188  0.130919  0  1.02563  0
H  H19  1  0.01937296  0.25975863  0.39125182  1  0  0.114795  0  0.957402  0  0  0.131853  0  1.025884  0  0  0.133167  0  1.026186  0  0  0.089206  0.130918  0  1.025676  0
H  H20  1  0.95154192  0.58605840  0.67096140  1  0  0.124131  0  0.94446  0  0  0.142153  0  1.00901  0  0  0.144365  0  1.007625  0  0  0.092027  0.140535  0  1.010047  0
H  H21  1  0.04846696  0.41393601  0.32904060  1  0  0.124039  0  0.944366  0  0  0.142098  0  1.008888  0  0  0.144308  0  1.007505  0  0  0.092015  0.140485  0  1.00992  0
H  H22  1  0.80242364  0.88712114  0.29894852  1  0  0.142351  0  0.936233  0  0  0.15401  0  0.996982  0  0  0.156419  0  0.995959  0  0  0.115747  0.152336  0  0.997666  0
H  H23  1  0.19757905  0.11287421  0.70105115  1  0  0.142355  0  0.936168  0  0  0.153968  0  0.996979  0  0  0.156377  0  0.995955  0  0  0.115731  0.152294  0  0.997663  0
H  H24  1  0.74100805  0.04970960  0.23945838  1  0  0.156391  0  0.949126  0  0  0.163048  0  1.015673  0  0  0.166833  0  1.013575  0  0  0.118449  0.160403  0  1.017176  0
H  H25  1  0.25898804  0.95028383  0.76054490  1  0  0.15636  0  0.949204  0  0  0.163038  0  1.015709  0  0  0.166823  0  1.013611  0  0  0.118432  0.160391  0  1.01722  0
H  H26  1  0.29539615  0.27156961  0.56182461  1  0  0.133597  0  0.978947  0  0  0.145513  0  1.052405  0  0  0.148402  0  1.051035  0  0  0.095503  0.143409  0  1.053368  0
H  H27  1  0.70459907  0.72843145  0.43816218  1  0  0.133662  0  0.97891  0  0  0.145563  0  1.052312  0  0  0.148449  0  1.050944  0  0  0.095492  0.143458  0  1.053275  0
H  H28  1  0.47213117  0.31801588  0.56493989  1  0  0.095256  0  1.001031  0  0  0.1049  0  1.084947  0  0  0.105836  0  1.085631  0  0  0.074858  0.104245  0  1.084465  0
H  H29  1  0.52786986  0.68198170  0.43503837  1  0  0.095349  0  1.001139  0  0  0.105  0  1.084983  0  0  0.105935  0  1.085671  0  0  0.074901  0.104345  0  1.084502  0
H  H30  1  0.42786646  0.17793479  0.65933489  1  0  0.14165  0  0.937742  0  0  0.165303  0  0.987965  0  0  0.167958  0  0.986156  0  0  0.099801  0.163366  0  0.989247  0
H  H31  1  0.57211944  0.82207800  0.34065862  1  0  0.141757  0  0.937611  0  0  0.165331  0  0.987896  0  0  0.167985  0  0.98609  0  0  0.099811  0.163398  0  0.989173  0
H  H32  1  0.12221558  0.26352768  0.99532910  1  0  0.403008  0  0.91779  0  0  0.360239  0  1.002446  0  0  0.371198  0  0.986732  0  0  0.288853  0.352648  0  1.013378  0
H  H33  1  0.87779123  0.73647416  0.00466635  1  0  0.402909  0  0.917907  0  0  0.360191  0  1.002492  0  0  0.371147  0  0.986782  0  0  0.288819  0.3526  0  1.013421  0
H  H34  1  0.97919932  0.23183686  0.95797285  1  0  0.452571  0  0.836853  0  0  0.421689  0  0.899912  0  0  0.432765  0  0.883601  0  0  0.305082  0.413879  0  0.911533  0
H  H35  1  0.02080222  0.76816677  0.04202402  1  0  0.452577  0  0.836846  0  0  0.421696  0  0.899905  0  0  0.432771  0  0.883594  0  0  0.305102  0.413888  0  0.911522  0
H  H36  1  0.23694248  0.22515773  0.83351609  1  0  0.428588  0  0.824837  0  0  0.412701  0  0.87638  0  0  0.421479  0  0.866737  0  0  0.323318  0.406301  0  0.884126  0
H  H37  1  0.76305878  0.77483865  0.16647715  1  0  0.42871  0  0.824564  0  0  0.412797  0  0.876174  0  0  0.421573  0  0.866531  0  0  0.323321  0.406394  0  0.883929  0
H  H38  1  0.42572802  0.18970927  0.83697346  1  0  0.449477  0  0.844653  0  0  0.417226  0  0.910139  0  0  0.428664  0  0.893471  0  0  0.304131  0.409156  0  0.922023  0
H  H39  1  0.57426981  0.81029067  0.16302450  1  0  0.449473  0  0.844677  0  0  0.417225  0  0.910159  0  0  0.428663  0  0.89349  0  0  0.3041  0.409155  0  0.922044  0
C  C40  1  0.53351725  0.87788032  0.88975295  1  0  0.750107  0  3.831765  0  0  0.708  0  4.121977  0  0  0.740938  0  4.118935  0  0  0.22018  0.685453  0  4.126698  0
C  C41  1  0.46647679  0.12212872  0.11024642  1  0  0.750252  0  3.832018  0  0  0.708172  0  4.1221  0  0  0.741108  0  4.119059  0  0  0.220218  0.68563  0  4.126821  0
C  C42  1  0.66519205  0.83394704  0.81691041  1  0  -0.295515  0  3.572515  0  0  -0.3234  0  3.815606  0  0  -0.327273  0  3.818844  0  0  -0.135444  -0.320545  0  3.812916  0
C  C43  1  0.33479658  0.16606009  0.18309240  1  0  -0.295643  0  3.572709  0  0  -0.323358  0  3.815553  0  0  -0.327247  0  3.818784  0  0  -0.135476  -0.320525  0  3.812896  0
C  C44  1  0.73059690  0.59144592  0.95145855  1  0  0.067146  0  3.811627  0  0  0.056531  0  4.127832  0  0  0.067197  0  4.142938  0  0  0.11519  0.049389  0  4.117347  0
C  C45  1  0.26939740  0.40856220  0.04854110  1  0  0.067166  0  3.811607  0  0  0.056499  0  4.12788  0  0  0.067167  0  4.142986  0  0  0.115111  0.049354  0  4.117395  0
C  C46  1  0.80521153  0.42474736  0.11181920  1  0  0.224527  0  3.717251  0  0  0.224698  0  4.011238  0  0  0.234589  0  4.026494  0  0  0.126145  0.217925  0  4.000838  0
C  C47  1  0.19478126  0.57524520  0.88818134  1  0  0.224503  0  3.717327  0  0  0.224723  0  4.011217  0  0  0.234625  0  4.026455  0  0  0.12613  0.217942  0  4.000833  0
C  C48  1  0.84220945  0.30628042  0.20146684  1  0  -0.365323  0  3.706942  0  0  -0.44462  0  3.940124  0  0  -0.448397  0  3.947778  0  0  -0.237497  -0.441683  0  3.934776  0
C  C49  1  0.15777996  0.69372410  0.79852916  1  0  -0.365491  0  3.706883  0  0  -0.444836  0  3.940119  0  0  -0.448617  0  3.947766  0  0  -0.237546  -0.441908  0  3.934773  0
C  C50  1  0.31329267  0.72088195  0.14328256  1  0  0.723067  0  3.863452  0  0  0.672516  0  4.169959  0  0  0.704772  0  4.167219  0  0  0.203326  0.650181  0  4.174157  0
C  C51  1  0.68670834  0.27912341  0.85671932  1  0  0.723007  0  3.86357  0  0  0.672695  0  4.169709  0  0  0.704949  0  4.166963  0  0  0.203421  0.650358  0  4.173909  0
C  C52  1  0.35684208  0.58214233  0.20145873  1  0  -0.297088  0  3.646696  0  0  -0.328414  0  3.900584  0  0  -0.331497  0  3.904139  0  0  -0.148683  -0.326162  0  3.897766  0
C  C53  1  0.64315852  0.41786020  0.79854767  1  0  -0.297043  0  3.646725  0  0  -0.328471  0  3.900509  0  0  -0.331555  0  3.904063  0  0  -0.148709  -0.326216  0  3.89769  0
C  C54  1  0.25215531  0.58301078  0.39066218  1  0  0.078066  0  3.800031  0  0  0.078413  0  4.103721  0  0  0.087979  0  4.118515  0  0  0.114744  0.071874  0  4.093602  0
C  C55  1  0.74786598  0.41698998  0.60934361  1  0  0.07837  0  3.799485  0  0  0.078551  0  4.103438  0  0  0.088119  0  4.118231  0  0  0.114771  0.072013  0  4.093316  0
C  C56  1  0.04350319  0.64144482  0.51082162  1  0  0.224136  0  3.715808  0  0  0.223696  0  4.007782  0  0  0.233444  0  4.024561  0  0  0.12683  0.217028  0  3.996329  0
C  C57  1  0.95651006  0.35855511  0.48917925  1  0  0.224329  0  3.715496  0  0  0.223882  0  4.007477  0  0  0.233648  0  4.024237  0  0  0.126875  0.217201  0  3.996039  0
C  C58  1  0.94154308  0.66858287  0.59859533  1  0  -0.377588  0  3.749086  0  0  -0.459784  0  3.992764  0  0  -0.464264  0  4.000828  0  0  -0.243092  -0.456401  0  3.987162  0
C  C59  1  0.05846224  0.33141150  0.40140853  1  0  -0.377487  0  3.749015  0  0  -0.459784  0  3.992745  0  0  -0.464266  0  4.000774  0  0  -0.243143  -0.456401  0  3.98714  0
C  C60  1  0.98236705  0.97407329  0.18725423  1  0  0.753234  0  3.828504  0  0  0.708967  0  4.121729  0  0  0.742635  0  4.117026  0  0  0.216267  0.685801  0  4.127754  0
C  C61  1  0.01763196  0.02592663  0.81274498  1  0  0.75313  0  3.828784  0  0  0.708907  0  4.121931  0  0  0.742576  0  4.117228  0  0  0.216261  0.685738  0  4.127955  0
C  C62  1  0.84290028  0.97396189  0.27127606  1  0  -0.307207  0  3.579123  0  0  -0.335975  0  3.822746  0  0  -0.340714  0  3.826782  0  0  -0.141749  -0.332679  0  3.819786  0
C  C63  1  0.15709859  0.02603432  0.72872587  1  0  -0.307122  0  3.579162  0  0  -0.335868  0  3.822771  0  0  -0.340605  0  3.826801  0  0  -0.141712  -0.332571  0  3.819812  0
C  C64  1  0.72277504  0.06457682  0.42102669  1  0  0.070885  0  3.839298  0  0  0.069276  0  4.148653  0  0  0.079839  0  4.163052  0  0  0.111766  0.062094  0  4.138771  0
C  C65  1  0.27723318  0.93541582  0.57897185  1  0  0.070753  0  3.839843  0  0  0.069135  0  4.149226  0  0  0.079698  0  4.163626  0  0  0.111692  0.061953  0  4.139345  0
C  C66  1  0.51904837  0.17581300  0.50912371  1  0  0.223706  0  3.730189  0  0  0.223055  0  4.021854  0  0  0.23271  0  4.038389  0  0  0.122011  0.216471  0  4.010534  0
C  C67  1  0.48094412  0.82417221  0.49087879  1  0  0.224273  0  3.729372  0  0  0.223428  0  4.021267  0  0  0.233083  0  4.037796  0  0  0.122246  0.216846  0  4.009955  0
C  C68  1  0.42290619  0.23889186  0.57716360  1  0  -0.374114  0  3.73  0  0  -0.449136  0  3.96822  0  0  -0.453306  0  3.974754  0  0  -0.247247  -0.445897  0  3.963511  0
C  C69  1  0.57708888  0.76110551  0.42282522  1  0  -0.374548  0  3.729713  0  0  -0.449428  0  3.968045  0  0  -0.453595  0  3.974577  0  0  -0.247351  -0.446187  0  3.963333  0
S  S70  1  0.66549329  0.68128381  0.83026093  1  0  0.098433  0  2.453855  0  0  0.088342  0  2.803092  0  0  0.084728  0  2.801713  0  0  0.06028  0.091014  0  2.803797  0
S  S71  1  0.33449653  0.31872336  0.16974034  1  0  0.098424  0  2.453892  0  0  0.088319  0  2.803033  0  0  0.084699  0  2.80167  0  0  0.060286  0.091002  0  2.803743  0
S  S72  1  0.71060618  0.43928023  0.01078648  1  0  0.089712  0  2.530741  0  0  0.090736  0  2.866777  0  0  0.090785  0  2.866602  0  0  0.123874  0.090141  0  2.86717  0
S  S73  1  0.28937837  0.56072880  0.98921270  1  0  0.089725  0  2.530619  0  0  0.090754  0  2.866668  0  0  0.090796  0  2.866486  0  0  0.12394  0.090163  0  2.867064  0
S  S74  1  0.43022597  0.53125559  0.32457092  1  0  0.076019  0  2.405172  0  0  0.068993  0  2.732294  0  0  0.065889  0  2.730894  0  0  0.035521  0.071312  0  2.733209  0
S  S75  1  0.56978647  0.46873878  0.67543342  1  0  0.075969  0  2.405  0  0  0.068995  0  2.732222  0  0  0.065892  0  2.73082  0  0  0.035538  0.071308  0  2.733141  0
S  S76  1  0.24881992  0.57058407  0.51557151  1  0  0.043681  0  2.4772  0  0  0.051325  0  2.789016  0  0  0.051072  0  2.788381  0  0  0.095168  0.050899  0  2.789985  0
S  S77  1  0.75117719  0.42937610  0.48445043  1  0  0.043528  0  2.477079  0  0  0.05124  0  2.788957  0  0  0.050977  0  2.788315  0  0  0.095169  0.050816  0  2.78993  0
S  S78  1  0.90414143  0.98735514  0.37758720  1  0  0.071241  0  2.467636  0  0  0.062008  0  2.814834  0  0  0.057989  0  2.814254  0  0  0.035497  0.064993  0  2.815249  0
S  S79  1  0.09586378  0.01264389  0.62241154  1  0  0.071257  0  2.467656  0  0  0.062055  0  2.814816  0  0  0.058035  0  2.814234  0  0  0.035533  0.065042  0  2.815233  0
S  S80  1  0.72022735  0.09917945  0.52635376  1  0  0.046588  0  2.46218  0  0  0.051599  0  2.7759  0  0  0.051726  0  2.775242  0  0  0.090804  0.050939  0  2.776735  0
S  S81  1  0.27979296  0.90086307  0.47361994  1  0  0.046582  0  2.462135  0  0  0.051656  0  2.775957  0  0  0.051782  0  2.775298  0  0  0.090854  0.050996  0  2.776795  0
N  N82  1  0.79901328  0.62262507  0.00761824  1  0  -0.231377  0  3.126327  0  0  -0.186538  0  3.397336  0  0  -0.19736  0  3.412593  0  0  -0.214695  -0.1791  0  3.386659  0
N  N83  1  0.20098997  0.37737671  0.99237977  1  0  -0.231426  0  3.126165  0  0  -0.186558  0  3.397196  0  0  -0.197381  0  3.412451  0  0  -0.214679  -0.179119  0  3.386519  0
N  N84  1  0.84118124  0.52737336  0.09875105  1  0  -0.239107  0  2.974857  0  0  -0.228114  0  3.251364  0  0  -0.236583  0  3.265607  0  0  -0.230084  -0.222084  0  3.241401  0
N  N85  1  0.15882438  0.47262844  0.90124665  1  0  -0.239024  0  2.975096  0  0  -0.22803  0  3.251561  0  0  -0.236504  0  3.265798  0  0  -0.230063  -0.221997  0  3.241597  0
N  N86  1  0.11091888  0.63479718  0.35343660  1  0  -0.206663  0  3.003204  0  0  -0.187263  0  3.284773  0  0  -0.195225  0  3.299285  0  0  -0.220851  -0.181607  0  3.274524  0
N  N87  1  0.88911668  0.36524135  0.64655671  1  0  -0.206648  0  3.002968  0  0  -0.187211  0  3.284595  0  0  -0.195172  0  3.299109  0  0  -0.220796  -0.181556  0  3.274344  0
N  N88  1  0.99326890  0.66759230  0.42262145  1  0  -0.225033  0  3.02767  0  0  -0.199987  0  3.311665  0  0  -0.210749  0  3.328219  0  0  -0.207885  -0.192345  0  3.300015  0
N  N89  1  0.00676362  0.33244442  0.57737012  1  0  -0.225259  0  3.027475  0  0  -0.200219  0  3.311496  0  0  -0.210991  0  3.328048  0  0  -0.20801  -0.192573  0  3.299849  0
N  N90  1  0.58331867  0.10735810  0.38113643  1  0  -0.241098  0  3.041097  0  0  -0.221237  0  3.335861  0  0  -0.230711  0  3.351194  0  0  -0.231597  -0.214611  0  3.325213  0
N  N91  1  0.41666610  0.89258267  0.61889468  1  0  -0.241146  0  3.041103  0  0  -0.221265  0  3.335804  0  0  -0.230736  0  3.351117  0  0  -0.23161  -0.214635  0  3.325162  0
N  N92  1  0.46798419  0.17087491  0.43207220  1  0  -0.240554  0  3.022287  0  0  -0.221828  0  3.31564  0  0  -0.232027  0  3.332074  0  0  -0.221324  -0.214608  0  3.304141  0
N  N93  1  0.53199543  0.82906322  0.56795286  1  0  -0.240787  0  3.022016  0  0  -0.222  0  3.315454  0  0  -0.232194  0  3.331869  0  0  -0.221447  -0.214769  0  3.303927  0
O  O94  1  0.39147855  0.86140801  0.90094752  1  0  -0.675058  0  1.971331  0  0  -0.628804  0  2.208809  0  0  -0.657478  0  2.201262  0  0  -0.356241  -0.612028  0  2.212874  0
O  O95  1  0.60850848  0.13859634  0.09905788  1  0  -0.675089  0  1.971492  0  0  -0.628888  0  2.208951  0  0  -0.657557  0  2.201399  0  0  -0.356317  -0.612113  0  2.213013  0
O  O96  1  0.56974440  0.93461967  0.93600119  1  0  -0.798206  0  2.077747  0  0  -0.738319  0  2.335487  0  0  -0.774177  0  2.323695  0  0  -0.425108  -0.720485  0  2.341978  0
O  O97  1  0.43024823  0.06539861  0.06399298  1  0  -0.798181  0  2.077775  0  0  -0.738327  0  2.33553  0  0  -0.774176  0  2.323711  0  0  -0.424966  -0.720493  0  2.342019  0
O  O98  1  0.40400108  0.78830956  0.14089956  1  0  -0.714181  0  2.032318  0  0  -0.655164  0  2.266916  0  0  -0.685528  0  2.258218  0  0  -0.361255  -0.637128  0  2.272252  0
O  O99  1  0.59600111  0.21169572  0.85910706  1  0  -0.714211  0  2.032352  0  0  -0.65529  0  2.266876  0  0  -0.685649  0  2.258175  0  0  -0.361385  -0.63726  0  2.272214  0
O  O100  1  0.18984497  0.76634271  0.09385176  1  0  -0.697271  0  2.043158  0  0  -0.644115  0  2.287375  0  0  -0.673813  0  2.278731  0  0  -0.351388  -0.62634  0  2.292861  0
O  O101  1  0.81016301  0.23365899  0.90615123  1  0  -0.697251  0  2.04339  0  0  -0.644159  0  2.287447  0  0  -0.673862  0  2.27881  0  0  -0.351346  -0.626381  0  2.292929  0
O  O102  1  0.94913618  0.97635066  0.10338475  1  0  -0.805608  0  2.087659  0  0  -0.742795  0  2.345418  0  0  -0.779413  0  2.334163  0  0  -0.445307  -0.724392  0  2.351559  0
O  O103  1  0.05085980  0.02364741  0.89661551  1  0  -0.805571  0  2.087789  0  0  -0.742775  0  2.345544  0  0  -0.779395  0  2.334289  0  0  -0.445284  -0.724376  0  2.351687  0
O  O104  1  0.12476441  0.97104804  0.19828414  1  0  -0.662182  0  1.927326  0  0  -0.61671  0  2.159196  0  0  -0.644024  0  2.149658  0  0  -0.351634  -0.600822  0  2.164692  0
O  O105  1  0.87523027  0.02895463  0.80171394  1  0  -0.662166  0  1.927369  0  0  -0.616727  0  2.159225  0  0  -0.64404  0  2.149691  0  0  -0.351665  -0.600839  0  2.164719  0
O  O106  1  0.08007176  0.19721924  0.99184728  1  0  -0.939515  0  1.890703  0  0  -0.885696  0  2.095474  0  0  -0.910135  0  2.059744  0  0  -0.643046  -0.872251  0  2.118129  0
O  O107  1  0.91993097  0.80278441  0.00814874  1  0  -0.939454  0  1.890839  0  0  -0.88566  0  2.095526  0  0  -0.910086  0  2.059782  0  0  -0.643036  -0.872212  0  2.118181  0
O  O108  1  0.33075395  0.15806865  0.83719997  1  0  -0.87329  0  1.817586  0  0  -0.826185  0  1.994011  0  0  -0.849173  0  1.964578  0  0  -0.60994  -0.813397  0  2.01274  0
O  O109  1  0.66924890  0.84193044  0.16279488  1  0  -0.87344  0  1.817366  0  0  -0.826316  0  1.993766  0  0  -0.849301  0  1.964337  0  0  -0.609947  -0.813542  0  2.012528  0
