# generated using pymatgen
data_LaH5(C4O3)2
_symmetry_space_group_name_H-M   'P 1'
_cell_length_a   7.27635452
_cell_length_b   9.97691293
_cell_length_c   11.64061440
_cell_angle_alpha   90.00010487
_cell_angle_beta   90.00003742
_cell_angle_gamma   91.35101615
_symmetry_Int_Tables_number   1
_chemical_formula_structural   LaH5(C4O3)2
_chemical_formula_sum   'La4 H20 C32 O24'
_cell_volume   844.82195235
_cell_formula_units_Z   4
loop_
 _symmetry_equiv_pos_site_id
 _symmetry_equiv_pos_as_xyz
  1  'x, y, z'
loop_
 _atom_site_type_symbol
 _atom_site_label
 _atom_site_symmetry_multiplicity
 _atom_site_fract_x
 _atom_site_fract_y
 _atom_site_fract_z
 _atom_site_occupancy
 _atom_site_pbe_bader_spin_density
 _atom_site_pbe_cm5_charge
 _atom_site_pbe_ddec_charge
 _atom_site_pbe_ddec_spin_density
 _atom_site_pbe_ddec_sum_bond_order
 _atom_site_pbe_magmom
La  La0  1  0.09263294  0.23653611  0.31112467  1  0  1.419226  1.881967  0  2.398295  0
La  La1  1  0.40736608  0.76346135  0.81112538  1  0  1.419212  1.881951  0  2.398282  0
La  La2  1  0.90736656  0.76346242  0.68887765  1  0  1.41921  1.881924  0  2.398317  0
La  La3  1  0.59262932  0.23653818  0.18887779  1  0  1.41922  1.881986  0  2.398212  0
H  H4  1  0.00672942  0.72140367  0.28492624  1  0  0.106877  0.115364  0  1.047769  0
H  H5  1  0.49327094  0.27859373  0.78492710  1  0  0.106877  0.115422  0  1.047686  0
H  H6  1  0.99327838  0.27859686  0.71507178  1  0  0.106861  0.115376  0  1.047758  0
H  H7  1  0.50672054  0.72141182  0.21507007  1  0  0.106874  0.115371  0  1.047768  0
H  H8  1  0.78518588  0.52728922  0.98364195  1  0  0.11893  0.127725  0  0.98865  0
H  H9  1  0.71481016  0.47270702  0.48364509  1  0  0.118935  0.127757  0  0.988732  0
H  H10  1  0.21480544  0.47271132  0.01635779  1  0  0.118887  0.127666  0  0.988757  0
H  H11  1  0.28518789  0.52728951  0.51635379  1  0  0.118944  0.127742  0  0.988721  0
H  H12  1  0.80092315  0.95841825  0.00418969  1  0  0.115709  0.123707  0  1.015682  0
H  H13  1  0.69908754  0.04157893  0.50419521  1  0  0.115703  0.123667  0  1.015704  0
H  H14  1  0.19908060  0.04158429  0.99580834  1  0  0.11569  0.123692  0  1.015762  0
H  H15  1  0.30091879  0.95841859  0.49581140  1  0  0.115711  0.123715  0  1.01571  0
H  H16  1  0.08432145  0.14088673  0.58304667  1  0  0.30315  0.405441  0  0.927036  0
H  H17  1  0.41567892  0.85911725  0.08304619  1  0  0.303139  0.405451  0  0.927026  0
H  H18  1  0.91568635  0.85911380  0.41695393  1  0  0.303129  0.405445  0  0.927046  0
H  H19  1  0.58430981  0.14088830  0.91695870  1  0  0.30311  0.405406  0  0.927097  0
H  H20  1  0.26058402  0.23307143  0.55841062  1  0  0.323561  0.40454  0  0.897448  0
H  H21  1  0.23941626  0.76693049  0.05840735  1  0  0.323551  0.40458  0  0.89741  0
H  H22  1  0.73942516  0.76692910  0.44159427  1  0  0.323554  0.404544  0  0.897616  0
H  H23  1  0.76056966  0.23307306  0.94159411  1  0  0.32356  0.404571  0  0.897626  0
C  C24  1  0.92831011  0.97876952  0.22015943  1  0  0.213773  0.583408  0  4.172318  0
C  C25  1  0.57170632  0.02122813  0.72016745  1  0  0.213797  0.583564  0  4.172092  0
C  C26  1  0.07169626  0.02122900  0.77983945  1  0  0.213812  0.583527  0  4.172221  0
C  C27  1  0.42829743  0.97877441  0.27983831  1  0  0.213843  0.583559  0  4.172122  0
C  C28  1  0.90245040  0.85375542  0.15258300  1  0  -0.0265  -0.046039  0  4.04825  0
C  C29  1  0.59756183  0.14624209  0.65259122  1  0  -0.02644  -0.045895  0  4.04807  0
C  C30  1  0.09755466  0.14624511  0.84741245  1  0  -0.026464  -0.046007  0  4.048299  0
C  C31  1  0.40243907  0.85375744  0.34741282  1  0  -0.026517  -0.046035  0  4.048203  0
C  C32  1  0.94480785  0.72949108  0.20031750  1  0  -0.09308  -0.155687  0  3.971709  0
C  C33  1  0.55520018  0.27050252  0.70032075  1  0  -0.093051  -0.155777  0  3.971654  0
C  C34  1  0.05519436  0.27050644  0.79967966  1  0  -0.093092  -0.155746  0  3.971707  0
C  C35  1  0.44480079  0.72949901  0.29967899  1  0  -0.093028  -0.155669  0  3.971595  0
C  C36  1  0.90071432  0.61200502  0.13952336  1  0  -0.016795  -0.025281  0  4.006898  0
C  C37  1  0.59928952  0.38798846  0.63952509  1  0  -0.016776  -0.025206  0  4.00681  0
C  C38  1  0.09928377  0.38799251  0.86047466  1  0  -0.016774  -0.025182  0  4.006762  0
C  C39  1  0.40071275  0.61201107  0.36047380  1  0  -0.016768  -0.0252  0  4.006669  0
C  C40  1  0.93698405  0.48135923  0.19619382  1  0  0.217941  0.594447  0  4.174292  0
C  C41  1  0.56301442  0.51863637  0.69619745  1  0  0.217901  0.594389  0  4.17423  0
C  C42  1  0.06300995  0.51863930  0.80380249  1  0  0.217955  0.59449  0  4.174308  0
C  C43  1  0.43698655  0.48136516  0.30379800  1  0  0.217916  0.594508  0  4.174138  0
C  C44  1  0.82211991  0.61885441  0.03009614  1  0  -0.068929  -0.168502  0  3.857631  0
C  C45  1  0.67788807  0.38114283  0.53009874  1  0  -0.068977  -0.168609  0  3.857867  0
C  C46  1  0.17787553  0.38114613  0.96990189  1  0  -0.068903  -0.168504  0  3.857668  0
C  C47  1  0.32211696  0.61885669  0.46990014  1  0  -0.069042  -0.168694  0  3.857831  0
C  C48  1  0.79308213  0.74392303  0.97783744  1  0  0.086089  0.345426  0  4.120021  0
C  C49  1  0.70692352  0.25607319  0.47784282  1  0  0.08611  0.345476  0  4.120202  0
C  C50  1  0.20691733  0.25607450  0.02215801  1  0  0.0861  0.345484  0  4.119974  0
C  C51  1  0.29308153  0.74392734  0.52216122  1  0  0.086224  0.345661  0  4.120087  0
C  C52  1  0.82990885  0.86102878  0.04132769  1  0  -0.07715  -0.179711  0  3.877136  0
C  C53  1  0.67010467  0.13896949  0.54133507  1  0  -0.077169  -0.179769  0  3.877175  0
C  C54  1  0.17009343  0.13897075  0.95866861  1  0  -0.07719  -0.179803  0  3.877345  0
C  C55  1  0.32990314  0.86103104  0.45867068  1  0  -0.077207  -0.179829  0  3.877229  0
O  O56  1  0.99050058  0.97624989  0.32303889  1  0  -0.331453  -0.591136  0  2.228893  0
O  O57  1  0.50951036  0.02374499  0.82304259  1  0  -0.33149  -0.591235  0  2.228904  0
O  O58  1  0.00950032  0.02374964  0.67696085  1  0  -0.331438  -0.59116  0  2.228873  0
O  O59  1  0.49049879  0.97625454  0.17696144  1  0  -0.331451  -0.591187  0  2.228802  0
O  O60  1  0.89074772  0.09195851  0.17336739  1  0  -0.399447  -0.658218  0  2.344861  0
O  O61  1  0.60925348  0.90803704  0.67337078  1  0  -0.399439  -0.65832  0  2.344764  0
O  O62  1  0.10925731  0.90804102  0.82663235  1  0  -0.39946  -0.658278  0  2.344826  0
O  O63  1  0.39073915  0.09196149  0.32663240  1  0  -0.399519  -0.658364  0  2.344928  0
O  O64  1  0.02943365  0.48083471  0.28874459  1  0  -0.360003  -0.574918  0  2.215089  0
O  O65  1  0.47056236  0.51915568  0.78874323  1  0  -0.360033  -0.57496  0  2.21515  0
O  O66  1  0.97056155  0.51915880  0.71125430  1  0  -0.360025  -0.574969  0  2.215131  0
O  O67  1  0.52943459  0.48084886  0.21125136  1  0  -0.360042  -0.575002  0  2.215033  0
O  O68  1  0.87808937  0.37039983  0.15059819  1  0  -0.407174  -0.659902  0  2.326198  0
O  O69  1  0.62191043  0.62959567  0.65060201  1  0  -0.407127  -0.659809  0  2.326063  0
O  O70  1  0.12190047  0.62959770  0.84939812  1  0  -0.407157  -0.659875  0  2.326215  0
O  O71  1  0.37809611  0.37040787  0.34939343  1  0  -0.40711  -0.659878  0  2.326183  0
O  O72  1  0.73029837  0.75181996  0.86921258  1  0  -0.509229  -0.728492  0  2.395598  0
O  O73  1  0.76970033  0.24817702  0.36921712  1  0  -0.509257  -0.728522  0  2.395467  0
O  O74  1  0.26969432  0.24818057  0.13078372  1  0  -0.509254  -0.728516  0  2.395415  0
O  O75  1  0.23030319  0.75181850  0.63078520  1  0  -0.509265  -0.728558  0  2.395432  0
O  O76  1  0.14237594  0.20454131  0.52606606  1  0  -0.615489  -0.794111  0  2.012058  0
O  O77  1  0.35762430  0.79546054  0.02606460  1  0  -0.615469  -0.794154  0  2.011999  0
O  O78  1  0.85763059  0.79546223  0.47393797  1  0  -0.615456  -0.794123  0  2.012141  0
O  O79  1  0.64236842  0.20454100  0.97393943  1  0  -0.615442  -0.794117  0  2.01215  0
