# generated using pymatgen
data_Ag2H6C3(BrN)2
_symmetry_space_group_name_H-M   'P 1'
_cell_length_a   8.66084131
_cell_length_b   9.74787847
_cell_length_c   16.90600000
_cell_angle_alpha   90.00000000
_cell_angle_beta   90.00000000
_cell_angle_gamma   90.00000000
_symmetry_Int_Tables_number   1
_chemical_formula_structural   Ag2H6C3(BrN)2
_chemical_formula_sum   'Ag16 H48 C24 Br16 N16'
_cell_volume   1427.28615137
_cell_formula_units_Z   8
loop_
 _symmetry_equiv_pos_site_id
 _symmetry_equiv_pos_as_xyz
  1  'x, y, z'
loop_
 _atom_site_type_symbol
 _atom_site_label
 _atom_site_symmetry_multiplicity
 _atom_site_fract_x
 _atom_site_fract_y
 _atom_site_fract_z
 _atom_site_occupancy
 _atom_site_hle17_bader_spin_density
 _atom_site_hle17_ddec_charge
 _atom_site_hle17_ddec_spin_density
 _atom_site_hle17_ddec_sum_bond_order
 _atom_site_hle17_magmom
 _atom_site_hse06_10hf_bader_spin_density
 _atom_site_hse06_10hf_ddec_charge
 _atom_site_hse06_10hf_ddec_spin_density
 _atom_site_hse06_10hf_ddec_sum_bond_order
 _atom_site_hse06_10hf_magmom
 _atom_site_hse06_bader_spin_density
 _atom_site_hse06_ddec_charge
 _atom_site_hse06_ddec_spin_density
 _atom_site_hse06_ddec_sum_bond_order
 _atom_site_hse06_magmom
 _atom_site_pbe_bader_charge
 _atom_site_pbe_bader_spin_density
 _atom_site_pbe_cm5_charge
 _atom_site_pbe_ddec_charge
 _atom_site_pbe_ddec_spin_density
 _atom_site_pbe_ddec_sum_bond_order
 _atom_site_pbe_magmom
Ag  Ag0  1  0.15565924  0.25000107  0.36350940  1  0  0.456219  0  1.572757  0  0  0.361034  0  2.002773  0  0  0.389869  0  1.956243  0  0.474891  0  0.264397  0.334593  0  2.034768  0
Ag  Ag1  1  0.34433953  0.75000114  0.86350940  1  0  0.456237  0  1.572713  0  0  0.361053  0  2.00272  0  0  0.389889  0  1.956189  0  0.474909  0  0.2644  0.334612  0  2.034712  0
Ag  Ag2  1  0.84433830  0.75000012  0.63648823  1  0  0.456264  0  1.572669  0  0  0.361083  0  2.002667  0  0  0.389919  0  1.956139  0  0.474834  0  0.264424  0.334646  0  2.034661  0
Ag  Ag3  1  0.65566032  0.25000004  0.13649000  1  0  0.456268  0  1.572728  0  0  0.361098  0  2.002704  0  0  0.389932  0  1.956175  0  0.474889  0  0.264416  0.334658  0  2.034696  0
Ag  Ag4  1  0.33840246  0.43065884  0.20166450  1  0  0.461022  0  1.551073  0  0  0.357617  0  1.983954  0  0  0.387193  0  1.93781  0  0.463949  0  0.275459  0.337187  0  2.017087  0
Ag  Ag5  1  0.16159631  0.93065789  0.70166450  1  0  0.461024  0  1.551046  0  0  0.357613  0  1.98393  0  0  0.387191  0  1.937787  0  0.463965  0  0.275451  0.337183  0  2.017062  0
Ag  Ag6  1  0.33840477  0.06934124  0.20166391  1  0  0.461035  0  1.551035  0  0  0.357644  0  1.983908  0  0  0.387221  0  1.937764  0  0.463938  0  0.275461  0.337215  0  2.017038  0
Ag  Ag7  1  0.16159631  0.56934029  0.70166391  1  0  0.461005  0  1.55106  0  0  0.357613  0  1.983921  0  0  0.387189  0  1.937779  0  0.463957  0  0.275458  0.337181  0  2.017054  0
Ag  Ag8  1  0.66159623  0.56934337  0.79833787  1  0  0.461058  0  1.550971  0  0  0.357668  0  1.983833  0  0  0.38724  0  1.937693  0  0.463888  0  0.275465  0.337241  0  2.016964  0
Ag  Ag9  1  0.83840123  0.06934637  0.29833787  1  0  0.461041  0  1.551009  0  0  0.357642  0  1.983882  0  0  0.387219  0  1.93774  0  0.463898  0  0.275468  0.337213  0  2.017014  0
Ag  Ag10  1  0.66159623  0.93065584  0.79833787  1  0  0.461051  0  1.550976  0  0  0.35766  0  1.983841  0  0  0.387237  0  1.937698  0  0.463891  0  0.275466  0.337233  0  2.01697  0
Ag  Ag11  1  0.83840354  0.43065678  0.29833728  1  0  0.461035  0  1.551011  0  0  0.357638  0  1.98388  0  0  0.387213  0  1.937737  0  0.463893  0  0.275456  0.337208  0  2.017013  0
Ag  Ag12  1  0.24912129  0.75000217  0.41942683  1  0  0.437467  0  1.720589  0  0  0.311935  0  2.232987  0  0  0.344117  0  2.177598  0  0.380827  0  0.27246  0.291402  0  2.265658  0
Ag  Ag13  1  0.25087978  0.25000107  0.91942742  1  0  0.437457  0  1.720633  0  0  0.31193  0  2.233041  0  0  0.344108  0  2.177653  0  0.38083  0  0.272463  0.291401  0  2.265708  0
Ag  Ag14  1  0.75087971  0.25000004  0.58057613  1  0  0.437431  0  1.720556  0  0  0.311915  0  2.232922  0  0  0.344098  0  2.177532  0  0.380472  0  0.272451  0.291381  0  2.265595  0
Ag  Ag15  1  0.74912122  0.74999909  0.08057613  1  0  0.437438  0  1.720547  0  0  0.311916  0  2.232921  0  0  0.344096  0  2.177534  0  0.380489  0  0.272456  0.291384  0  2.265591  0
H  H16  1  0.23065196  0.46568800  0.51404827  1  0  0.067114  0  0.944054  0  0  0.075991  0  1.021964  0  0  0.076761  0  1.020682  0  0.074131  0  0.10048  0.074712  0  1.02415  0
H  H17  1  0.26934912  0.96568808  0.01404827  1  0  0.067113  0  0.944063  0  0  0.075986  0  1.021962  0  0  0.076755  0  1.020686  0  0.074123  0  0.100472  0.074707  0  1.024147  0
H  H18  1  0.23065080  0.03431106  0.51404827  1  0  0.067103  0  0.94409  0  0  0.075979  0  1.022012  0  0  0.076751  0  1.02073  0  0.074113  0  0.10046  0.0747  0  1.024198  0
H  H19  1  0.26934797  0.53431113  0.01404827  1  0  0.067111  0  0.944082  0  0  0.075984  0  1.021985  0  0  0.076753  0  1.020709  0  0.074109  0  0.100461  0.074706  0  1.024169  0
H  H20  1  0.76934558  0.53431216  0.48594878  1  0  0.067155  0  0.944059  0  0  0.076024  0  1.021992  0  0  0.0768  0  1.020709  0  0.074137  0  0.10049  0.074745  0  1.024178  0
H  H21  1  0.73065188  0.03431106  0.98595114  1  0  0.067115  0  0.944071  0  0  0.075979  0  1.021995  0  0  0.076751  0  1.020713  0  0.074116  0  0.100465  0.074701  0  1.024178  0
H  H22  1  0.76935020  0.96568910  0.48595114  1  0  0.067096  0  0.94411  0  0  0.075977  0  1.02203  0  0  0.07675  0  1.020746  0  0.074131  0  0.100476  0.074699  0  1.024216  0
H  H23  1  0.73065188  0.46568800  0.98595173  1  0  0.067128  0  0.944045  0  0  0.076002  0  1.021962  0  0  0.076772  0  1.020681  0  0.07413  0  0.100479  0.074723  0  1.024146  0
H  H24  1  0.06331833  0.37345152  0.54570153  1  0  0.072198  0  0.949662  0  0  0.083036  0  1.023263  0  0  0.083633  0  1.022424  0  0.091481  0  0.101412  0.081805  0  1.025053  0
H  H25  1  0.43668275  0.87345057  0.04570153  1  0  0.07222  0  0.949609  0  0  0.083019  0  1.023248  0  0  0.083618  0  1.022411  0  0.091478  0  0.101392  0.081789  0  1.025037  0
H  H26  1  0.06331602  0.12654754  0.54570093  1  0  0.072233  0  0.949595  0  0  0.083029  0  1.023247  0  0  0.083625  0  1.022407  0  0.091455  0  0.101424  0.081802  0  1.025031  0
H  H27  1  0.43668275  0.62654761  0.04570153  1  0  0.072254  0  0.949627  0  0  0.083051  0  1.023265  0  0  0.083652  0  1.022427  0  0.091478  0  0.101404  0.081821  0  1.025055  0
H  H28  1  0.93668037  0.62654761  0.45429611  1  0  0.072208  0  0.949695  0  0  0.083097  0  1.023247  0  0  0.083699  0  1.022412  0  0.091492  0  0.101415  0.081866  0  1.025038  0
H  H29  1  0.56331941  0.12654754  0.95429788  1  0  0.072212  0  0.949673  0  0  0.083044  0  1.023272  0  0  0.083646  0  1.022435  0  0.091496  0  0.101413  0.081812  0  1.025065  0
H  H30  1  0.93668614  0.87345159  0.45429788  1  0  0.072214  0  0.949631  0  0  0.083017  0  1.023264  0  0  0.083614  0  1.022424  0  0.091453  0  0.101389  0.081789  0  1.02505  0
H  H31  1  0.56331941  0.37345152  0.95429788  1  0  0.072216  0  0.949657  0  0  0.083056  0  1.023257  0  0  0.083654  0  1.022417  0  0.091496  0  0.101419  0.081824  0  1.025048  0
H  H32  1  0.46169649  0.37365977  0.68706258  1  0  0.073036  0  0.937781  0  0  0.084767  0  1.010694  0  0  0.085399  0  1.009489  0  0.121067  0  0.104981  0.083555  0  1.01235  0
H  H33  1  0.03830228  0.87365985  0.18706199  1  0  0.073029  0  0.937777  0  0  0.084768  0  1.010691  0  0  0.085399  0  1.009482  0  0.121067  0  0.104985  0.083556  0  1.012345  0
H  H34  1  0.46169649  0.12633929  0.68706258  1  0  0.073034  0  0.937795  0  0  0.084767  0  1.010707  0  0  0.085399  0  1.009504  0  0.121083  0  0.104979  0.083553  0  1.012361  0
H  H35  1  0.03830228  0.62633834  0.18706199  1  0  0.07302  0  0.937779  0  0  0.084756  0  1.010695  0  0  0.085389  0  1.00949  0  0.121068  0  0.104986  0.083544  0  1.012347  0
H  H36  1  0.53830336  0.62634552  0.31293505  1  0  0.073072  0  0.937698  0  0  0.084738  0  1.010668  0  0  0.085368  0  1.00946  0  0.120791  0  0.104948  0.083526  0  1.012324  0
H  H37  1  0.96169757  0.12633826  0.81293742  1  0  0.073003  0  0.9378  0  0  0.084741  0  1.010718  0  0  0.085375  0  1.009517  0  0.12106  0  0.104974  0.08353  0  1.012369  0
H  H38  1  0.53830336  0.87366395  0.31293624  1  0  0.072996  0  0.93782  0  0  0.084765  0  1.01069  0  0  0.085399  0  1.009486  0  0.12109  0  0.104961  0.083551  0  1.012344  0
H  H39  1  0.96169757  0.37365977  0.81293742  1  0  0.073029  0  0.937784  0  0  0.08476  0  1.010708  0  0  0.08539  0  1.009503  0  0.121059  0  0.104981  0.083547  0  1.012361  0
H  H40  1  0.46059036  0.46567363  0.59599018  1  0  0.070556  0  0.918646  0  0  0.082705  0  0.990605  0  0  0.083283  0  0.989477  0  0.082452  0  0.109188  0.082249  0  0.991745  0
H  H41  1  0.03940957  0.96567371  0.09598959  1  0  0.070589  0  0.918614  0  0  0.082723  0  0.990596  0  0  0.083302  0  0.989468  0  0.082442  0  0.109194  0.082271  0  0.991729  0
H  H42  1  0.46058920  0.03432439  0.59598900  1  0  0.070537  0  0.918685  0  0  0.082685  0  0.99065  0  0  0.083264  0  0.989521  0  0.082414  0  0.109172  0.08223  0  0.991784  0
H  H43  1  0.03940957  0.53432447  0.09598959  1  0  0.070573  0  0.918653  0  0  0.082712  0  0.990625  0  0  0.083293  0  0.989498  0  0.082413  0  0.109186  0.082249  0  0.991777  0
H  H44  1  0.53940834  0.53432550  0.40400804  1  0  0.070567  0  0.918631  0  0  0.082708  0  0.990563  0  0  0.083288  0  0.989434  0  0.082461  0  0.109189  0.082252  0  0.991706  0
H  H45  1  0.96059028  0.03432439  0.90401041  1  0  0.070564  0  0.918653  0  0  0.082703  0  0.990632  0  0  0.083285  0  0.989503  0  0.082412  0  0.10918  0.082239  0  0.991789  0
H  H46  1  0.53941180  0.96567679  0.40401100  1  0  0.070558  0  0.918705  0  0  0.082681  0  0.99068  0  0  0.083261  0  0.989553  0  0.082387  0  0.109164  0.082225  0  0.991818  0
H  H47  1  0.96059028  0.46567363  0.90401041  1  0  0.070559  0  0.918643  0  0  0.082712  0  0.990601  0  0  0.083291  0  0.989474  0  0.082444  0  0.109188  0.08226  0  0.991732  0
H  H48  1  0.45729391  0.15894433  0.47154146  1  0  0.07011  0  0.921743  0  0  0.082871  0  0.993689  0  0  0.083531  0  0.992312  0  0.068763  0  0.10824  0.082232  0  0.994843  0
H  H49  1  0.04270601  0.65894441  0.97154146  1  0  0.070112  0  0.921745  0  0  0.082892  0  0.993718  0  0  0.083552  0  0.992341  0  0.068757  0  0.10824  0.082252  0  0.994872  0
H  H50  1  0.45729391  0.34105575  0.47154146  1  0  0.07011  0  0.921742  0  0  0.082869  0  0.993694  0  0  0.083528  0  0.992318  0  0.068764  0  0.108239  0.082228  0  0.99485  0
H  H51  1  0.04270601  0.84105480  0.97154146  1  0  0.070114  0  0.92175  0  0  0.082895  0  0.993721  0  0  0.083555  0  0.992343  0  0.068777  0  0.108242  0.082255  0  0.994874  0
H  H52  1  0.54270709  0.84105685  0.52845854  1  0  0.070081  0  0.921718  0  0  0.082861  0  0.993689  0  0  0.083522  0  0.99231  0  0.06876  0  0.108236  0.082221  0  0.994842  0
H  H53  1  0.95729384  0.34105472  0.02845854  1  0  0.070096  0  0.921745  0  0  0.082862  0  0.993698  0  0  0.083521  0  0.992321  0  0.068771  0  0.108244  0.082222  0  0.994852  0
H  H54  1  0.54270709  0.65894441  0.52845794  1  0  0.070086  0  0.92171  0  0  0.082866  0  0.993679  0  0  0.083526  0  0.992302  0  0.068772  0  0.108246  0.082226  0  0.994835  0
H  H55  1  0.95729384  0.15894433  0.02845854  1  0  0.070091  0  0.921744  0  0  0.082855  0  0.9937  0  0  0.083515  0  0.992322  0  0.068763  0  0.10824  0.082216  0  0.994854  0
H  H56  1  0.23698391  0.24999901  0.72907903  1  0  0.067506  0  0.960395  0  0  0.07585  0  1.038071  0  0  0.076596  0  1.036995  0  0.093518  0  0.09811  0.075498  0  1.037397  0
H  H57  1  0.26301486  0.74999909  0.22907962  1  0  0.06748  0  0.960432  0  0  0.075824  0  1.038108  0  0  0.076572  0  1.03703  0  0.093506  0  0.098101  0.075473  0  1.037432  0
H  H58  1  0.76301825  0.75000422  0.27091920  1  0  0.067461  0  0.960419  0  0  0.07581  0  1.038077  0  0  0.076555  0  1.037003  0  0.0935  0  0.098099  0.075458  0  1.037402  0
H  H59  1  0.73698383  0.24999901  0.77092038  1  0  0.067488  0  0.960411  0  0  0.075824  0  1.038105  0  0  0.076573  0  1.037025  0  0.093499  0  0.098095  0.075473  0  1.037428  0
H  H60  1  0.06620719  0.25000004  0.66847687  1  0  0.066265  0  0.96298  0  0  0.074634  0  1.041268  0  0  0.07543  0  1.039915  0  0.04507  0  0.097507  0.073881  0  1.041855  0
H  H61  1  0.43379042  0.75000012  0.16847687  1  0  0.066209  0  0.963106  0  0  0.074601  0  1.041343  0  0  0.075394  0  1.039994  0  0.045091  0  0.097509  0.07385  0  1.041928  0
H  H62  1  0.93379266  0.75000114  0.33152254  1  0  0.066219  0  0.963025  0  0  0.074587  0  1.041311  0  0  0.075383  0  1.039958  0  0.045064  0  0.097496  0.073835  0  1.041897  0
H  H63  1  0.56620943  0.24999901  0.83152313  1  0  0.066234  0  0.963056  0  0  0.074617  0  1.041311  0  0  0.075412  0  1.039963  0  0.045078  0  0.097508  0.073866  0  1.041896  0
C  C64  1  0.41825036  0.37318171  0.62605643  1  0  0.088371  0  3.6036  0  0  0.012225  0  3.86184  0  0  0.021034  0  3.872463  0  0.499914  0  0.010196  0.00646  0  3.855172  0
C  C65  1  0.08174841  0.87318179  0.12605643  1  0  0.088399  0  3.603522  0  0  0.012266  0  3.861742  0  0  0.021073  0  3.872368  0  0.500078  0  0.010197  0.006489  0  3.855105  0
C  C66  1  0.41824921  0.12681631  0.62605525  1  0  0.088412  0  3.603588  0  0  0.012283  0  3.861765  0  0  0.021076  0  3.872414  0  0.499926  0  0.01022  0.006508  0  3.855133  0
C  C67  1  0.08174841  0.62681639  0.12605643  1  0  0.088453  0  3.603534  0  0  0.012319  0  3.861737  0  0  0.021109  0  3.87239  0  0.500073  0  0.01021  0.006542  0  3.8551  0
C  C68  1  0.58174833  0.62681947  0.37394239  1  0  0.088312  0  3.603593  0  0  0.012282  0  3.861693  0  0  0.021094  0  3.87231  0  0.500158  0  0.010204  0.00652  0  3.855017  0
C  C69  1  0.91825144  0.12681631  0.87394357  1  0  0.088446  0  3.603513  0  0  0.012301  0  3.861738  0  0  0.021088  0  3.872392  0  0.499909  0  0.010219  0.006515  0  3.85512  0
C  C70  1  0.58175064  0.87318897  0.37394712  1  0  0.08845  0  3.603676  0  0  0.012342  0  3.861798  0  0  0.02113  0  3.872453  0  0.499912  0  0.010262  0.006559  0  3.855179  0
C  C71  1  0.91825144  0.37318171  0.87394357  1  0  0.088364  0  3.603515  0  0  0.012222  0  3.861726  0  0  0.02103  0  3.872345  0  0.499915  0  0.010174  0.006446  0  3.855098  0
C  C72  1  0.19301705  0.24999901  0.66815805  1  0  0.069589  0  3.601252  0  0  0.000636  0  3.845235  0  0  0.008328  0  3.857284  0  0.564612  0  0.000755  -0.004751  0  3.838681  0
C  C73  1  0.30698172  0.74999909  0.16815805  1  0  0.069668  0  3.601347  0  0  0.000695  0  3.845379  0  0  0.008391  0  3.857423  0  0.564317  0  0.000764  -0.004692  0  3.838824  0
C  C74  1  0.80698396  0.75000217  0.33184136  1  0  0.069673  0  3.601215  0  0  0.000673  0  3.845343  0  0  0.008364  0  3.857391  0  0.564894  0  0.000768  -0.004714  0  3.838786  0
C  C75  1  0.69301697  0.24999901  0.83184195  1  0  0.069653  0  3.601271  0  0  0.000677  0  3.845299  0  0  0.008365  0  3.857348  0  0.564607  0  0.000756  -0.004709  0  3.838743  0
C  C76  1  0.19007969  0.37337971  0.54492133  1  0  0.082741  0  3.588585  0  0  0.011308  0  3.836973  0  0  0.018881  0  3.84969  0  0.537799  0  0.007132  0.006067  0  3.830374  0
C  C77  1  0.30991793  0.87338081  0.04492133  1  0  0.082755  0  3.588555  0  0  0.011387  0  3.836889  0  0  0.018955  0  3.849612  0  0.537922  0  0.007181  0.006147  0  3.83029  0
C  C78  1  0.19007969  0.12661832  0.54492074  1  0  0.082768  0  3.588624  0  0  0.011321  0  3.837096  0  0  0.018895  0  3.84981  0  0.537915  0  0.007152  0.006078  0  3.830499  0
C  C79  1  0.30991793  0.62661840  0.04492133  1  0  0.082715  0  3.588686  0  0  0.011328  0  3.837031  0  0  0.018892  0  3.849757  0  0.537917  0  0.007183  0.006088  0  3.83043  0
C  C80  1  0.80992016  0.62661840  0.45507867  1  0  0.082691  0  3.588631  0  0  0.011183  0  3.837091  0  0  0.018742  0  3.849813  0  0.537866  0  0.007119  0.005942  0  3.830493  0
C  C81  1  0.69008077  0.12661832  0.95507867  1  0  0.08276  0  3.588648  0  0  0.011332  0  3.837012  0  0  0.018894  0  3.849738  0  0.537902  0  0.007171  0.006093  0  3.830409  0
C  C82  1  0.80991901  0.87338081  0.45507749  1  0  0.082725  0  3.588676  0  0  0.011307  0  3.837073  0  0  0.018879  0  3.849788  0  0.537899  0  0.007138  0.006066  0  3.830473  0
C  C83  1  0.69008077  0.37337971  0.95507867  1  0  0.082717  0  3.588614  0  0  0.011261  0  3.837018  0  0  0.018829  0  3.84974  0  0.537912  0  0.007104  0.00602  0  3.830418  0
C  C84  1  0.41485115  0.25000004  0.50298296  1  0  0.089383  0  3.619945  0  0  0.009785  0  3.887931  0  0  0.019279  0  3.896977  0  0.585471  0  0.010087  0.004096  0  3.881356  0
C  C85  1  0.08514877  0.75000012  0.00298237  1  0  0.089449  0  3.619771  0  0  0.009718  0  3.887939  0  0  0.019214  0  3.896974  0  0.585392  0  0.010111  0.004027  0  3.881372  0
C  C86  1  0.58515101  0.75000012  0.49701644  1  0  0.089549  0  3.619758  0  0  0.009843  0  3.887902  0  0  0.019333  0  3.896952  0  0.585369  0  0.010093  0.004156  0  3.881321  0
C  C87  1  0.91485223  0.25000004  0.99701704  1  0  0.089438  0  3.61996  0  0  0.009796  0  3.887996  0  0  0.019292  0  3.897036  0  0.585386  0  0.010083  0.004107  0  3.881421  0
Br  Br88  1  0.48459726  0.25000004  0.29624926  1  0  -0.524938  0  1.454387  0  0  -0.42758  0  1.855324  0  0  -0.458008  0  1.821524  0  -0.485198  0  -0.231708  -0.414923  0  1.885361  0
Br  Br89  1  0.01540035  0.74999909  0.79624926  1  0  -0.524935  0  1.454346  0  0  -0.427591  0  1.855308  0  0  -0.45802  0  1.821508  0  -0.48521  0  -0.2317  -0.414933  0  1.885343  0
Br  Br90  1  0.51540143  0.74999909  0.70374956  1  0  -0.524953  0  1.454321  0  0  -0.427605  0  1.855265  0  0  -0.458031  0  1.821464  0  -0.485223  0  -0.231717  -0.41495  0  1.885303  0
Br  Br91  1  0.98459834  0.25000004  0.20375074  1  0  -0.524934  0  1.454352  0  0  -0.427571  0  1.855273  0  0  -0.457999  0  1.821471  0  -0.485204  0  -0.231713  -0.414914  0  1.885308  0
Br  Br92  1  0.16499783  0.53095040  0.33609606  1  0  -0.528902  0  1.444857  0  0  -0.448973  0  1.884966  0  0  -0.470841  0  1.84265  0  -0.518648  0  -0.242341  -0.423397  0  1.906187  0
Br  Br93  1  0.33500325  0.03095238  0.83609488  1  0  -0.528901  0  1.444842  0  0  -0.448993  0  1.884983  0  0  -0.470856  0  1.842664  0  -0.518648  0  -0.242345  -0.423413  0  1.906201  0
Br  Br94  1  0.16500014  0.96905188  0.33609133  1  0  -0.528873  0  1.444794  0  0  -0.448958  0  1.884924  0  0  -0.470831  0  1.842617  0  -0.518609  0  -0.242351  -0.423381  0  1.906145  0
Br  Br95  1  0.33500441  0.46904975  0.83609488  1  0  -0.528874  0  1.444816  0  0  -0.448964  0  1.884958  0  0  -0.470827  0  1.842634  0  -0.518645  0  -0.242345  -0.423388  0  1.90618  0
Br  Br96  1  0.83499971  0.46904975  0.66391045  1  0  -0.528898  0  1.444833  0  0  -0.448972  0  1.88494  0  0  -0.470837  0  1.84262  0  -0.518583  0  -0.242361  -0.423397  0  1.906163  0
Br  Br97  1  0.66500006  0.96905188  0.16390926  1  0  -0.528892  0  1.444842  0  0  -0.448978  0  1.884952  0  0  -0.470851  0  1.842647  0  -0.518614  0  -0.242353  -0.423403  0  1.906174  0
Br  Br98  1  0.83499856  0.03094827  0.66391045  1  0  -0.528904  0  1.44484  0  0  -0.448981  0  1.884949  0  0  -0.470859  0  1.842654  0  -0.518611  0  -0.242363  -0.423405  0  1.90617  0
Br  Br99  1  0.66499775  0.53094938  0.16390985  1  0  -0.528891  0  1.444845  0  0  -0.448983  0  1.884978  0  0  -0.470847  0  1.842655  0  -0.518618  0  -0.242357  -0.423407  0  1.906202  0
Br  Br100  1  0.83582065  0.25000004  0.43151662  1  0  -0.522795  0  1.434591  0  0  -0.440293  0  1.870579  0  0  -0.463138  0  1.829493  0  -0.520233  0  -0.253644  -0.424566  0  1.90081  0
Br  Br101  1  0.66418143  0.74999909  0.93151544  1  0  -0.5228  0  1.434599  0  0  -0.440294  0  1.870581  0  0  -0.463139  0  1.829497  0  -0.520228  0  -0.253636  -0.424565  0  1.900807  0
Br  Br102  1  0.16417112  0.75000012  0.56848397  1  0  -0.522826  0  1.434659  0  0  -0.440307  0  1.870624  0  0  -0.463152  0  1.829537  0  -0.520302  0  -0.25366  -0.424579  0  1.900854  0
Br  Br103  1  0.33582996  0.25000107  0.06848397  1  0  -0.522838  0  1.434678  0  0  -0.440344  0  1.870684  0  0  -0.463184  0  1.829587  0  -0.520311  0  -0.253662  -0.424615  0  1.900911  0
N  N104  1  0.24501777  0.25000004  0.50264344  1  0  -0.260817  0  3.219123  0  0  -0.164759  0  3.464117  0  0  -0.18468  0  3.483444  0  -1.021515  0  -0.348953  -0.152041  0  3.450423  0
N  N105  1  0.25498216  0.74999909  0.00264344  1  0  -0.260828  0  3.219234  0  0  -0.164742  0  3.464228  0  0  -0.184665  0  3.48356  0  -1.021625  0  -0.348947  -0.152022  0  3.450522  0
N  N106  1  0.75498324  0.75000012  0.49735597  1  0  -0.260808  0  3.219144  0  0  -0.164709  0  3.464174  0  0  -0.184632  0  3.483508  0  -1.021521  0  -0.34894  -0.151993  0  3.450483  0
N  N107  1  0.74501885  0.25000004  0.99735656  1  0  -0.260885  0  3.219282  0  0  -0.164791  0  3.464219  0  0  -0.184716  0  3.483556  0  -1.021628  0  -0.348973  -0.152068  0  3.450512  0
N  N108  1  0.24776808  0.37550325  0.62756300  1  0  -0.258506  0  3.219107  0  0  -0.156018  0  3.456245  0  0  -0.176628  0  3.476358  0  -0.991091  0  -0.350767  -0.142727  0  3.444103  0
N  N109  1  0.25223185  0.87550332  0.12756300  1  0  -0.258588  0  3.219165  0  0  -0.156106  0  3.456309  0  0  -0.176713  0  3.476418  0  -0.991256  0  -0.350792  -0.142815  0  3.444168  0
N  N110  1  0.24776692  0.12449581  0.62756300  1  0  -0.258591  0  3.219177  0  0  -0.156071  0  3.456306  0  0  -0.176677  0  3.476418  0  -0.991413  0  -0.350766  -0.142781  0  3.444163  0
N  N111  1  0.25223185  0.62449589  0.12756300  1  0  -0.258607  0  3.219202  0  0  -0.156104  0  3.456333  0  0  -0.176709  0  3.476447  0  -0.991278  0  -0.350792  -0.142813  0  3.444189  0
N  N112  1  0.75223177  0.62449794  0.37243464  1  0  -0.258524  0  3.219159  0  0  -0.156019  0  3.45626  0  0  -0.176625  0  3.476375  0  -0.991321  0  -0.350728  -0.142727  0  3.444117  0
N  N113  1  0.74776800  0.12449581  0.87243700  1  0  -0.258585  0  3.21916  0  0  -0.156076  0  3.456291  0  0  -0.176679  0  3.476408  0  -0.991107  0  -0.350787  -0.142784  0  3.444146  0
N  N114  1  0.75223293  0.87550538  0.37243582  1  0  -0.258581  0  3.219125  0  0  -0.156075  0  3.456246  0  0  -0.176682  0  3.476362  0  -0.991435  0  -0.350776  -0.142784  0  3.444101  0
N  N115  1  0.74776800  0.37550222  0.87243641  1  0  -0.258581  0  3.219129  0  0  -0.156068  0  3.456247  0  0  -0.176672  0  3.47636  0  -0.991377  0  -0.35072  -0.142776  0  3.444101  0
N  N116  1  0.47639945  0.24999901  0.58451851  1  0  -0.27334  0  3.250117  0  0  -0.172289  0  3.499042  0  0  -0.19226  0  3.517448  0  -0.976417  0  -0.356954  -0.159451  0  3.486549  0
N  N117  1  0.02359932  0.74999909  0.08451851  1  0  -0.273442  0  3.2499  0  0  -0.172356  0  3.498872  0  0  -0.192324  0  3.517278  0  -0.97636  0  -0.357002  -0.159518  0  3.48638  0
N  N118  1  0.52360040  0.75000114  0.41548030  1  0  -0.27345  0  3.250155  0  0  -0.172406  0  3.499088  0  0  -0.192375  0  3.517492  0  -0.976657  0  -0.356975  -0.159567  0  3.486596  0
N  N119  1  0.97640052  0.24999901  0.91548149  1  0  -0.273322  0  3.249952  0  0  -0.172256  0  3.498885  0  0  -0.192224  0  3.517294  0  -0.976679  0  -0.356959  -0.159419  0  3.48639  0
