# generated using pymatgen
data_NaH16C6S2NO4
_symmetry_space_group_name_H-M   'P 1'
_cell_length_a   5.54930079
_cell_length_b   11.92918149
_cell_length_c   18.01130000
_cell_angle_alpha   95.27410013
_cell_angle_beta   90.00000000
_cell_angle_gamma   90.00000000
_symmetry_Int_Tables_number   1
_chemical_formula_structural   NaH16C6S2NO4
_chemical_formula_sum   'Na4 H64 C24 S8 N4 O16'
_cell_volume   1187.27525979
_cell_formula_units_Z   4
loop_
 _symmetry_equiv_pos_site_id
 _symmetry_equiv_pos_as_xyz
  1  'x, y, z'
loop_
 _atom_site_type_symbol
 _atom_site_label
 _atom_site_symmetry_multiplicity
 _atom_site_fract_x
 _atom_site_fract_y
 _atom_site_fract_z
 _atom_site_occupancy
 _atom_site_hle17_bader_spin_density
 _atom_site_hle17_ddec_charge
 _atom_site_hle17_ddec_spin_density
 _atom_site_hle17_ddec_sum_bond_order
 _atom_site_hle17_magmom
 _atom_site_hse06_10hf_bader_spin_density
 _atom_site_hse06_10hf_ddec_charge
 _atom_site_hse06_10hf_ddec_spin_density
 _atom_site_hse06_10hf_ddec_sum_bond_order
 _atom_site_hse06_10hf_magmom
 _atom_site_hse06_bader_spin_density
 _atom_site_hse06_ddec_charge
 _atom_site_hse06_ddec_spin_density
 _atom_site_hse06_ddec_sum_bond_order
 _atom_site_hse06_magmom
 _atom_site_pbe_bader_charge
 _atom_site_pbe_bader_spin_density
 _atom_site_pbe_cm5_charge
 _atom_site_pbe_ddec_charge
 _atom_site_pbe_ddec_spin_density
 _atom_site_pbe_ddec_sum_bond_order
 _atom_site_pbe_magmom
Na  Na0  1  0.75972274  0.58242342  0.01556013  1  0  0.885074  0  0.419205  0  0  0.832627  0  0.587109  0  0  0.84237  0  0.566606  0  0.868262  0  0.591865  0.82556  0  0.601777  0
Na  Na1  1  0.25971741  0.91758194  0.98444097  1  0  0.885064  0  0.419241  0  0  0.832644  0  0.587121  0  0  0.842385  0  0.566616  0  0.868263  0  0.591872  0.825569  0  0.601789  0
Na  Na2  1  0.24026631  0.41757931  0.98443870  1  0  0.885049  0  0.41922  0  0  0.832646  0  0.58705  0  0  0.842386  0  0.566546  0  0.868253  0  0.591831  0.825571  0  0.601718  0
Na  Na3  1  0.74026804  0.08241658  0.01556094  1  0  0.885038  0  0.419265  0  0  0.832629  0  0.587147  0  0  0.842365  0  0.56664  0  0.868239  0  0.591855  0.825546  0  0.601811  0
H  H4  1  0.18292755  0.66474993  0.66987126  1  0  0.085448  0  0.928443  0  0  0.09774  0  0.998978  0  0  0.09967  0  0.996423  0  0.069876  0  0.109886  0.096251  0  1.000966  0
H  H5  1  0.68293108  0.83525291  0.33013080  1  0  0.085493  0  0.928351  0  0  0.097734  0  0.998989  0  0  0.099664  0  0.996435  0  0.069865  0  0.109878  0.096245  0  1.000968  0
H  H6  1  0.81707771  0.33527806  0.33012856  1  0  0.085481  0  0.928418  0  0  0.097747  0  0.998991  0  0  0.099676  0  0.996442  0  0.070376  0  0.109882  0.096263  0  1.000968  0
H  H7  1  0.31706877  0.16473130  0.66987190  1  0  0.085526  0  0.92847  0  0  0.097777  0  0.99904  0  0  0.099704  0  0.996494  0  0.070329  0  0.10991  0.096291  0  1.001021  0
H  H8  1  0.39237916  0.55974413  0.69272177  1  0  0.094317  0  0.939001  0  0  0.106941  0  1.002631  0  0  0.108304  0  1.001971  0  0.084329  0  0.109091  0.10591  0  1.003139  0
H  H9  1  0.89240252  0.94025282  0.30727771  1  0  0.094436  0  0.939133  0  0  0.107087  0  1.002732  0  0  0.108451  0  1.00207  0  0.084312  0  0.10915  0.106053  0  1.003241  0
H  H10  1  0.60759907  0.44027039  0.30726779  1  0  0.094513  0  0.938989  0  0  0.107057  0  1.00268  0  0  0.108419  0  1.002021  0  0.084038  0  0.109149  0.106025  0  1.003191  0
H  H11  1  0.10759914  0.05973561  0.69272802  1  0  0.094471  0  0.939104  0  0  0.107029  0  1.00277  0  0  0.108391  0  1.00211  0  0.084098  0  0.109141  0.105996  0  1.003281  0
H  H12  1  0.73552870  0.68002940  0.65813388  1  0  -0.003665  0  0.956847  0  0  0.001728  0  1.035928  0  0  0.001944  0  1.033712  0  0.051315  0  0.097449  0.001429  0  1.037739  0
H  H13  1  0.23553238  0.81996586  0.34186994  1  0  -0.003617  0  0.956953  0  0  0.001712  0  1.035948  0  0  0.001926  0  1.03373  0  0.051305  0  0.097455  0.001419  0  1.037766  0
H  H14  1  0.26446755  0.31998006  0.34186481  1  0  -0.003702  0  0.956944  0  0  0.001685  0  1.035977  0  0  0.001903  0  1.033761  0  0.051324  0  0.097432  0.001381  0  1.037783  0
H  H15  1  0.76445307  0.18001751  0.65812993  1  0  -0.003692  0  0.956858  0  0  0.001659  0  1.035882  0  0  0.001876  0  1.033666  0  0.051211  0  0.097398  0.001354  0  1.037687  0
H  H16  1  0.73393210  0.70348572  0.49029373  1  0  0.079944  0  0.963657  0  0  0.091324  0  1.036733  0  0  0.093093  0  1.035576  0  0.052558  0  0.091145  0.089972  0  1.037654  0
H  H17  1  0.23395560  0.79652385  0.50970541  1  0  0.080056  0  0.963649  0  0  0.091381  0  1.036786  0  0  0.093148  0  1.035623  0  0.052296  0  0.091142  0.090027  0  1.037711  0
H  H18  1  0.26605694  0.29651112  0.50970253  1  0  0.079898  0  0.963758  0  0  0.0913  0  1.036815  0  0  0.093067  0  1.035657  0  0.05217  0  0.091119  0.089948  0  1.037736  0
H  H19  1  0.76608751  0.20348982  0.49029409  1  0  0.079891  0  0.963666  0  0  0.09134  0  1.036685  0  0  0.093109  0  1.035525  0  0.052512  0  0.091159  0.089988  0  1.037609  0
H  H20  1  0.68438172  0.55479071  0.47727082  1  0  0.096718  0  0.946466  0  0  0.114272  0  1.008727  0  0  0.115662  0  1.007979  0  0.071444  0  0.101678  0.11318  0  1.009356  0
H  H21  1  0.18441242  0.94521970  0.52272892  1  0  0.096776  0  0.946342  0  0  0.114342  0  1.008584  0  0  0.115735  0  1.007821  0  0.071353  0  0.101661  0.113249  0  1.009214  0
H  H22  1  0.31560012  0.44520781  0.52272942  1  0  0.096727  0  0.946491  0  0  0.114291  0  1.008738  0  0  0.115687  0  1.007989  0  0.071452  0  0.101687  0.1132  0  1.009365  0
H  H23  1  0.81561807  0.05478556  0.47726618  1  0  0.096755  0  0.946238  0  0  0.114343  0  1.00846  0  0  0.115738  0  1.007696  0  0.071421  0  0.101689  0.113256  0  1.009096  0
H  H24  1  0.88371854  0.61199069  0.54920077  1  0  0.067854  0  0.945422  0  0  0.084575  0  1.016215  0  0  0.085405  0  1.015589  0  0.006132  0  0.091283  0.083891  0  1.016764  0
H  H25  1  0.38374925  0.88801889  0.45079615  1  0  0.067755  0  0.945392  0  0  0.084543  0  1.01611  0  0  0.085371  0  1.015484  0  0.005908  0  0.091259  0.083855  0  1.016665  0
H  H26  1  0.11626330  0.38800616  0.45079771  1  0  0.067911  0  0.945195  0  0  0.084633  0  1.016007  0  0  0.085462  0  1.015382  0  0.005996  0  0.091302  0.083947  0  1.01656  0
H  H27  1  0.61628665  0.11198553  0.54919835  1  0  0.067898  0  0.945389  0  0  0.08461  0  1.016206  0  0  0.085439  0  1.015581  0  0.00604  0  0.091299  0.083925  0  1.016758  0
H  H28  1  0.10996521  0.78392565  0.83687755  1  0  0.089146  0  0.987004  0  0  0.104541  0  1.062238  0  0  0.105381  0  1.061981  0  0.075691  0  0.096502  0.103789  0  1.062598  0
H  H29  1  0.60998676  0.71607298  0.16311315  1  0  0.089199  0  0.987028  0  0  0.104532  0  1.062324  0  0  0.105371  0  1.06207  0  0.075607  0  0.096515  0.103776  0  1.062688  0
H  H30  1  0.89002925  0.21607540  0.16312173  1  0  0.089222  0  0.986995  0  0  0.10459  0  1.06224  0  0  0.105429  0  1.061987  0  0.075648  0  0.096519  0.103836  0  1.062599  0
H  H31  1  0.39000950  0.28392302  0.83687639  1  0  0.08927  0  0.98711  0  0  0.104573  0  1.0624  0  0  0.105407  0  1.062145  0  0.075318  0  0.096531  0.103823  0  1.062753  0
H  H32  1  0.09608778  0.80893685  0.74091422  1  0  0.097352  0  0.953878  0  0  0.115782  0  1.022496  0  0  0.117041  0  1.021623  0  0.074777  0  0.101543  0.114768  0  1.023234  0
H  H33  1  0.59608951  0.69105673  0.25907894  1  0  0.097339  0  0.954005  0  0  0.115811  0  1.022549  0  0  0.117074  0  1.021677  0  0.074998  0  0.101527  0.114795  0  1.023282  0
H  H34  1  0.90391208  0.19106251  0.25908496  1  0  0.097292  0  0.95381  0  0  0.115737  0  1.02242  0  0  0.117002  0  1.021548  0  0.074834  0  0.101501  0.114722  0  1.02315  0
H  H35  1  0.40387611  0.30894685  0.74091550  1  0  0.097376  0  0.953904  0  0  0.115876  0  1.022409  0  0  0.117148  0  1.021537  0  0.074828  0  0.101556  0.11486  0  1.023143  0
H  H36  1  0.31942943  0.87735945  0.80003310  1  0  0.103497  0  0.932912  0  0  0.124547  0  0.996296  0  0  0.125612  0  0.995368  0  0.05451  0  0.102283  0.123644  0  0.997091  0
H  H37  1  0.81946720  0.62264086  0.19996381  1  0  0.103556  0  0.932671  0  0  0.124569  0  0.996103  0  0  0.12564  0  0.995167  0  0.054399  0  0.102282  0.123666  0  0.996895  0
H  H38  1  0.68055781  0.12264497  0.19996361  1  0  0.103524  0  0.93286  0  0  0.124576  0  0.996244  0  0  0.125642  0  0.995316  0  0.054343  0  0.102312  0.123672  0  0.997033  0
H  H39  1  0.18052004  0.37735682  0.80003694  1  0  0.103596  0  0.932683  0  0  0.124608  0  0.996109  0  0  0.125678  0  0.995174  0  0.05427  0  0.102302  0.123704  0  0.996903  0
H  H40  1  0.88472948  0.83835932  0.63105446  1  0  0.069358  0  0.947703  0  0  0.086012  0  1.018073  0  0  0.086914  0  1.016974  0  0.009477  0  0.091491  0.085237  0  1.018982  0
H  H41  1  0.38473135  0.66163426  0.36895592  1  0  0.069402  0  0.94775  0  0  0.08602  0  1.018183  0  0  0.08692  0  1.017083  0  0.009475  0  0.091529  0.085244  0  1.019089  0
H  H42  1  0.11528119  0.16164173  0.36894871  1  0  0.069346  0  0.947577  0  0  0.085989  0  1.017976  0  0  0.08689  0  1.016879  0  0.009521  0  0.091448  0.085216  0  1.01888  0
H  H43  1  0.61527391  0.33836090  0.63105189  1  0  0.069346  0  0.947599  0  0  0.085981  0  1.018004  0  0  0.086883  0  1.016907  0  0.009506  0  0.09143  0.085206  0  1.018911  0
H  H44  1  0.69750049  0.96009762  0.64006438  1  0  0.083948  0  0.968836  0  0  0.097657  0  1.039572  0  0  0.098907  0  1.038701  0  0.075591  0  0.089938  0.096634  0  1.040333  0
H  H45  1  0.19748794  0.53990017  0.35994237  1  0  0.083922  0  0.968675  0  0  0.097611  0  1.039439  0  0  0.098861  0  1.038562  0  0.075658  0  0.089933  0.096591  0  1.040191  0
H  H46  1  0.30253902  0.03990764  0.35993516  1  0  0.083944  0  0.968879  0  0  0.097674  0  1.039579  0  0  0.09892  0  1.038709  0  0.075604  0  0.08995  0.096648  0  1.040341  0
H  H47  1  0.80251011  0.46009330  0.64005979  1  0  0.084  0  0.968877  0  0  0.097708  0  1.039603  0  0  0.098953  0  1.038736  0  0.075653  0  0.089957  0.096685  0  1.040363  0
H  H48  1  0.71562169  0.87527252  0.55224597  1  0  0.075975  0  0.959895  0  0  0.092907  0  1.025561  0  0  0.093601  0  1.02584  0  0.048469  0  0.092049  0.092314  0  1.025467  0
H  H49  1  0.21560734  0.62472695  0.44776088  1  0  0.075887  0  0.959955  0  0  0.092945  0  1.025465  0  0  0.093581  0  1.025807  0  0.048334  0  0.09204  0.092344  0  1.025388  0
H  H50  1  0.28441962  0.12473358  0.44775362  1  0  0.075944  0  0.959902  0  0  0.09291  0  1.025556  0  0  0.093571  0  1.025874  0  0.048513  0  0.092028  0.092313  0  1.025467  0
H  H51  1  0.78441774  0.37526063  0.55224758  1  0  0.075947  0  0.959959  0  0  0.092926  0  1.025577  0  0  0.093585  0  1.025898  0  0.04852  0  0.092043  0.09233  0  1.025487  0
H  H52  1  0.21124283  0.62677937  0.92452550  1  0  0.387236  0  0.930276  0  0  0.358531  0  0.993668  0  0  0.367508  0  0.980763  0  0.586833  0  0.263696  0.352219  0  1.002738  0
H  H53  1  0.71125537  0.87321926  0.07547353  1  0  0.38724  0  0.930256  0  0  0.358547  0  0.993627  0  0  0.36752  0  0.98073  0  0.586783  0  0.263681  0.352233  0  1.002701  0
H  H54  1  0.78874622  0.37321831  0.07547414  1  0  0.387231  0  0.930278  0  0  0.358532  0  0.99366  0  0  0.367507  0  0.980759  0  0.586755  0  0.263664  0.352218  0  1.002734  0
H  H55  1  0.28873728  0.12678011  0.92452732  1  0  0.387221  0  0.930284  0  0  0.358522  0  0.993662  0  0  0.367497  0  0.980762  0  0.586981  0  0.263625  0.352207  0  1.002741  0
H  H56  1  0.71615329  0.36421479  0.91926372  1  0  0.384376  0  0.934592  0  0  0.356798  0  0.996552  0  0  0.365909  0  0.983399  0  0.590787  0  0.262939  0.350385  0  1.00582  0
H  H57  1  0.21615336  0.13578448  0.08073335  1  0  0.38432  0  0.934662  0  0  0.356733  0  0.996638  0  0  0.365844  0  0.983483  0  0.590701  0  0.26294  0.350319  0  1.005907  0
H  H58  1  0.28385018  0.63578374  0.08073153  1  0  0.384233  0  0.934789  0  0  0.356655  0  0.996749  0  0  0.365766  0  0.983595  0  0.590691  0  0.262924  0.350244  0  1.006013  0
H  H59  1  0.78383389  0.86421405  0.91927134  1  0  0.384304  0  0.934692  0  0  0.356759  0  0.996591  0  0  0.365868  0  0.98344  0  0.591043  0  0.262952  0.350349  0  1.005855  0
H  H60  1  0.98144257  0.57430299  0.88235019  1  0  0.366706  0  0.966096  0  0  0.334802  0  1.034927  0  0  0.344786  0  1.020652  0  0.599985  0  0.250234  0.327754  0  1.044997  0
H  H61  1  0.48145705  0.92569564  0.11764995  1  0  0.366775  0  0.966026  0  0  0.334861  0  1.034858  0  0  0.344843  0  1.020583  0  0.600021  0  0.250259  0.327814  0  1.044926  0
H  H62  1  0.01854468  0.42569806  0.11764744  1  0  0.366744  0  0.966076  0  0  0.334827  0  1.034931  0  0  0.34481  0  1.020656  0  0.600079  0  0.25026  0.327784  0  1.044995  0
H  H63  1  0.51853740  0.07429615  0.88235321  1  0  0.366804  0  0.966003  0  0  0.33489  0  1.03486  0  0  0.344875  0  1.020584  0  0.600151  0  0.250251  0.327837  0  1.044936  0
H  H64  1  0.63195890  0.46872726  0.87976472  1  0  0.374162  0  0.947999  0  0  0.345816  0  1.014121  0  0  0.354852  0  1.001402  0  0.572438  0  0.259373  0.339434  0  1.0231  0
H  H65  1  0.13196257  0.03127368  0.12023245  1  0  0.374117  0  0.948061  0  0  0.345767  0  1.014186  0  0  0.354802  0  1.001468  0  0.572479  0  0.259356  0.339385  0  1.023165  0
H  H66  1  0.36803015  0.53127463  0.12023462  1  0  0.374144  0  0.94804  0  0  0.345785  0  1.014165  0  0  0.35482  0  1.001448  0  0.572395  0  0.25937  0.339403  0  1.023143  0
H  H67  1  0.86802647  0.96872147  0.87976870  1  0  0.374222  0  0.947969  0  0  0.345856  0  1.014084  0  0  0.354893  0  1.001364  0  0.572421  0  0.259407  0.339472  0  1.023066  0
C  C68  1  0.53875797  0.66851129  0.81676651  1  0  0.288908  0  3.726231  0  0  0.25918  0  4.022691  0  0  0.282357  0  4.03233  0  0.292466  0  0.133581  0.243801  0  4.015342  0
C  C69  1  0.03876705  0.83148903  0.18323428  1  0  0.288867  0  3.726167  0  0  0.259178  0  4.022559  0  0  0.282354  0  4.0322  0  0.292089  0  0.133587  0.243799  0  4.015211  0
C  C70  1  0.46122567  0.33150071  0.18322678  1  0  0.288991  0  3.725995  0  0  0.259335  0  4.022342  0  0  0.282514  0  4.031983  0  0.291938  0  0.133668  0.243959  0  4.014991  0
C  C71  1  0.96122020  0.16849350  0.81676887  1  0  0.28898  0  3.72582  0  0  0.259316  0  4.022161  0  0  0.282496  0  4.031803  0  0.292147  0  0.133671  0.243937  0  4.014813  0
C  C72  1  0.36428373  0.65053959  0.69145259  1  0  -0.089909  0  3.648023  0  0  -0.162993  0  3.910252  0  0  -0.159674  0  3.918549  0  0.297096  0  -0.063771  -0.165105  0  3.904761  0
C  C73  1  0.86429087  0.84946998  0.30855154  1  0  -0.089979  0  3.647773  0  0  -0.163263  0  3.910131  0  0  -0.159942  0  3.918417  0  0.296493  0  -0.063878  -0.165353  0  3.904636  0
C  C74  1  0.63571252  0.34947325  0.30854908  1  0  -0.09025  0  3.648239  0  0  -0.163339  0  3.910618  0  0  -0.16002  0  3.918917  0  0.296101  0  -0.063893  -0.165457  0  3.905127  0
C  C75  1  0.13571620  0.15052265  0.69144890  1  0  -0.090138  0  3.64812  0  0  -0.163252  0  3.91043  0  0  -0.159934  0  3.91873  0  0.29649  0  -0.063864  -0.165368  0  3.904932  0
C  C76  1  0.54981882  0.69479199  0.63852884  1  0  0.340745  0  3.690468  0  0  0.292643  0  3.965442  0  0  0.307165  0  3.967605  0  0.973497  0  0.080656  0.282475  0  3.964252  0
C  C77  1  0.04983150  0.80520748  0.36147413  1  0  0.340411  0  3.690891  0  0  0.292822  0  3.965214  0  0  0.307328  0  3.967371  0  0.974037  0  0.0807  0.282607  0  3.964087  0
C  C78  1  0.45017924  0.30521159  0.36146838  1  0  0.340713  0  3.690568  0  0  0.292837  0  3.965333  0  0  0.307317  0  3.967511  0  0.973981  0  0.080713  0.282695  0  3.964095  0
C  C79  1  0.95017556  0.19479104  0.63852833  1  0  0.340529  0  3.690846  0  0  0.292788  0  3.96538  0  0  0.307277  0  3.967549  0  0.974054  0  0.080722  0.28265  0  3.964136  0
C  C80  1  0.71529732  0.62640811  0.51889031  1  0  -0.078977  0  3.652274  0  0  -0.172821  0  3.919422  0  0  -0.167872  0  3.924404  0  0.410279  0  -0.150889  -0.175927  0  3.915859  0
C  C81  1  0.21532983  0.87360146  0.48110716  1  0  -0.07903  0  3.652058  0  0  -0.172857  0  3.919047  0  0  -0.167929  0  3.924113  0  0.410873  0  -0.150826  -0.175964  0  3.915479  0
C  C82  1  0.28469352  0.37359378  0.48110847  1  0  -0.079109  0  3.652288  0  0  -0.172968  0  3.919412  0  0  -0.168025  0  3.924428  0  0.41068  0  -0.150961  -0.176078  0  3.91585  0
C  C83  1  0.78471328  0.12640717  0.51888648  1  0  -0.079076  0  3.652136  0  0  -0.173008  0  3.919265  0  0  -0.168047  0  3.924247  0  0.410436  0  -0.150955  -0.17613  0  3.915719  0
C  C84  1  0.21713907  0.79905444  0.78773392  1  0  -0.172115  0  3.678443  0  0  -0.281277  0  3.937685  0  0  -0.277563  0  3.946845  0  0.257401  0  -0.142948  -0.283381  0  3.93125  0
C  C85  1  0.71715522  0.70094503  0.21226460  1  0  -0.172292  0  3.678363  0  0  -0.281384  0  3.937537  0  0  -0.277677  0  3.946707  0  0.257457  0  -0.142967  -0.283485  0  3.931107  0
C  C86  1  0.78285719  0.20095166  0.21226345  1  0  -0.172299  0  3.678265  0  0  -0.281416  0  3.937479  0  0  -0.277707  0  3.94664  0  0.257685  0  -0.143046  -0.283541  0  3.931105  0
C  C87  1  0.28283023  0.29905518  0.78773685  1  0  -0.172549  0  3.678452  0  0  -0.281626  0  3.937632  0  0  -0.277926  0  3.946809  0  0.258141  0  -0.143142  -0.283739  0  3.931222  0
C  C88  1  0.71312948  0.87413014  0.61322976  1  0  -0.068245  0  3.647736  0  0  -0.159185  0  3.905457  0  0  -0.153439  0  3.909999  0  0.404449  0  -0.149916  -0.162847  0  3.902321  0
C  C89  1  0.21312415  0.62587354  0.38677513  1  0  -0.068204  0  3.647654  0  0  -0.159137  0  3.905417  0  0  -0.153378  0  3.909981  0  0.404533  0  -0.149897  -0.162796  0  3.902278  0
C  C90  1  0.28689921  0.12587260  0.38676685  1  0  -0.068223  0  3.647677  0  0  -0.15913  0  3.905343  0  0  -0.153412  0  3.909901  0  0.404592  0  -0.149845  -0.162788  0  3.902209  0
C  C91  1  0.78689914  0.37412414  0.61323284  1  0  -0.068319  0  3.647815  0  0  -0.159203  0  3.905469  0  0  -0.153481  0  3.910037  0  0.404409  0  -0.149857  -0.162861  0  3.902335  0
S  S92  1  0.53076957  0.72711293  0.90850497  1  0  -0.591838  0  2.011308  0  0  -0.546598  0  2.330524  0  0  -0.560138  0  2.317042  0  -0.415434  0  -0.206079  -0.537099  0  2.339775  0
S  S93  1  0.03076604  0.77288402  0.09149396  1  0  -0.591852  0  2.011239  0  0  -0.546617  0  2.33043  0  0  -0.560156  0  2.316947  0  -0.415463  0  -0.206095  -0.537114  0  2.339677  0
S  S94  1  0.46923749  0.27289233  0.09148958  1  0  -0.591863  0  2.01134  0  0  -0.546653  0  2.330551  0  0  -0.560196  0  2.317077  0  -0.415463  0  -0.20609  -0.537122  0  2.339749  0
S  S95  1  0.96922661  0.22710441  0.90851067  1  0  -0.591884  0  2.011236  0  0  -0.546671  0  2.330434  0  0  -0.560206  0  2.316948  0  -0.415415  0  -0.206098  -0.537146  0  2.339643  0
S  S96  1  0.74007342  0.56416802  0.78809362  1  0  -0.43843  0  1.944784  0  0  -0.404848  0  2.240157  0  0  -0.421539  0  2.23339  0  -0.292127  0  -0.164884  -0.393139  0  2.244538  0
S  S97  1  0.24007349  0.93582892  0.21190642  1  0  -0.438426  0  1.944855  0  0  -0.404875  0  2.240224  0  0  -0.421564  0  2.233454  0  -0.291774  0  -0.164909  -0.393165  0  2.244603  0
S  S98  1  0.25991022  0.43582882  0.21190375  1  0  -0.43842  0  1.944926  0  0  -0.40485  0  2.24026  0  0  -0.421537  0  2.233495  0  -0.291799  0  -0.164892  -0.393145  0  2.244644  0
S  S99  1  0.75990475  0.06416371  0.78809457  1  0  -0.43847  0  1.944884  0  0  -0.404891  0  2.240248  0  0  -0.421578  0  2.23348  0  -0.292051  0  -0.164942  -0.393184  0  2.244628  0
N  N100  1  0.37925138  0.70447573  0.76746948  1  0  -0.079475  0  3.425388  0  0  0.025152  0  3.646766  0  0  0.006643  0  3.672134  0  -1.140883  0  -0.259972  0.037435  0  3.629347  0
N  N101  1  0.87926212  0.79552627  0.23253087  1  0  -0.079422  0  3.425  0  0  0.025242  0  3.646381  0  0  0.006728  0  3.671759  0  -1.140712  0  -0.259945  0.037521  0  3.628956  0
N  N102  1  0.62074847  0.29553795  0.23252947  1  0  -0.079282  0  3.424821  0  0  0.025338  0  3.646177  0  0  0.006824  0  3.671555  0  -1.14047  0  -0.259884  0.037617  0  3.628754  0
N  N103  1  0.12073954  0.20446131  0.76746649  1  0  -0.079253  0  3.424527  0  0  0.025369  0  3.6459  0  0  0.00685  0  3.671286  0  -1.140946  0  -0.259856  0.037651  0  3.628475  0
O  O104  1  0.60617727  0.42991318  0.92571804  1  0  -0.886583  0  1.893113  0  0  -0.834219  0  2.065395  0  0  -0.851753  0  2.037387  0  -1.256612  0  -0.696975  -0.821874  0  2.085033  0
O  O105  1  0.10617013  0.07008524  0.07428009  1  0  -0.886468  0  1.893197  0  0  -0.834097  0  2.065509  0  0  -0.851629  0  2.037506  0  -1.256505  0  -0.696961  -0.821738  0  2.085121  0
O  O106  1  0.39384241  0.57009461  0.07428721  1  0  -0.886382  0  1.893239  0  0  -0.833995  0  2.065528  0  0  -0.851528  0  2.037526  0  -1.256424  0  -0.696968  -0.821654  0  2.085173  0
O  O107  1  0.89380450  0.92990402  0.92572514  1  0  -0.886526  0  1.893184  0  0  -0.834215  0  2.065549  0  0  -0.851749  0  2.037546  0  -1.256839  0  -0.697021  -0.821857  0  2.085162  0
O  O108  1  0.07984610  0.57144493  0.92850488  1  0  -0.90807  0  1.906531  0  0  -0.856935  0  2.087462  0  0  -0.873601  0  2.056654  0  -1.287648  0  -0.709987  -0.845173  0  2.109078  0
O  O109  1  0.57983882  0.92854781  0.07149379  1  0  -0.908148  0  1.906473  0  0  -0.85701  0  2.08746  0  0  -0.873668  0  2.056655  0  -1.28762  0  -0.71  -0.845246  0  2.109068  0
O  O110  1  0.92014836  0.42855697  0.07149668  1  0  -0.908111  0  1.906555  0  0  -0.856974  0  2.087485  0  0  -0.873639  0  2.056684  0  -1.287599  0  -0.70997  -0.845219  0  2.109088  0
O  O111  1  0.42013581  0.07144482  0.92850832  1  0  -0.908162  0  1.906549  0  0  -0.857033  0  2.087469  0  0  -0.873696  0  2.056661  0  -1.287901  0  -0.70994  -0.845267  0  2.109093  0
O  O112  1  0.51280875  0.63151895  0.56880810  1  0  -0.336504  0  2.261411  0  0  -0.26309  0  2.512475  0  0  -0.279532  0  2.512794  0  -1.065484  0  -0.236872  -0.251455  0  2.511917  0
O  O113  1  0.01282684  0.86849146  0.43119276  1  0  -0.336432  0  2.261277  0  0  -0.263138  0  2.512178  0  0  -0.279612  0  2.512523  0  -1.065586  0  -0.236866  -0.251476  0  2.51162  0
O  O114  1  0.48717489  0.36848967  0.43119054  1  0  -0.336374  0  2.261396  0  0  -0.262998  0  2.512407  0  0  -0.279471  0  2.512763  0  -1.065402  0  -0.236803  -0.251358  0  2.511825  0
O  O115  1  0.98718023  0.13151043  0.56881102  1  0  -0.336397  0  2.261582  0  0  -0.263038  0  2.512554  0  0  -0.279509  0  2.512902  0  -1.0655  0  -0.236845  -0.2514  0  2.51198  0
O  O116  1  0.51191314  0.81167032  0.63758173  1  0  -0.316976  0  2.246611  0  0  -0.241668  0  2.48821  0  0  -0.258054  0  2.48861  0  -1.069526  0  -0.234389  -0.230138  0  2.487567  0
O  O117  1  0.01191321  0.68833336  0.36242150  1  0  -0.316749  0  2.246793  0  0  -0.241687  0  2.488339  0  0  -0.257992  0  2.488685  0  -1.069576  0  -0.234412  -0.230156  0  2.487712  0
O  O118  1  0.48809933  0.18833746  0.36241464  1  0  -0.316852  0  2.246494  0  0  -0.241749  0  2.488174  0  0  -0.258011  0  2.488504  0  -1.069732  0  -0.234428  -0.230232  0  2.48752  0
O  O119  1  0.98810467  0.31166685  0.63758662  1  0  -0.316723  0  2.246738  0  0  -0.241654  0  2.488343  0  0  -0.257929  0  2.488678  0  -1.069601  0  -0.23437  -0.230144  0  2.4877  0
