# generated using pymatgen
data_Cu5H14C12(N4O)2
_symmetry_space_group_name_H-M   'P 1'
_cell_length_a   9.17267574
_cell_length_b   9.17259301
_cell_length_c   16.03567568
_cell_angle_alpha   86.99744129
_cell_angle_beta   86.99915752
_cell_angle_gamma   74.47101224
_symmetry_Int_Tables_number   1
_chemical_formula_structural   Cu5H14C12(N4O)2
_chemical_formula_sum   'Cu10 H28 C24 N16 O4'
_cell_volume   1297.13002523
_cell_formula_units_Z   2
loop_
 _symmetry_equiv_pos_site_id
 _symmetry_equiv_pos_as_xyz
  1  'x, y, z'
loop_
 _atom_site_type_symbol
 _atom_site_label
 _atom_site_symmetry_multiplicity
 _atom_site_fract_x
 _atom_site_fract_y
 _atom_site_fract_z
 _atom_site_occupancy
 _atom_site_pbe_bader_charge
 _atom_site_pbe_bader_spin_density
 _atom_site_pbe_cm5_charge
 _atom_site_pbe_ddec_charge
 _atom_site_pbe_ddec_spin_density
 _atom_site_pbe_ddec_sum_bond_order
 _atom_site_pbe_magmom
Cu  Cu0  1  0.14466879  0.47450205  0.50787354  1  0.758703  0.052379  0.550916  0.418626  0.059604  2.91033  0.05
Cu  Cu1  1  0.52548051  0.85533520  0.99212997  1  0.758102  0.052356  0.550997  0.4187  0.059579  2.910298  0.05
Cu  Cu2  1  0.85532901  0.52549534  0.49212996  1  0.758573  0.052373  0.550941  0.418697  0.059596  2.910226  0.05
Cu  Cu3  1  0.47447441  0.14469646  0.00787684  1  0.758597  0.052378  0.550995  0.418772  0.059601  2.910338  0.05
Cu  Cu4  1  0.41777402  0.58224177  0.25000805  1  0.484943  0.001812  0.343915  0.20542  0.002037  2.623322  0.002
Cu  Cu5  1  0.58222735  0.41776587  0.74999640  1  0.484933  0.001813  0.343987  0.205581  0.002038  2.623239  0.002
Cu  Cu6  1  0.35210051  0.64788145  0.74999779  1  0.489546  0.002423  0.329958  0.18041  0.002829  2.625559  0.002
Cu  Cu7  1  0.64789755  0.35212931  0.24999294  1  0.489809  0.002423  0.329914  0.180384  0.002829  2.625428  0.002
Cu  Cu8  1  0.99999991  0.00000043  0.49999516  1  1.065928  0.510758  0.778023  0.820162  0.638385  2.280933  0.51
Cu  Cu9  1  0.00000120  0.99998810  0.00000060  1  1.066077  0.510765  0.778058  0.820224  0.63839  2.280962  0.51
H  H10  1  0.00377450  0.77025862  0.64761485  1  0.115153  0.003223  0.124122  0.059192  0.001343  1.041587  0.002
H  H11  1  0.95564180  0.64334139  0.75767113  1  0.065604  0.0001  0.107858  0.118142  3.1e-05  1.018056  0.0
H  H12  1  0.75900650  0.69322500  0.78982258  1  0.070753  0.000671  0.105446  0.123402  0.00034  1.00057  0.0
H  H13  1  0.89187119  0.75099724  0.84906132  1  0.081025  -9.1e-05  0.108863  0.130697  -0.000131  0.983172  0.0
H  H14  1  0.70211966  0.08955069  0.71274217  1  0.100823  0.000424  0.106069  0.123091  0.000361  1.018485  0.0
H  H15  1  0.76415493  0.04842952  0.81754050  1  0.103624  0.000197  0.105923  0.138605  0.000133  1.010382  0.0
H  H16  1  0.62190696  0.96898208  0.78286399  1  0.062357  -1.8e-05  0.105271  0.123142  -7.3e-05  1.001231  0.0
H  H17  1  0.22976657  0.99620877  0.85238006  1  0.114377  0.003223  0.124013  0.058965  0.001343  1.041856  0.002
H  H18  1  0.35667448  0.04434859  0.74232686  1  0.065277  0.0001  0.107805  0.118077  3.1e-05  1.01813  0.0
H  H19  1  0.30680022  0.24098554  0.71017679  1  0.070618  0.000672  0.105472  0.123399  0.00034  1.000426  0.0
H  H20  1  0.24902303  0.10813065  0.65093484  1  0.081121  -9.1e-05  0.108865  0.130722  -0.000131  0.983154  0.0
H  H21  1  0.91048088  0.29786240  0.78725449  1  0.100838  0.000424  0.105992  0.123116  0.000361  1.018386  0.0
H  H22  1  0.95158658  0.23584530  0.68245761  1  0.103666  0.000197  0.105931  0.138645  0.000133  1.010394  0.0
H  H23  1  0.03103006  0.37809401  0.71713566  1  0.062158  -1.8e-05  0.105233  0.123102  -7.3e-05  1.001214  0.0
H  H24  1  0.99621781  0.22974120  0.35237500  1  0.114795  0.003223  0.124108  0.059085  0.001343  1.041698  0.002
H  H25  1  0.04435865  0.35666547  0.24232712  1  0.06538  0.0001  0.107847  0.118156  3.1e-05  1.017999  0.0
H  H26  1  0.24099565  0.30678810  0.21017611  1  0.070624  0.000672  0.105452  0.123381  0.00034  1.000426  0.0
H  H27  1  0.10813196  0.24901793  0.15093418  1  0.081121  -9.1e-05  0.108885  0.13078  -0.000131  0.983081  0.0
H  H28  1  0.29788576  0.91046286  0.28725769  1  0.100766  0.000424  0.106027  0.123048  0.000361  1.018394  0.0
H  H29  1  0.23585812  0.95157278  0.18245756  1  0.103595  0.000197  0.105921  0.138609  0.000133  1.010403  0.0
H  H30  1  0.37810215  0.03102752  0.21713462  1  0.062184  -1.8e-05  0.105224  0.123049  -7.3e-05  1.00127  0.0
H  H31  1  0.77024650  0.00377804  0.14762521  1  0.114677  0.003223  0.124066  0.059047  0.001343  1.041666  0.002
H  H32  1  0.64333546  0.95563791  0.25766975  1  0.065451  0.0001  0.107865  0.118168  3.1e-05  1.018014  0.0
H  H33  1  0.69320772  0.75899803  0.28982056  1  0.070505  0.000672  0.105496  0.123453  0.00034  1.000529  0.0
H  H34  1  0.75097458  0.89185586  0.34906704  1  0.081157  -9.1e-05  0.108881  0.130752  -0.000131  0.983152  0.0
H  H35  1  0.08952977  0.70212707  0.21275015  1  0.100928  0.000424  0.105976  0.123061  0.000361  1.018528  0.0
H  H36  1  0.04842635  0.76414377  0.31754575  1  0.10343  0.000197  0.105963  0.138722  0.000133  1.010349  0.0
H  H37  1  0.96898404  0.62189368  0.28287019  1  0.062068  -1.8e-05  0.105237  0.123122  -7.3e-05  1.001245  0.0
C  C38  1  0.05628994  0.31031550  0.51360554  1  0.699314  0.010471  -0.04328  -0.107676  0.007504  3.948014  0.013
C  C39  1  0.32734322  0.52237259  0.34625964  1  0.719121  0.001823  -0.044921  -0.052742  0.001432  3.851081  0.002
C  C40  1  0.26787436  0.57918704  0.66341085  1  0.708948  0.002961  -0.049614  -0.070498  0.002314  3.893769  0.002
C  C41  1  0.92347499  0.87760634  0.66475561  1  1.361381  -0.001181  0.175301  0.292186  -0.000759  4.051836  -0.002
C  C42  1  0.86323900  0.73109539  0.78569507  1  0.261885  0.001428  -0.124598  -0.270973  0.001015  3.874852  0.001
C  C43  1  0.72500907  0.00296028  0.76353004  1  0.219547  0.001255  -0.135963  -0.277733  0.000942  3.85727  0.001
C  C44  1  0.68965884  0.94372605  0.98639231  1  0.698945  0.01047  -0.043271  -0.107755  0.007502  3.947994  0.013
C  C45  1  0.47763800  0.67266812  0.15375141  1  0.719058  0.001822  -0.044936  -0.052785  0.001431  3.851028  0.002
C  C46  1  0.42080143  0.73211639  0.83659610  1  0.708767  0.002962  -0.049612  -0.070663  0.002315  3.893192  0.002
C  C47  1  0.12242218  0.07651385  0.83523984  1  1.361912  -0.001181  0.175475  0.292528  -0.00076  4.052012  -0.002
C  C48  1  0.26892728  0.13675473  0.71430052  1  0.261983  0.001428  -0.124627  -0.271017  0.001015  3.874372  0.001
C  C49  1  0.99705332  0.27499071  0.73646632  1  0.219882  0.001256  -0.135845  -0.277692  0.000942  3.857038  0.001
C  C50  1  0.94372252  0.68966722  0.48639173  1  0.698937  0.010474  -0.043343  -0.107805  0.007505  3.947926  0.013
C  C51  1  0.67266109  0.47762567  0.65374806  1  0.719482  0.001824  -0.045032  -0.052897  0.001433  3.851055  0.002
C  C52  1  0.73212328  0.42082690  0.33658792  1  0.708913  0.00296  -0.049475  -0.070284  0.002313  3.893681  0.002
C  C53  1  0.07652362  0.12239774  0.33523525  1  1.36159  -0.001183  0.175405  0.292621  -0.000761  4.051482  -0.002
C  C54  1  0.13676347  0.26891441  0.21430120  1  0.262079  0.001428  -0.124661  -0.27102  0.001015  3.874493  0.001
C  C55  1  0.27500136  0.99704689  0.23646797  1  0.219817  0.001254  -0.13584  -0.277426  0.000942  3.857123  0.001
C  C56  1  0.31031758  0.05628734  0.01361381  1  0.699222  0.010474  -0.043365  -0.107757  0.007504  3.947045  0.013
C  C57  1  0.52234156  0.32734799  0.84625333  1  0.719161  0.001823  -0.044976  -0.052791  0.001432  3.850958  0.002
C  C58  1  0.57919431  0.26789352  0.16340280  1  0.708733  0.002964  -0.049698  -0.070796  0.002316  3.89317  0.002
C  C59  1  0.87758974  0.92347315  0.16476670  1  1.361779  -0.00118  0.175361  0.292486  -0.000758  4.051969  -0.002
C  C60  1  0.73108053  0.86322991  0.28569930  1  0.261987  0.001429  -0.124751  -0.271161  0.001015  3.874572  0.001
C  C61  1  0.00296209  0.72499455  0.26353956  1  0.219755  0.001255  -0.135863  -0.27766  0.000942  3.856946  0.001
N  N62  1  0.03678555  0.18819743  0.51596985  1  -1.343407  0.053709  -0.428606  -0.368775  0.033906  3.589548  0.043
N  N63  1  0.26384575  0.49523842  0.40802299  1  -1.338079  0.002577  -0.407903  -0.291918  0.00124  3.545304  0.001
N  N64  1  0.21800751  0.53676031  0.60624654  1  -1.352268  0.001957  -0.408462  -0.299104  0.000634  3.578025  0.0
N  N65  1  0.84022149  0.87078024  0.73439189  1  -1.200108  0.0064  -0.268997  0.058571  0.003587  3.696843  0.005
N  N66  1  0.81178071  0.96322387  0.98402020  1  -1.342882  0.053685  -0.428584  -0.368717  0.033892  3.589197  0.043
N  N67  1  0.50477594  0.73615151  0.09198300  1  -1.337732  0.002577  -0.407902  -0.291883  0.00124  3.545266  0.001
N  N68  1  0.46322422  0.78198694  0.89376348  1  -1.352018  0.001955  -0.408457  -0.298964  0.000633  3.577815  0.0
N  N69  1  0.12924230  0.15976518  0.76560558  1  -1.200277  0.0064  -0.269019  0.058545  0.003588  3.696429  0.005
N  N70  1  0.96322185  0.81179403  0.48402172  1  -1.343179  0.053709  -0.42853  -0.368666  0.033907  3.589253  0.043
N  N71  1  0.73615664  0.50475699  0.59198108  1  -1.338392  0.002576  -0.407828  -0.291819  0.00124  3.545168  0.001
N  N72  1  0.78198608  0.46324893  0.39375180  1  -1.352434  0.001957  -0.408528  -0.299276  0.000635  3.578324  0.0
N  N73  1  0.15978127  0.12922625  0.26560319  1  -1.200331  0.006402  -0.269009  0.058229  0.003588  3.6969  0.005
N  N74  1  0.18818730  0.03675720  0.01598495  1  -1.34356  0.053733  -0.428581  -0.368846  0.033922  3.58871  0.043
N  N75  1  0.49518699  0.26386447  0.90802087  1  -1.337938  0.00258  -0.407909  -0.291987  0.001242  3.545389  0.001
N  N76  1  0.53674732  0.21803294  0.10623824  1  -1.352052  0.001956  -0.408379  -0.298855  0.000633  3.577568  0.0
N  N77  1  0.87076967  0.84022187  0.23439846  1  -1.200188  0.006401  -0.268961  0.058411  0.003588  3.696617  0.005
O  O78  1  0.91276468  0.99870663  0.62070888  1  -1.114526  0.104213  -0.303418  -0.449256  0.064951  2.39227  0.094
O  O79  1  0.00132035  0.08721407  0.87928321  1  -1.113944  0.104224  -0.30342  -0.449317  0.06496  2.392338  0.094
O  O80  1  0.08723234  0.00129012  0.37928094  1  -1.114096  0.104227  -0.30348  -0.449442  0.064961  2.391995  0.094
O  O81  1  0.99869038  0.91277429  0.12072146  1  -1.114085  0.104221  -0.303416  -0.449327  0.064959  2.392249  0.094
