# generated using pymatgen
data_EuH45C40S3N8O17
_symmetry_space_group_name_H-M   'P 1'
_cell_length_a   9.39713777
_cell_length_b   16.59557023
_cell_length_c   17.51571383
_cell_angle_alpha   76.60811558
_cell_angle_beta   73.51445908
_cell_angle_gamma   86.50487103
_symmetry_Int_Tables_number   1
_chemical_formula_structural   EuH45C40S3N8O17
_chemical_formula_sum   'Eu2 H90 C80 S6 N16 O34'
_cell_volume   2548.04336362
_cell_formula_units_Z   2
loop_
 _symmetry_equiv_pos_site_id
 _symmetry_equiv_pos_as_xyz
  1  'x, y, z'
loop_
 _atom_site_type_symbol
 _atom_site_label
 _atom_site_symmetry_multiplicity
 _atom_site_fract_x
 _atom_site_fract_y
 _atom_site_fract_z
 _atom_site_occupancy
 _atom_site_pbe_bader_charge
 _atom_site_pbe_bader_spin_density
 _atom_site_pbe_cm5_charge
 _atom_site_pbe_ddec_charge
 _atom_site_pbe_ddec_spin_density
 _atom_site_pbe_ddec_sum_bond_order
 _atom_site_pbe_magmom
Eu  Eu0  1  0.26215771  0.49940370  0.99681638  1  2.232655  0  1.503452  2.220588  0  2.008593  0
Eu  Eu1  1  0.73784447  0.50059672  0.00318309  1  2.23265  0  1.503456  2.2206  0  2.008584  0
H  H2  1  0.03532994  0.36044119  0.03944959  1  0.666944  0  0.29847  0.406427  0  0.923054  0
H  H3  1  0.96467114  0.63955800  0.96054974  1  0.666937  0  0.29847  0.406422  0  0.923057  0
H  H4  1  0.18906902  0.32663815  0.98927450  1  0.664904  0  0.303593  0.408122  0  0.914556  0
H  H5  1  0.81093094  0.67336164  0.01072601  1  0.664895  0  0.303602  0.408117  0  0.914545  0
H  H6  1  0.15990177  0.69130123  0.97061724  1  0.64807  0  0.287144  0.342314  0  1.017283  0
H  H7  1  0.84009929  0.30869918  0.02938240  1  0.648073  0  0.287137  0.342316  0  1.017276  0
H  H8  1  0.21543577  0.66051026  0.88637949  1  0.618021  0  0.32681  0.40852  0  0.875202  0
H  H9  1  0.78456531  0.33948955  0.11361971  1  0.618025  0  0.326829  0.408532  0  0.875184  0
H  H10  1  0.34625065  0.07637224  0.24981108  1  0.448063  0  0.3281  0.285669  0  0.918095  0
H  H11  1  0.65374932  0.92362757  0.75018772  1  0.448045  0  0.328072  0.285645  0  0.918108  0
H  H12  1  0.47028437  0.64502808  0.22567757  1  0.503221  0  0.317285  0.302272  0  0.955881  0
H  H13  1  0.52971559  0.35497171  0.77432236  1  0.503226  0  0.317291  0.302283  0  0.955861  0
H  H14  1  0.80223814  0.36189912  0.46553897  1  0.481152  0  0.328308  0.295209  0  0.911542  0
H  H15  1  0.19776181  0.63810190  0.53446129  1  0.481385  0  0.328291  0.295131  0  0.911616  0
H  H16  1  0.36905547  0.57217435  0.78743411  1  0.49032  0  0.301088  0.282255  0  0.998154  0
H  H17  1  0.63094448  0.42782667  0.21256614  1  0.490302  0  0.301106  0.282286  0  0.998191  0
H  H18  1  0.22833845  0.11501023  0.58568796  1  0.433684  0  0.329131  0.285291  0  0.91451  0
H  H19  1  0.77166151  0.88499019  0.41431185  1  0.433684  0  0.32914  0.285292  0  0.91449  0
H  H20  1  0.85180465  0.42540672  0.83708116  1  0.520923  0  0.308195  0.289283  0  1.014185  0
H  H21  1  0.14819531  0.57459307  0.16291935  1  0.520928  0  0.30819  0.28928  0  1.014203  0
H  H22  1  0.44891388  0.25160116  0.17797480  1  0.062124  0  0.111248  0.176174  0  0.974671  0
H  H23  1  0.55108718  0.74839863  0.82202554  1  0.062473  0  0.111238  0.176163  0  0.974651  0
H  H24  1  0.26996720  0.20689282  0.22950382  1  0.047426  0  0.101822  0.14851  0  0.987205  0
H  H25  1  0.73003275  0.79310821  0.77049586  1  0.047408  0  0.101813  0.148483  0  0.987229  0
H  H26  1  0.30775039  0.26864409  0.12706834  1  0.116168  0  0.115929  0.188721  0  0.982552  0
H  H27  1  0.69225068  0.73135508  0.87293213  1  0.116223  0  0.115913  0.188703  0  0.982547  0
H  H28  1  0.53802711  0.03247950  0.04734821  1  0.129017  0  0.104783  0.118067  0  1.06141  0
H  H29  1  0.46197285  0.96752030  0.95265116  1  0.129037  0  0.10478  0.118065  0  1.061416  0
H  H30  1  0.64038282  0.89178790  0.03459273  1  0.154968  0  0.105555  0.10872  0  1.042473  0
H  H31  1  0.35961715  0.10821127  0.96540791  1  0.15496  0  0.105541  0.108718  0  1.042473  0
H  H32  1  0.49876504  0.80789577  0.29689697  1  0.173031  0  0.108841  0.123531  0  1.055595  0
H  H33  1  0.50123492  0.19210401  0.70310355  1  0.173049  0  0.108855  0.123538  0  1.055599  0
H  H34  1  0.39068968  0.94447984  0.30911364  1  0.088562  0  0.110019  0.122004  0  0.997507  0
H  H35  1  0.60931028  0.05551933  0.69088700  1  0.088554  0  0.110015  0.121982  0  0.997536  0
H  H36  1  0.45761439  0.75126479  0.06343103  1  0.149011  0  0.122135  0.129617  0  0.995256  0
H  H37  1  0.54238557  0.24873500  0.93656948  1  0.149002  0  0.122129  0.129617  0  0.995269  0
H  H38  1  0.30043103  0.70928143  0.14417132  1  0.075681  0  0.103605  0.090981  0  1.022083  0
H  H39  1  0.69957004  0.29071837  0.85582902  1  0.075671  0  0.103621  0.091017  0  1.022087  0
H  H40  1  0.80408211  0.16081611  0.51534894  1  0.069977  0  0.09757  0.154183  0  1.014275  0
H  H41  1  0.19591896  0.83918369  0.48465025  1  0.069975  0  0.097559  0.154189  0  1.014254  0
H  H42  1  0.85788095  0.24631605  0.42876508  1  0.069588  0  0.099865  0.154154  0  0.98843  0
H  H43  1  0.14211900  0.75368436  0.57123530  1  0.069597  0  0.09986  0.154173  0  0.988417  0
H  H44  1  0.69642260  0.18691948  0.44417688  1  0.073009  0  0.10298  0.164947  0  0.986282  0
H  H45  1  0.30357735  0.81308030  0.55582420  1  0.072996  0  0.102974  0.164938  0  0.986313  0
H  H46  1  0.82264550  0.49349702  0.47383486  1  0.105472  0  0.105941  0.123923  0  1.031356  0
H  H47  1  0.17735446  0.50650215  0.52616578  1  0.105466  0  0.105958  0.123931  0  1.031324  0
H  H48  1  0.71038270  0.61460277  0.53015323  1  0.100002  0  0.106118  0.109648  0  1.011844  0
H  H49  1  0.28961614  0.38539825  0.46984719  1  0.100012  0  0.106106  0.109633  0  1.011842  0
H  H50  1  0.34949984  0.45992037  0.69498331  1  0.071711  0  0.103156  0.096333  0  1.055252  0
H  H51  1  0.65050123  0.54007881  0.30501659  1  0.071713  0  0.10314  0.096283  0  1.055309  0
H  H52  1  0.45727950  0.33989914  0.63821748  1  0.133133  0  0.103035  0.117959  0  1.061094  0
H  H53  1  0.54272267  0.66010127  0.36178256  1  0.133078  0  0.103023  0.117958  0  1.061085  0
H  H54  1  0.66213193  0.65975044  0.73130468  1  0.091199  0  0.115281  0.116668  0  0.965435  0
H  H55  1  0.33786803  0.34024935  0.26869525  1  0.09119  0  0.115273  0.11667  0  0.965428  0
H  H56  1  0.65393219  0.55185369  0.73916800  1  0.131817  0  0.107644  0.110895  0  1.026417  0
H  H57  1  0.34606888  0.44814611  0.26083119  1  0.131882  0  0.107648  0.110901  0  1.026411  0
H  H58  1  0.10723373  0.92148753  0.61368566  1  0.094966  0  0.106586  0.169004  0  0.987639  0
H  H59  1  0.89276844  0.07851289  0.38631382  1  0.094955  0  0.106612  0.169044  0  0.987611  0
H  H60  1  0.26112709  0.99063447  0.56582036  1  0.022901  0  0.095854  0.138987  0  0.998902  0
H  H61  1  0.73887176  0.00936532  0.43417975  1  0.022883  0  0.095851  0.138989  0  0.998901  0
H  H62  1  0.13241601  0.97859178  0.51132383  1  0.079581  0  0.102105  0.163801  0  1.010534  0
H  H63  1  0.86758508  0.02140742  0.48867492  1  0.07961  0  0.102112  0.163829  0  1.010541  0
H  H64  1  0.27780327  0.24436375  0.59231395  1  0.130212  0  0.110957  0.129401  0  1.011011  0
H  H65  1  0.72219669  0.75563668  0.40768528  1  0.130223  0  0.110964  0.129394  0  1.011034  0
H  H66  1  0.18849163  0.37616604  0.63030387  1  0.104733  0  0.111855  0.11461  0  1.004105  0
H  H67  1  0.81150723  0.62383313  0.36969637  1  0.104679  0  0.111834  0.114571  0  1.004142  0
H  H68  1  0.73916072  0.28259944  0.71551685  1  0.081442  0  0.10446  0.104718  0  1.035391  0
H  H69  1  0.26083812  0.71740097  0.28448313  1  0.081449  0  0.104463  0.104719  0  1.035389  0
H  H70  1  0.82792219  0.15001790  0.67681913  1  0.132352  0  0.102934  0.119422  0  1.052269  0
H  H71  1  0.17207777  0.84998190  0.32318024  1  0.132335  0  0.102939  0.119428  0  1.052262  0
H  H72  1  0.12530741  0.51651503  0.73016604  1  0.141792  0  0.117866  0.131244  0  0.99732  0
H  H73  1  0.87469476  0.48348539  0.26983401  1  0.141804  0  0.117873  0.131241  0  0.997342  0
H  H74  1  0.15931562  0.41114907  0.77321512  1  0.096517  0  0.105792  0.101449  0  1.032685  0
H  H75  1  0.84068434  0.58885134  0.22678527  1  0.096525  0  0.105799  0.101447  0  1.032677  0
H  H76  1  0.01464780  0.69356078  0.12552760  1  0.11311  0  0.117431  0.085716  0  1.01633  0
H  H77  1  0.98535104  0.30644023  0.87447282  1  0.113108  0  0.117435  0.085719  0  1.0163  0
H  H78  1  0.93904713  0.80396214  0.20198748  1  0.118716  0  0.103876  0.114516  0  1.039896  0
H  H79  1  0.06095282  0.19603889  0.79801220  1  0.118715  0  0.103874  0.114521  0  1.039887  0
H  H80  1  0.17640127  0.97707174  0.98329415  1  0.106983  0  0.101889  0.106614  0  1.040384  0
H  H81  1  0.82359868  0.02292804  0.01670693  1  0.106992  0  0.101902  0.106625  0  1.040355  0
H  H82  1  0.24454740  0.85813456  0.91686712  1  0.107889  0  0.112318  0.080169  0  1.001608  0
H  H83  1  0.75545255  0.14186584  0.08313326  1  0.107883  0  0.112321  0.080152  0  1.001595  0
H  H84  1  0.70397425  0.04151581  0.26956048  1  0.068286  0  0.104996  0.069348  0  0.989042  0
H  H85  1  0.29602460  0.95848461  0.73043893  1  0.068295  0  0.104971  0.069299  0  0.989103  0
H  H86  1  0.78422831  0.91918309  0.20934199  1  0.098025  0  0.100444  0.107713  0  1.044044  0
H  H87  1  0.21577054  0.08081731  0.79065799  1  0.097994  0  0.100446  0.107713  0  1.044048  0
H  H88  1  0.20280321  0.04501242  0.08129568  1  0.089867  0  0.10465  0.112163  0  1.02339  0
H  H89  1  0.79719674  0.95498799  0.91870413  1  0.089863  0  0.104636  0.112147  0  1.023415  0
H  H90  1  0.10107076  0.16393125  0.14372388  1  0.088326  0  0.113551  0.087866  0  0.98831  0
H  H91  1  0.89892808  0.83606915  0.85627610  1  0.088325  0  0.113548  0.087863  0  0.988312  0
C  C92  1  0.35319914  0.22287551  0.16991389  1  -0.084013  0  -0.236914  -0.537172  0  3.892994  0
C  C93  1  0.64680304  0.77712429  0.83008571  1  -0.084416  0  -0.236856  -0.537096  0  3.89292  0
C  C94  1  0.40977318  0.14910831  0.13419537  1  1.360593  0  0.245239  0.579657  0  4.084476  0
C  C95  1  0.59022899  0.85089212  0.86580411  1  1.36058  0  0.245231  0.579675  0  4.084299  0
C  C96  1  0.45901161  0.99794979  0.17878379  1  0.331948  0  0.103944  0.254917  0  4.031846  0
C  C97  1  0.54098835  0.00204938  0.82121627  1  0.331921  0  0.103929  0.254907  0  4.031838  0
C  C98  1  0.52921154  0.98287350  0.10113215  1  -0.035661  0  -0.098857  -0.189416  0  3.947072  0
C  C99  1  0.47078952  0.01712692  0.89886749  1  -0.035659  0  -0.09885  -0.189407  0  3.947087  0
C  C100  1  0.58817145  0.90495225  0.09428910  1  -0.029678  0  -0.083935  -0.072049  0  4.007563  0
C  C101  1  0.41182851  0.09504754  0.90571142  1  -0.029689  0  -0.083963  -0.0721  0  4.007566  0
C  C102  1  0.57832395  0.84230049  0.16408531  1  -0.244252  0  -0.03298  -0.124586  0  4.028031  0
C  C103  1  0.42167601  0.15769868  0.83591476  1  -0.244227  0  -0.032937  -0.12454  0  4.027942  0
C  C104  1  0.50709272  0.85623837  0.24173083  1  -0.033123  0  -0.084213  -0.076609  0  3.989955  0
C  C105  1  0.49290614  0.14376080  0.75826940  1  -0.033128  0  -0.084211  -0.076606  0  3.989979  0
C  C106  1  0.44763402  0.93363376  0.24875283  1  -0.027826  0  -0.092062  -0.183584  0  3.955154  0
C  C107  1  0.55236706  0.06636604  0.75124694  1  -0.02779  0  -0.092067  -0.183561  0  3.955193  0
C  C108  1  0.41632352  0.69729550  0.11381096  1  0.28551  0  -0.062724  -0.148053  0  3.900662  0
C  C109  1  0.58367755  0.30270429  0.88618939  1  0.285507  0  -0.062765  -0.148146  0  3.90075  0
C  C110  1  0.42539860  0.62314456  0.07483613  1  1.616196  0  0.241214  0.698514  0  4.076633  0
C  C111  1  0.57460136  0.37685461  0.92516451  1  1.616192  0  0.241196  0.698512  0  4.076619  0
C  C112  1  0.76361627  0.21240597  0.47509572  1  -0.097513  0  -0.242956  -0.532875  0  3.919604  0
C  C113  1  0.23638479  0.78759445  0.52490392  1  -0.097509  0  -0.242926  -0.532901  0  3.919619  0
C  C114  1  0.66376528  0.26503318  0.52768881  1  1.389535  0  0.244112  0.592285  0  4.062856  0
C  C115  1  0.33623468  0.73496722  0.47231158  1  1.389532  0  0.244092  0.59233  0  4.06278  0
C  C116  1  0.64585373  0.40913793  0.55112423  1  0.382688  0  0.107046  0.265239  0  4.001475  0
C  C117  1  0.35414734  0.59086248  0.44887599  1  0.382681  0  0.107043  0.265257  0  4.001404  0
C  C118  1  0.71753671  0.48666125  0.52172784  1  -0.015566  0  -0.091172  -0.177989  0  3.931286  0
C  C119  1  0.28246435  0.51333916  0.47827295  1  -0.015484  0  -0.091187  -0.177987  0  3.931203  0
C  C120  1  0.65556538  0.55440158  0.55321101  1  -0.036692  0  -0.080337  -0.059311  0  3.997023  0
C  C121  1  0.34443456  0.44559881  0.44679052  1  -0.036779  0  -0.080257  -0.059223  0  3.996932  0
C  C122  1  0.52130756  0.54517706  0.61463970  1  -0.185045  0  -0.031933  -0.121994  0  4.009733  0
C  C123  1  0.47869239  0.45482334  0.38536068  1  -0.184994  0  -0.03201  -0.122072  0  4.009868  0
C  C124  1  0.45214788  0.46761016  0.64587155  1  -0.006534  0  -0.088581  -0.071338  0  4.01063  0
C  C125  1  0.54785098  0.53238963  0.35412856  1  -0.006517  0  -0.088534  -0.071273  0  4.010721  0
C  C126  1  0.51277063  0.39962689  0.61459655  1  -0.025772  0  -0.100021  -0.18535  0  3.946156  0
C  C127  1  0.48722932  0.60037414  0.38540313  1  -0.025739  0  -0.100007  -0.185365  0  3.946164  0
C  C128  1  0.59377353  0.60407193  0.76261370  1  0.226142  0  -0.069481  -0.15944  0  3.896149  0
C  C129  1  0.40622532  0.39592786  0.23738641  1  0.226086  0  -0.069468  -0.159438  0  3.896092  0
C  C130  1  0.57978782  0.58558515  0.85378871  1  1.626115  0  0.233422  0.680168  0  4.143858  0
C  C131  1  0.42021104  0.41441465  0.14621083  1  1.62613  0  0.233403  0.680185  0  4.143855  0
C  C132  1  0.14360840  0.98121585  0.57156216  1  -0.088171  0  -0.239817  -0.533331  0  3.916181  0
C  C133  1  0.85639045  0.01878455  0.42843782  1  -0.088165  0  -0.239841  -0.53339  0  3.916094  0
C  C134  1  0.04304178  0.04793144  0.60289567  1  1.370386  0  0.241148  0.587374  0  4.071036  0
C  C135  1  0.95695818  0.95206836  0.39710369  1  1.370488  0  0.241142  0.58731  0  4.071026  0
C  C136  1  0.05781122  0.18871168  0.63100632  1  0.320525  0  0.100908  0.250355  0  4.025595  0
C  C137  1  0.94218763  0.81128812  0.36899322  1  0.320553  0  0.100924  0.250337  0  4.0256  0
C  C138  1  0.15919376  0.25259841  0.61920280  1  -0.083763  0  -0.089496  -0.182352  0  3.925717  0
C  C139  1  0.84080620  0.74740262  0.38079689  1  -0.083764  0  -0.089489  -0.182319  0  3.925713  0
C  C140  1  0.10917007  0.32676490  0.64120967  1  -0.014646  0  -0.077023  -0.05055  0  3.972918  0
C  C141  1  0.89082877  0.67323551  0.35879031  1  -0.014654  0  -0.077001  -0.050531  0  3.972937  0
C  C142  1  0.95752846  0.33772590  0.67606537  1  -0.174424  0  -0.028875  -0.12078  0  3.996806  0
C  C143  1  0.04246928  0.66227451  0.32393420  1  -0.174409  0  -0.028885  -0.12077  0  3.996902  0
C  C144  1  0.85711547  0.27385622  0.68909520  1  0.001065  0  -0.086569  -0.074792  0  4.017491  0
C  C145  1  0.14288449  0.72614420  0.31090404  1  0.001059  0  -0.086589  -0.074818  0  4.017528  0
C  C146  1  0.90603780  0.19945824  0.66691086  1  0.008571  0  -0.096638  -0.176779  0  3.940609  0
C  C147  1  0.09396217  0.80054156  0.33308851  1  0.008574  0  -0.096636  -0.176766  0  3.940597  0
C  C148  1  0.08195996  0.46330251  0.78088861  1  0.249366  0  -0.064268  -0.162407  0  3.901274  0
C  C149  1  0.91804001  0.53669730  0.21911018  1  0.249358  0  -0.064254  -0.162318  0  3.901425  0
C  C150  1  0.08778814  0.48561754  0.85944456  1  1.605637  0  0.244282  0.694668  0  4.101036  0
C  C151  1  0.91221293  0.51438288  0.14055451  1  1.605638  0  0.244275  0.69467  0  4.101153  0
C  C152  1  0.04975468  0.75716780  0.09607875  1  0.500621  0  0.048554  0.107689  0  3.952864  0
C  C153  1  0.95024528  0.24283199  0.90392119  1  0.500634  0  0.048567  0.107721  0  3.952775  0
C  C154  1  0.00725848  0.81959869  0.13888272  1  -0.066715  0  -0.085192  -0.179628  0  3.941874  0
C  C155  1  0.99274148  0.18040111  0.86111664  1  -0.066732  0  -0.085217  -0.179708  0  3.941918  0
C  C156  1  0.05160761  0.90134646  0.09927059  1  -0.03274  0  0.008709  0.102505  0  3.974959  0
C  C157  1  0.94839124  0.09865456  0.90072926  1  -0.032709  0  0.008727  0.102573  0  3.97494  0
C  C158  1  0.14019632  0.91494876  0.01805689  1  -0.115371  0  -0.086258  -0.177268  0  3.945926  0
C  C159  1  0.85980475  0.08505104  0.98194288  1  -0.115363  0  -0.086276  -0.177332  0  3.945899  0
C  C160  1  0.17763417  0.84853606  0.98027001  1  0.528058  0  0.047974  0.103319  0  3.970051  0
C  C161  1  0.82236579  0.15146373  0.01972993  1  0.528065  0  0.048029  0.10344  0  3.969976  0
C  C162  1  0.81497399  0.04021379  0.22768156  1  0.438892  0  0.03235  0.079391  0  4.040497  0
C  C163  1  0.18502486  0.95978600  0.77231854  1  0.438906  0  0.032336  0.079378  0  4.040471  0
C  C164  1  0.86024334  0.97116868  0.19442681  1  -0.020879  0  -0.088638  -0.1786  0  3.94599  0
C  C165  1  0.13975661  0.02883173  0.80557300  1  -0.020886  0  -0.088613  -0.178544  0  3.945884  0
C  C166  1  0.00203310  0.97113652  0.13962919  1  -0.006008  0  0.007991  0.100066  0  3.981293  0
C  C167  1  0.99796574  0.02886451  0.86037066  1  -0.006039  0  0.008012  0.100057  0  3.981256  0
C  C168  1  0.09069179  0.04166348  0.12220910  1  -0.075377  0  -0.085011  -0.17151  0  3.934348  0
C  C169  1  0.90930706  0.95833693  0.87779031  1  -0.075382  0  -0.085044  -0.171552  0  3.934446  0
C  C170  1  0.03460503  0.10780374  0.15832598  1  0.52837  0  0.039408  0.089073  0  4.001201  0
C  C171  1  0.96539382  0.89219667  0.84167400  1  0.528363  0  0.039414  0.089079  0  4.001329  0
S  S172  1  0.64853574  0.74254514  0.15517407  1  3.018641  0  0.570314  1.09404  0  5.979409  0
S  S173  1  0.35146310  0.25745527  0.84482591  1  3.018513  0  0.570315  1.094044  0  5.979313  0
S  S174  1  0.43646704  0.63098208  0.65451753  1  2.912079  0  0.547815  1.085391  0  5.956492  0
S  S175  1  0.56353181  0.36901833  0.34548245  1  2.91203  0  0.5478  1.085322  0  5.956588  0
S  S176  1  0.89134233  0.43382061  0.70124421  1  2.959311  0  0.563159  1.086949  0  5.971728  0
S  S177  1  0.10865652  0.56617918  0.29875590  1  2.95904  0  0.563201  1.087045  0  5.971598  0
N  N178  1  0.40049604  0.07498771  0.19098811  1  -1.234995  0  -0.397276  -0.397958  0  3.565108  0
N  N179  1  0.59950504  0.92501085  0.80901191  1  -1.235008  0  -0.397211  -0.397915  0  3.565109  0
N  N180  1  0.50590508  0.68555342  0.17049813  1  -1.405976  0  -0.459835  -0.464116  0  3.560099  0
N  N181  1  0.49409488  0.31444636  0.82950238  1  -1.405945  0  -0.459841  -0.464102  0  3.560042  0
N  N182  1  0.71290721  0.34454890  0.51473843  1  -1.260027  0  -0.394833  -0.388194  0  3.552236  0
N  N183  1  0.28709164  0.65545089  0.48526110  1  -1.260274  0  -0.394858  -0.388161  0  3.552217  0
N  N184  1  0.44679034  0.61566552  0.74857311  1  -1.285708  0  -0.467198  -0.476736  0  3.445376  0
N  N185  1  0.55320850  0.38433488  0.25142744  1  -1.285682  0  -0.46721  -0.476735  0  3.445444  0
N  N186  1  0.11583475  0.11604668  0.60609524  1  -1.234486  0  -0.395119  -0.386339  0  3.551047  0
N  N187  1  0.88416521  0.88395312  0.39390413  1  -1.234497  0  -0.395119  -0.386296  0  3.551057  0
N  N188  1  0.93361115  0.44168496  0.78225796  1  -1.385411  0  -0.459023  -0.466492  0  3.540786  0
N  N189  1  0.06638771  0.55831422  0.21774170  1  -1.385186  0  -0.459033  -0.46655  0  3.540906  0
N  N190  1  0.13285163  0.77053032  0.01800327  1  -1.208594  0  -0.301891  -0.227836  0  3.380479  0
N  N191  1  0.86714833  0.22946948  0.98199667  1  -1.208588  0  -0.301927  -0.227882  0  3.380455  0
N  N192  1  0.89895387  0.10820194  0.21067806  1  -1.200532  0  -0.336417  -0.289989  0  3.309346  0
N  N193  1  0.10104498  0.89179847  0.78932134  1  -1.200529  0  -0.336401  -0.289946  0  3.309338  0
O  O194  1  0.14544219  0.36510602  0.02474966  1  -1.318073  0  -0.64687  -0.873134  0  2.047225  0
O  O195  1  0.85455889  0.63489316  0.97525081  1  -1.318056  0  -0.646888  -0.873111  0  2.047288  0
O  O196  1  0.15472076  0.64375635  0.94279608  1  -1.26203  0  -0.582555  -0.802894  0  2.153857  0
O  O197  1  0.84527920  0.35624406  0.05720373  1  -1.262035  0  -0.582576  -0.80292  0  2.153855  0
O  O198  1  0.46535516  0.15508122  0.06008777  1  -1.14993  0  -0.282001  -0.481683  0  2.144988  0
O  O199  1  0.53464812  0.84491859  0.93991224  1  -1.149912  0  -0.282035  -0.481736  0  2.144872  0
O  O200  1  0.71299063  0.70876954  0.22178128  1  -1.323823  0  -0.306138  -0.538432  0  2.240473  0
O  O201  1  0.28700822  0.29123025  0.77821883  1  -1.3237  0  -0.30613  -0.538442  0  2.240488  0
O  O202  1  0.73833906  0.75161184  0.07113282  1  -1.332014  0  -0.300898  -0.535386  0  2.23039  0
O  O203  1  0.26166201  0.24838796  0.92886753  1  -1.332021  0  -0.300889  -0.535366  0  2.230383  0
O  O204  1  0.30374630  0.59944803  0.06855424  1  -1.194165  0  -0.38207  -0.675068  0  2.348667  0
O  O205  1  0.69625477  0.40055177  0.93144553  1  -1.19418  0  -0.382067  -0.675074  0  2.348666  0
O  O206  1  0.55113144  0.59195995  0.05080069  1  -1.209666  0  -0.393981  -0.684396  0  2.333279  0
O  O207  1  0.44886852  0.40803984  0.94919925  1  -1.209658  0  -0.393976  -0.684397  0  2.333316  0
O  O208  1  0.21570959  0.50118033  0.86416025  1  -1.199609  0  -0.372506  -0.669661  0  2.258574  0
O  O209  1  0.78429038  0.49881884  0.13583982  1  -1.199598  0  -0.372492  -0.669684  0  2.258597  0
O  O210  1  0.96989665  0.48504886  0.91634405  1  -1.20952  0  -0.401192  -0.681198  0  2.343769  0
O  O211  1  0.03010553  0.51495096  0.08365498  1  -1.209582  0  -0.401206  -0.681223  0  2.343762  0
O  O212  1  0.73059619  0.42872345  0.72414270  1  -1.285514  0  -0.305594  -0.533139  0  2.263846  0
O  O213  1  0.26940376  0.57127697  0.27585711  1  -1.285485  0  -0.305592  -0.533148  0  2.26376  0
O  O214  1  0.97033536  0.49806261  0.63389122  1  -1.316299  0  -0.31747  -0.533079  0  2.155171  0
O  O215  1  0.02966238  0.50193655  0.36610976  1  -1.31626  0  -0.317512  -0.533154  0  2.155142  0
O  O216  1  0.90596441  0.04108763  0.62269702  1  -1.148514  0  -0.308524  -0.518806  0  2.082127  0
O  O217  1  0.09403555  0.95891340  0.37730267  1  -1.148582  0  -0.308546  -0.518791  0  2.082112  0
O  O218  1  0.44967820  0.58303863  0.90213629  1  -1.216568  0  -0.420029  -0.722504  0  2.391997  0
O  O219  1  0.55032176  0.41696116  0.09786365  1  -1.216557  0  -0.420032  -0.72253  0  2.391971  0
O  O220  1  0.69818690  0.57315760  0.87501024  1  -1.188793  0  -0.383738  -0.658874  0  2.264884  0
O  O221  1  0.30181195  0.42684280  0.12498974  1  -1.188823  0  -0.383727  -0.658889  0  2.26494  0
O  O222  1  0.27875594  0.62858900  0.66205711  1  -1.319207  0  -0.324618  -0.551799  0  2.17431  0
O  O223  1  0.72124292  0.37141016  0.33794313  1  -1.319193  0  -0.324617  -0.55177  0  2.174315  0
O  O224  1  0.52360867  0.70389205  0.60692077  1  -1.32255  0  -0.334741  -0.551493  0  2.126548  0
O  O225  1  0.47639129  0.29610837  0.39307904  1  -1.322557  0  -0.334732  -0.551476  0  2.126578  0
O  O226  1  0.54752776  0.23645158  0.57940812  1  -1.173999  0  -0.303777  -0.51234  0  2.135187  0
O  O227  1  0.45247330  0.76354883  0.42059209  1  -1.174014  0  -0.303756  -0.512371  0  2.135136  0
