# generated using pymatgen
data_LaPH7C3O10
_symmetry_space_group_name_H-M   'P 1'
_cell_length_a   6.94775802
_cell_length_b   10.20574128
_cell_length_c   13.61635224
_cell_angle_alpha   90.00014201
_cell_angle_beta   89.99971486
_cell_angle_gamma   99.89856671
_symmetry_Int_Tables_number   1
_chemical_formula_structural   LaPH7C3O10
_chemical_formula_sum   'La4 P4 H28 C12 O40'
_cell_volume   951.12225347
_cell_formula_units_Z   4
loop_
 _symmetry_equiv_pos_site_id
 _symmetry_equiv_pos_as_xyz
  1  'x, y, z'
loop_
 _atom_site_type_symbol
 _atom_site_label
 _atom_site_symmetry_multiplicity
 _atom_site_fract_x
 _atom_site_fract_y
 _atom_site_fract_z
 _atom_site_occupancy
 _atom_site_hle17_bader_spin_density
 _atom_site_hle17_ddec_charge
 _atom_site_hle17_ddec_spin_density
 _atom_site_hle17_ddec_sum_bond_order
 _atom_site_hle17_magmom
 _atom_site_hse06_10hf_bader_spin_density
 _atom_site_hse06_10hf_ddec_charge
 _atom_site_hse06_10hf_ddec_spin_density
 _atom_site_hse06_10hf_ddec_sum_bond_order
 _atom_site_hse06_10hf_magmom
 _atom_site_hse06_bader_spin_density
 _atom_site_hse06_ddec_charge
 _atom_site_hse06_ddec_spin_density
 _atom_site_hse06_ddec_sum_bond_order
 _atom_site_hse06_magmom
 _atom_site_pbe_bader_spin_density
 _atom_site_pbe_cm5_charge
 _atom_site_pbe_ddec_charge
 _atom_site_pbe_ddec_spin_density
 _atom_site_pbe_ddec_sum_bond_order
 _atom_site_pbe_magmom
La  La0  1  0.15940430  0.27743003  0.89627021  1  0  2.14166  0  1.755317  0  0  2.010178  0  2.258075  0  0  2.104546  0  2.163718  0  0  1.399431  1.939469  0  2.324055  0
La  La1  1  0.84059029  0.22256207  0.39627186  1  0  2.141719  0  1.75526  0  0  2.010287  0  2.258003  0  0  2.104642  0  2.163657  0  0  1.399471  1.939549  0  2.324017  0
La  La2  1  0.84060225  0.72255941  0.10372999  1  0  2.141612  0  1.755356  0  0  2.01018  0  2.258028  0  0  2.104542  0  2.163683  0  0  1.39943  1.939428  0  2.324052  0
La  La3  1  0.15939987  0.77743717  0.60372834  1  0  2.141527  0  1.755412  0  0  2.010128  0  2.258008  0  0  2.104493  0  2.163661  0  0  1.399422  1.939385  0  2.324026  0
P  P4  1  0.77965253  0.07870507  0.05397160  1  0  1.5058  0  4.756936  0  0  1.343098  0  5.272801  0  0  1.395793  0  5.233617  0  0  0.383767  1.305971  0  5.299561  0
P  P5  1  0.22034940  0.42129928  0.55396493  1  0  1.505745  0  4.757215  0  0  1.343019  0  5.27302  0  0  1.39571  0  5.233833  0  0  0.383768  1.305894  0  5.299769  0
P  P6  1  0.22036070  0.92129434  0.94603520  1  0  1.505888  0  4.757088  0  0  1.343184  0  5.27289  0  0  1.39588  0  5.233701  0  0  0.383722  1.306058  0  5.299644  0
P  P7  1  0.77964696  0.57870795  0.44603526  1  0  1.5057  0  4.75705  0  0  1.343028  0  5.272895  0  0  1.395719  0  5.233713  0  0  0.383717  1.305908  0  5.299636  0
H  H8  1  0.54429685  0.20243680  0.05636256  1  0  0.433561  0  0.864866  0  0  0.39774  0  0.938189  0  0  0.41093  0  0.919076  0  0  0.315848  0.38861  0  0.951429  0
H  H9  1  0.45571274  0.29756960  0.55636747  1  0  0.433632  0  0.864754  0  0  0.397788  0  0.938117  0  0  0.410974  0  0.919008  0  0  0.315893  0.38866  0  0.951352  0
H  H10  1  0.45571950  0.79756363  0.94363176  1  0  0.433608  0  0.864774  0  0  0.397809  0  0.938085  0  0  0.410997  0  0.918974  0  0  0.315899  0.388674  0  0.95133  0
H  H11  1  0.54428553  0.70243963  0.44363419  1  0  0.433504  0  0.864913  0  0  0.397706  0  0.938229  0  0  0.410896  0  0.919114  0  0  0.31584  0.388578  0  0.951465  0
H  H12  1  0.91077764  0.99177020  0.25334219  1  0  0.395016  0  0.889676  0  0  0.368827  0  0.961251  0  0  0.38022  0  0.949345  0  0  0.316182  0.360695  0  0.969707  0
H  H13  1  0.08922244  0.50824156  0.75333872  1  0  0.394986  0  0.88963  0  0  0.368871  0  0.961125  0  0  0.380266  0  0.949216  0  0  0.316185  0.36073  0  0.969585  0
H  H14  1  0.08920598  0.00823793  0.74666241  1  0  0.394962  0  0.88962  0  0  0.368796  0  0.961171  0  0  0.380189  0  0.949261  0  0  0.316152  0.360661  0  0.969636  0
H  H15  1  0.91079576  0.49177278  0.24666368  1  0  0.394987  0  0.889631  0  0  0.368813  0  0.961186  0  0  0.380206  0  0.949281  0  0  0.316186  0.360682  0  0.969643  0
H  H16  1  0.78232411  0.33928697  0.94033480  1  0  0.419707  0  0.86301  0  0  0.390848  0  0.937757  0  0  0.400309  0  0.9277  0  0  0.313423  0.384057  0  0.944995  0
H  H17  1  0.21769457  0.16071733  0.44033585  1  0  0.419761  0  0.862883  0  0  0.390896  0  0.9377  0  0  0.400361  0  0.927626  0  0  0.313441  0.384107  0  0.944937  0
H  H18  1  0.21768583  0.66069852  0.05965805  1  0  0.419788  0  0.862868  0  0  0.390921  0  0.93768  0  0  0.400384  0  0.927611  0  0  0.313454  0.384127  0  0.944921  0
H  H19  1  0.78231931  0.83929699  0.55965626  1  0  0.419774  0  0.862828  0  0  0.390903  0  0.937652  0  0  0.400368  0  0.927581  0  0  0.313439  0.384108  0  0.944894  0
H  H20  1  0.86468785  0.48600531  0.89815981  1  0  0.428311  0  0.875536  0  0  0.394263  0  0.944782  0  0  0.406398  0  0.927308  0  0  0.300047  0.385678  0  0.957112  0
H  H21  1  0.13531484  0.01399679  0.39816226  1  0  0.428382  0  0.875433  0  0  0.394356  0  0.944644  0  0  0.406496  0  0.927167  0  0  0.300107  0.385771  0  0.956973  0
H  H22  1  0.13532446  0.51398417  0.10183671  1  0  0.428295  0  0.875613  0  0  0.394219  0  0.944893  0  0  0.406357  0  0.927416  0  0  0.30002  0.385634  0  0.957222  0
H  H23  1  0.86467935  0.98601340  0.60183793  1  0  0.428308  0  0.8756  0  0  0.394227  0  0.944886  0  0  0.406364  0  0.927413  0  0  0.30003  0.385639  0  0.957219  0
H  H24  1  0.60530334  0.33222986  0.81290664  1  0  0.434099  0  0.853678  0  0  0.408906  0  0.906458  0  0  0.41983  0  0.890525  0  0  0.302689  0.400953  0  0.918052  0
H  H25  1  0.39469412  0.16775912  0.31291015  1  0  0.434065  0  0.853717  0  0  0.408896  0  0.906456  0  0  0.419813  0  0.890529  0  0  0.302693  0.400953  0  0.918033  0
H  H26  1  0.39470250  0.66775659  0.18708181  1  0  0.43401  0  0.853783  0  0  0.408786  0  0.906603  0  0  0.41973  0  0.890647  0  0  0.302664  0.400841  0  0.918185  0
H  H27  1  0.60529754  0.83222822  0.68708197  1  0  0.434104  0  0.853658  0  0  0.40891  0  0.906445  0  0  0.419829  0  0.890517  0  0  0.302685  0.400959  0  0.918037  0
H  H28  1  0.46069096  0.34002978  0.72297527  1  0  0.435832  0  0.854513  0  0  0.407093  0  0.91322  0  0  0.417708  0  0.897653  0  0  0.304481  0.399485  0  0.924382  0
H  H29  1  0.53930989  0.15995804  0.22297910  1  0  0.435804  0  0.854558  0  0  0.407035  0  0.913323  0  0  0.417654  0  0.897748  0  0  0.304423  0.399426  0  0.924485  0
H  H30  1  0.53930549  0.65995958  0.27701978  1  0  0.435791  0  0.854589  0  0  0.407034  0  0.913325  0  0  0.417653  0  0.897752  0  0  0.304429  0.399421  0  0.924493  0
H  H31  1  0.46068874  0.84002836  0.77701962  1  0  0.435767  0  0.854631  0  0  0.407041  0  0.913311  0  0  0.417656  0  0.897746  0  0  0.304416  0.399432  0  0.924473  0
H  H32  1  0.09441894  0.09824992  0.13336608  1  0  0.131692  0  0.907004  0  0  0.138349  0  0.962299  0  0  0.141961  0  0.960114  0  0  0.140105  0.13567  0  0.96409  0
H  H33  1  0.90557680  0.40175555  0.63336996  1  0  0.131762  0  0.90699  0  0  0.13839  0  0.962255  0  0  0.141997  0  0.960071  0  0  0.140118  0.135709  0  0.964046  0
H  H34  1  0.90558204  0.90174643  0.86664072  1  0  0.131788  0  0.907071  0  0  0.138418  0  0.96236  0  0  0.142035  0  0.960172  0  0  0.140111  0.135737  0  0.96415  0
H  H35  1  0.09441759  0.59826159  0.36664860  1  0  0.13171  0  0.907105  0  0  0.138363  0  0.962399  0  0  0.141973  0  0.960212  0  0  0.140132  0.135683  0  0.964192  0
C  C36  1  0.95950383  0.13634272  0.15207331  1  0  -0.2231  0  3.685915  0  0  -0.231111  0  3.951359  0  0  -0.237256  0  3.955528  0  0  0.000823  -0.22673  0  3.948132  0
C  C37  1  0.04048816  0.36365978  0.65206555  1  0  -0.223516  0  3.68639  0  0  -0.231319  0  3.951532  0  0  -0.237453  0  3.955689  0  0  0.000776  -0.226933  0  3.948308  0
C  C38  1  0.04049521  0.86365758  0.84793644  1  0  -0.223629  0  3.686601  0  0  -0.231541  0  3.951901  0  0  -0.237701  0  3.956095  0  0  0.000755  -0.227152  0  3.948669  0
C  C39  1  0.95950723  0.63634943  0.34793244  1  0  -0.223297  0  3.686175  0  0  -0.231325  0  3.951679  0  0  -0.237463  0  3.955834  0  0  0.000758  -0.226952  0  3.948453  0
C  C40  1  0.00584092  0.28714365  0.15785681  1  0  0.722941  0  3.808605  0  0  0.66503  0  4.117892  0  0  0.702054  0  4.107287  0  0  0.240489  0.639571  0  4.124501  0
C  C41  1  0.99414455  0.21285583  0.65786225  1  0  0.722973  0  3.808721  0  0  0.664999  0  4.118008  0  0  0.702022  0  4.107403  0  0  0.240486  0.639519  0  4.124649  0
C  C42  1  0.99415574  0.71285266  0.84213384  1  0  0.723046  0  3.808374  0  0  0.665118  0  4.117661  0  0  0.702145  0  4.107052  0  0  0.24048  0.63965  0  4.124273  0
C  C43  1  0.00583571  0.78715029  0.34214529  1  0  0.723242  0  3.808281  0  0  0.665315  0  4.117585  0  0  0.702342  0  4.106973  0  0  0.240567  0.639855  0  4.124194  0
C  C44  1  0.45267047  0.55500497  0.97479038  1  0  0.548659  0  3.919823  0  0  0.502634  0  4.220075  0  0  0.533561  0  4.21295  0  0  0.225922  0.481393  0  4.224527  0
C  C45  1  0.54732065  0.94498931  0.47479623  1  0  0.548555  0  3.919895  0  0  0.502579  0  4.220099  0  0  0.533505  0  4.212979  0  0  0.225839  0.481336  0  4.224555  0
C  C46  1  0.54735721  0.44498860  0.02520101  1  0  0.548378  0  3.919897  0  0  0.502287  0  4.220287  0  0  0.533214  0  4.213162  0  0  0.225605  0.48108  0  4.224699  0
C  C47  1  0.45263875  0.05500771  0.52520617  1  0  0.548432  0  3.91959  0  0  0.502207  0  4.220122  0  0  0.533132  0  4.213004  0  0  0.225583  0.481  0  4.224532  0
O  O48  1  0.58569138  0.12508318  0.09343476  1  0  -0.731847  0  2.03266  0  0  -0.652298  0  2.25032  0  0  -0.673864  0  2.220978  0  0  -0.365743  -0.637536  0  2.27096  0
O  O49  1  0.41432193  0.37493425  0.59342599  1  0  -0.731791  0  2.03247  0  0  -0.652257  0  2.250164  0  0  -0.673828  0  2.220851  0  0  -0.365792  -0.6375  0  2.270808  0
O  O50  1  0.41432255  0.87491922  0.90656837  1  0  -0.731866  0  2.032536  0  0  -0.65238  0  2.25018  0  0  -0.673947  0  2.220855  0  0  -0.365836  -0.637619  0  2.270824  0
O  O51  1  0.58568637  0.62508697  0.40656906  1  0  -0.731787  0  2.032666  0  0  -0.652259  0  2.250285  0  0  -0.673838  0  2.220972  0  0  -0.365753  -0.637509  0  2.270927  0
O  O52  1  0.84558342  0.14647631  0.95768865  1  0  -0.897475  0  1.957633  0  0  -0.830159  0  2.227002  0  0  -0.862395  0  2.20852  0  0  -0.428457  -0.806575  0  2.238953  0
O  O53  1  0.15439624  0.35351581  0.45769321  1  0  -0.897453  0  1.957825  0  0  -0.830151  0  2.227218  0  0  -0.862384  0  2.208737  0  0  -0.428465  -0.80657  0  2.239163  0
O  O54  1  0.15443014  0.85350624  0.04230640  1  0  -0.897442  0  1.957706  0  0  -0.830117  0  2.227034  0  0  -0.862346  0  2.208548  0  0  -0.428414  -0.806536  0  2.238982  0
O  O55  1  0.84556773  0.64648223  0.54231286  1  0  -0.897409  0  1.957696  0  0  -0.830093  0  2.227031  0  0  -0.862327  0  2.208552  0  0  -0.428451  -0.806513  0  2.238977  0
O  O56  1  0.75182709  0.92843727  0.05694760  1  0  -0.878593  0  1.961059  0  0  -0.812078  0  2.245203  0  0  -0.845996  0  2.225989  0  0  -0.455833  -0.787209  0  2.257491  0
O  O57  1  0.24816459  0.57156211  0.55694749  1  0  -0.878562  0  1.961169  0  0  -0.812084  0  2.245342  0  0  -0.845999  0  2.226127  0  0  -0.455872  -0.787218  0  2.257631  0
O  O58  1  0.24819408  0.07155923  0.94304892  1  0  -0.878544  0  1.961108  0  0  -0.812054  0  2.24532  0  0  -0.845972  0  2.226109  0  0  -0.455749  -0.787179  0  2.257608  0
O  O59  1  0.75181568  0.42844401  0.44304977  1  0  -0.878484  0  1.961028  0  0  -0.812023  0  2.245225  0  0  -0.845938  0  2.226012  0  0  -0.455752  -0.787153  0  2.25751  0
O  O60  1  0.87601031  0.08225635  0.24179637  1  0  -0.571734  0  2.267254  0  0  -0.522401  0  2.507947  0  0  -0.54485  0  2.5008  0  0  -0.425056  -0.505704  0  2.512049  0
O  O61  1  0.12398476  0.41775033  0.74178776  1  0  -0.571626  0  2.267434  0  0  -0.522373  0  2.507906  0  0  -0.544847  0  2.500814  0  0  -0.425027  -0.505661  0  2.512005  0
O  O62  1  0.12398125  0.91774886  0.75821704  1  0  -0.571535  0  2.267452  0  0  -0.522245  0  2.508111  0  0  -0.544718  0  2.50104  0  0  -0.424984  -0.505555  0  2.512223  0
O  O63  1  0.87601737  0.58225694  0.25821317  1  0  -0.571608  0  2.267367  0  0  -0.522275  0  2.508038  0  0  -0.544731  0  2.500914  0  0  -0.425066  -0.505585  0  2.512145  0
O  O64  1  0.08214637  0.35009848  0.08314659  1  0  -0.675323  0  2.032307  0  0  -0.622649  0  2.277218  0  0  -0.653847  0  2.267598  0  0  -0.32104  -0.600775  0  2.283236  0
O  O65  1  0.91785052  0.14990391  0.58314992  1  0  -0.675328  0  2.032199  0  0  -0.622631  0  2.277127  0  0  -0.653829  0  2.26751  0  0  -0.321057  -0.60075  0  2.283153  0
O  O66  1  0.91786709  0.64990193  0.91685360  1  0  -0.675372  0  2.032091  0  0  -0.622699  0  2.27699  0  0  -0.653898  0  2.267367  0  0  -0.321032  -0.600826  0  2.283014  0
O  O67  1  0.08212613  0.85010515  0.41685542  1  0  -0.675462  0  2.032379  0  0  -0.622767  0  2.277233  0  0  -0.653966  0  2.26761  0  0  -0.321027  -0.600895  0  2.283254  0
O  O68  1  0.96195780  0.34145575  0.23745761  1  0  -0.651917  0  1.995065  0  0  -0.589809  0  2.228873  0  0  -0.620908  0  2.217575  0  0  -0.345813  -0.567547  0  2.236056  0
O  O69  1  0.03802142  0.15855676  0.73745900  1  0  -0.651786  0  1.995386  0  0  -0.589696  0  2.229259  0  0  -0.620798  0  2.21797  0  0  -0.345815  -0.567435  0  2.236455  0
O  O70  1  0.03803665  0.65854948  0.76253597  1  0  -0.651838  0  1.995202  0  0  -0.589778  0  2.22904  0  0  -0.620878  0  2.217746  0  0  -0.345838  -0.567513  0  2.236224  0
O  O71  1  0.96194343  0.84145718  0.26253973  1  0  -0.652031  0  1.994882  0  0  -0.589911  0  2.228705  0  0  -0.621016  0  2.217405  0  0  -0.345872  -0.567653  0  2.235887  0
O  O72  1  0.30369445  0.52008056  0.92256657  1  0  -0.603899  0  2.0451  0  0  -0.562932  0  2.292737  0  0  -0.590759  0  2.284853  0  0  -0.346485  -0.543109  0  2.297572  0
O  O73  1  0.69631152  0.97991373  0.42256841  1  0  -0.603854  0  2.044829  0  0  -0.562937  0  2.292527  0  0  -0.590762  0  2.284625  0  0  -0.346417  -0.543107  0  2.297361  0
O  O74  1  0.69633205  0.47990804  0.07743215  1  0  -0.603754  0  2.045091  0  0  -0.56281  0  2.292803  0  0  -0.59064  0  2.284919  0  0  -0.34632  -0.542985  0  2.297619  0
O  O75  1  0.30367381  0.02008945  0.57744206  1  0  -0.603775  0  2.044962  0  0  -0.562706  0  2.292665  0  0  -0.59053  0  2.284779  0  0  -0.346296  -0.542884  0  2.297484  0
O  O76  1  0.53233784  0.67462935  0.99336070  1  0  -0.634604  0  2.114501  0  0  -0.574435  0  2.34859  0  0  -0.605892  0  2.34107  0  0  -0.33226  -0.55246  0  2.353164  0
O  O77  1  0.46767086  0.82537305  0.49337168  1  0  -0.634502  0  2.114879  0  0  -0.574336  0  2.348924  0  0  -0.605794  0  2.341403  0  0  -0.332236  -0.552364  0  2.353499  0
O  O78  1  0.46768936  0.32536223  0.00663141  1  0  -0.634502  0  2.114599  0  0  -0.574288  0  2.348694  0  0  -0.605747  0  2.341179  0  0  -0.332137  -0.552321  0  2.353248  0
O  O79  1  0.53232526  0.17463318  0.50663953  1  0  -0.634605  0  2.114374  0  0  -0.574354  0  2.348574  0  0  -0.605813  0  2.34106  0  0  -0.332182  -0.552387  0  2.353131  0
O  O80  1  0.84006846  0.38791628  0.88258729  1  0  -0.857965  0  1.896083  0  0  -0.80256  0  2.084112  0  0  -0.827261  0  2.055594  0  0  -0.596973  -0.784698  0  2.103728  0
O  O81  1  0.15994133  0.11208485  0.38258988  1  0  -0.858046  0  1.895926  0  0  -0.802689  0  2.083876  0  0  -0.827413  0  2.055363  0  0  -0.597018  -0.784832  0  2.103498  0
O  O82  1  0.15995009  0.61207523  0.11740776  1  0  -0.857974  0  1.896051  0  0  -0.802524  0  2.083978  0  0  -0.827256  0  2.055503  0  0  -0.59695  -0.784667  0  2.1036  0
O  O83  1  0.84004829  0.88792432  0.61741105  1  0  -0.857981  0  1.895938  0  0  -0.802588  0  2.083994  0  0  -0.827292  0  2.055468  0  0  -0.596937  -0.784722  0  2.103615  0
O  O84  1  0.47095413  0.30210594  0.78903623  1  0  -0.870808  0  1.802941  0  0  -0.826506  0  1.969989  0  0  -0.850221  0  1.936753  0  0  -0.625515  -0.809152  0  1.993412  0
O  O85  1  0.52904376  0.19788398  0.28904090  1  0  -0.870781  0  1.802989  0  0  -0.826478  0  1.970043  0  0  -0.850189  0  1.936818  0  0  -0.625496  -0.809133  0  1.993462  0
O  O86  1  0.52904762  0.69788147  0.21095589  1  0  -0.870722  0  1.80312  0  0  -0.826391  0  1.97024  0  0  -0.850127  0  1.936958  0  0  -0.625474  -0.809039  0  1.993656  0
O  O87  1  0.47095028  0.80210735  0.71095562  1  0  -0.870757  0  1.803036  0  0  -0.826459  0  1.970048  0  0  -0.850171  0  1.936822  0  0  -0.62546  -0.809104  0  1.993468  0
