# generated using pymatgen
data_Zn3H50C54(NO)12
_symmetry_space_group_name_H-M   'P 1'
_cell_length_a   15.40225212
_cell_length_b   15.40087524
_cell_length_c   16.69240862
_cell_angle_alpha   102.63858483
_cell_angle_beta   109.62563228
_cell_angle_gamma   113.50792048
_symmetry_Int_Tables_number   1
_chemical_formula_structural   Zn3H50C54(NO)12
_chemical_formula_sum   'Zn6 H100 C108 N24 O24'
_cell_volume   3121.76239024
_cell_formula_units_Z   2
loop_
 _symmetry_equiv_pos_site_id
 _symmetry_equiv_pos_as_xyz
  1  'x, y, z'
loop_
 _atom_site_type_symbol
 _atom_site_label
 _atom_site_symmetry_multiplicity
 _atom_site_fract_x
 _atom_site_fract_y
 _atom_site_fract_z
 _atom_site_occupancy
 _atom_site_pbe_bader_charge
 _atom_site_pbe_bader_spin_density
 _atom_site_pbe_cm5_charge
 _atom_site_pbe_ddec_charge
 _atom_site_pbe_ddec_spin_density
 _atom_site_pbe_ddec_sum_bond_order
 _atom_site_pbe_magmom
Zn  Zn0  1  0.78775775  0.03772532  0.75027037  1  1.259506  0  0.696802  0.779636  0  2.442518  0
Zn  Zn1  1  0.21223890  0.96226990  0.24972992  1  1.259355  0  0.696774  0.779546  0  2.442665  0
Zn  Zn2  1  0.98716615  0.74263177  0.69886070  1  1.256861  0  0.688832  0.779851  0  2.407016  0
Zn  Zn3  1  0.54375971  0.28830831  0.80116142  1  1.254499  0  0.689032  0.780189  0  2.406053  0
Zn  Zn4  1  0.01283348  0.25736565  0.30113949  1  1.256953  0  0.688869  0.779886  0  2.406996  0
Zn  Zn5  1  0.45624100  0.71169124  0.19884066  1  1.254557  0  0.689008  0.780183  0  2.405998  0
H  H6  1  0.15085919  0.17951329  0.06879228  1  0.063145  0  0.098548  0.099807  0  1.025087  0
H  H7  1  0.61094136  0.08156532  0.43120000  1  0.078116  0  0.098881  0.09992  0  1.025592  0
H  H8  1  0.84913603  0.82048175  0.93120032  1  0.063043  0  0.098518  0.099742  0  1.025043  0
H  H9  1  0.38906094  0.91843508  0.56880212  1  0.078102  0  0.098872  0.099937  0  1.025632  0
H  H10  1  0.14457490  0.16456911  0.74620380  1  0.099571  0  0.104813  0.109189  0  1.034158  0
H  H11  1  0.91874217  0.39834721  0.75374945  1  0.12396  0  0.10463  0.108308  0  1.032161  0
H  H12  1  0.85543009  0.83544279  0.25379637  1  0.099602  0  0.104832  0.109136  0  1.034129  0
H  H13  1  0.08125893  0.60165341  0.24625302  1  0.123895  0  0.104598  0.108264  0  1.032207  0
H  H14  1  0.64510317  0.93803853  0.53663486  1  0.150824  0  0.120948  0.122236  0  1.033136  0
H  H15  1  0.90156431  0.10862340  0.96393595  1  0.169137  0  0.12046  0.121465  0  1.034155  0
H  H16  1  0.35489881  0.06196242  0.46335989  1  0.150933  0  0.120961  0.122255  0  1.033163  0
H  H17  1  0.09843467  0.89137041  0.03606905  1  0.169186  0  0.120489  0.121508  0  1.034061  0
H  H18  1  0.93901293  0.04199215  0.44220139  1  0.023108  0  0.09457  0.091031  0  0.986771  0
H  H19  1  0.09977775  0.49687838  0.05793846  1  0.015197  0  0.094727  0.091746  0  0.986011  0
H  H20  1  0.06099186  0.95800817  0.55779621  1  0.02304  0  0.094587  0.091002  0  0.986774  0
H  H21  1  0.90022118  0.50312015  0.94206494  1  0.015196  0  0.094745  0.091783  0  0.986009  0
H  H22  1  0.93704940  0.92618590  0.39637631  1  0.039959  0  0.093431  0.093193  0  1.0161  0
H  H23  1  0.02971425  0.54075534  0.10359240  1  0.05548  0  0.09335  0.092979  0  1.016273  0
H  H24  1  0.06295502  0.07381130  0.60362091  1  0.040178  0  0.093377  0.09311  0  1.016198  0
H  H25  1  0.97028410  0.45924195  0.89641196  1  0.055477  0  0.093354  0.093011  0  1.016309  0
H  H26  1  0.85413588  0.97598380  0.53446427  1  0.103055  0  0.117892  0.11572  0  0.984008  0
H  H27  1  0.94149017  0.31969065  0.96565307  1  0.125823  0  0.118186  0.116322  0  0.983504  0
H  H28  1  0.14587319  0.02401972  0.46553688  1  0.103035  0  0.117912  0.115735  0  0.984061  0
H  H29  1  0.05850937  0.68030707  0.03434936  1  0.125641  0  0.118179  0.116327  0  0.983557  0
H  H30  1  0.77395205  0.88960282  0.41329389  1  0.078441  0  0.111657  0.103661  0  0.985595  0
H  H31  1  0.97625705  0.36073882  0.08682802  1  0.10458  0  0.111306  0.103449  0  0.986202  0
H  H32  1  0.22605464  0.11039909  0.58670798  1  0.078475  0  0.11165  0.10369  0  0.985603  0
H  H33  1  0.02374089  0.63925804  0.91317437  1  0.104595  0  0.111347  0.103503  0  0.98616  0
H  H34  1  0.74271239  0.79602955  0.70950918  1  0.22855  0  0.13078  0.113522  0  1.057557  0
H  H35  1  0.58674199  0.03330005  0.79083335  1  0.220231  0  0.130497  0.112556  0  1.058461  0
H  H36  1  0.25728692  0.20396778  0.29048521  1  0.228459  0  0.130848  0.113644  0  1.057561  0
H  H37  1  0.41325862  0.96670044  0.20916940  1  0.220178  0  0.130495  0.112529  0  1.058548  0
H  H38  1  0.94293484  0.92053791  0.64857881  1  0.180212  0  0.136667  0.110228  0  1.04604  0
H  H39  1  0.77211682  0.29468415  0.85150589  1  0.197565  0  0.136326  0.10969  0  1.046905  0
H  H40  1  0.05707214  0.07946462  0.35142258  1  0.180189  0  0.136688  0.110251  0  1.046056  0
H  H41  1  0.22788398  0.70531790  0.14849705  1  0.197627  0  0.136306  0.109642  0  1.046887  0
H  H42  1  0.50354983  0.58167758  0.57493102  1  0.013035  0  0.087173  0.074205  0  1.010167  0
H  H43  1  0.50685094  0.92887023  0.92497539  1  0.023706  0  0.087703  0.074306  0  1.010473  0
H  H44  1  0.49645057  0.41832047  0.42506370  1  0.013126  0  0.087144  0.074184  0  1.010106  0
H  H45  1  0.49314976  0.07113211  0.07502980  1  0.023534  0  0.087747  0.074376  0  1.010479  0
H  H46  1  0.45681390  0.56196325  0.45638870  1  0.029725  0  0.094159  0.089275  0  0.999229  0
H  H47  1  0.60553063  0.00034845  0.04358953  1  0.023615  0  0.09461  0.090288  0  0.997857  0
H  H48  1  0.54318351  0.43803400  0.54360769  1  0.029802  0  0.094164  0.089261  0  0.999152  0
H  H49  1  0.39447295  0.99965640  0.95641780  1  0.023706  0  0.094618  0.090294  0  0.997995  0
H  H50  1  0.12219904  0.63016180  0.68615577  1  0.172605  0  0.138422  0.112774  0  1.003299  0
H  H51  1  0.44427755  0.43621800  0.81440993  1  0.152248  0  0.138297  0.112577  0  1.000836  0
H  H52  1  0.87780243  0.36984042  0.31384081  1  0.172556  0  0.138438  0.112781  0  1.003325  0
H  H53  1  0.55571249  0.56377619  0.18558524  1  0.151362  0  0.138307  0.112482  0  1.000812  0
H  H54  1  0.77617156  0.71627879  0.36506399  1  0.200828  0  0.123768  0.140281  0  1.026444  0
H  H55  1  0.85111827  0.41111162  0.13498520  1  0.172228  0  0.123224  0.139455  0  1.026804  0
H  H56  1  0.22383156  0.28372033  0.63493738  1  0.200796  0  0.123762  0.140242  0  1.026584  0
H  H57  1  0.14888065  0.58888755  0.86501661  1  0.172172  0  0.123199  0.13944  0  1.02677  0
H  H58  1  0.84760795  0.61928056  0.47571690  1  0.064758  0  0.111413  0.103642  0  1.019079  0
H  H59  1  0.64362419  0.37220332  0.02427694  1  0.08773  0  0.111384  0.103935  0  1.017071  0
H  H60  1  0.15238630  0.38071585  0.52428723  1  0.064806  0  0.11141  0.103608  0  1.019029  0
H  H61  1  0.35637805  0.62780461  0.97572669  1  0.087712  0  0.111427  0.10399  0  1.01706  0
H  H62  1  0.68744883  0.62733235  0.59271003  1  0.094618  0  0.11999  0.111763  0  0.962346  0
H  H63  1  0.53495914  0.09531206  0.90774209  1  0.095537  0  0.119635  0.111868  0  0.962495  0
H  H64  1  0.31255116  0.37266667  0.40728427  1  0.094547  0  0.119962  0.11175  0  0.962305  0
H  H65  1  0.46504206  0.90468902  0.09226127  1  0.095481  0  0.119616  0.111807  0  0.962475  0
H  H66  1  0.64051808  0.60719527  0.47397290  1  0.068339  0  0.106706  0.083304  0  0.987391  0
H  H67  1  0.63349991  0.16674176  0.02652362  1  0.038018  0  0.106686  0.083705  0  0.986062  0
H  H68  1  0.35947822  0.39280255  0.52602001  1  0.068473  0  0.106654  0.0832  0  0.987301  0
H  H69  1  0.36649977  0.83326160  0.97347897  1  0.038155  0  0.106656  0.083646  0  0.986138  0
H  H70  1  0.36981183  0.91338331  0.71859974  1  0.15666  0  0.125476  0.14019  0  1.030178  0
H  H71  1  0.69419664  0.65088675  0.78084097  1  0.171612  0  0.124899  0.140049  0  1.029916  0
H  H72  1  0.63018871  0.08662470  0.28140452  1  0.156675  0  0.125461  0.140201  0  1.030237  0
H  H73  1  0.30579633  0.34910585  0.21915638  1  0.172267  0  0.124925  0.140052  0  1.029831  0
H  H74  1  0.21377127  0.94325824  0.74444559  1  0.133521  0  0.125519  0.126063  0  0.992365  0
H  H75  1  0.69803721  0.46886221  0.75476011  1  0.12903  0  0.1256  0.125955  0  0.991667  0
H  H76  1  0.78622833  0.05674478  0.25556083  1  0.133942  0  0.125549  0.126115  0  0.992301  0
H  H77  1  0.30195706  0.53113140  0.24524090  1  0.128946  0  0.12561  0.126026  0  0.991666  0
H  H78  1  0.57397072  0.73550750  0.42494585  1  0.137381  0  0.124629  0.132366  0  1.011721  0
H  H79  1  0.81060029  0.14922576  0.07547607  1  0.125358  0  0.124941  0.132596  0  1.013048  0
H  H80  1  0.42602996  0.26449321  0.57504836  1  0.137472  0  0.124683  0.132426  0  1.011664  0
H  H81  1  0.18940173  0.85077479  0.92452967  1  0.125504  0  0.12488  0.132527  0  1.012981  0
H  H82  1  0.26765222  0.07934689  0.01638688  1  0.073255  0  0.091617  0.090511  0  1.039995  0
H  H83  1  0.56338865  0.25118366  0.48354060  1  0.041888  0  0.091571  0.090686  0  1.039936  0
H  H84  1  0.73233993  0.92064550  0.98360495  1  0.073095  0  0.091685  0.090645  0  1.040172  0
H  H85  1  0.43661109  0.74881358  0.51646204  1  0.041824  0  0.091554  0.09064  0  1.040019  0
H  H86  1  0.39626757  0.16609521  0.96016858  1  0.046866  0  0.094995  0.094533  0  1.029612  0
H  H87  1  0.70624663  0.43609179  0.53988720  1  0.063349  0  0.094624  0.093692  0  1.028754  0
H  H88  1  0.60373156  0.83390132  0.03982875  1  0.047029  0  0.095023  0.094574  0  1.029664  0
H  H89  1  0.29375229  0.56390738  0.46011461  1  0.06327  0  0.094653  0.093741  0  1.028828  0
H  H90  1  0.35948275  0.68019129  0.80506969  1  0.028258  0  0.096455  0.091576  0  0.979109  0
H  H91  1  0.37520792  0.55450758  0.69505776  1  -0.004649  0  0.096321  0.091032  0  0.978148  0
H  H92  1  0.64050976  0.31980701  0.19492563  1  0.028138  0  0.096437  0.091535  0  0.979131  0
H  H93  1  0.62478449  0.44549102  0.30493981  1  -0.004483  0  0.096324  0.091044  0  0.978183  0
H  H94  1  0.46530781  0.78583675  0.80696333  1  0.040338  0  0.094467  0.08964  0  0.992414  0
H  H95  1  0.47891343  0.65847869  0.69315130  1  0.023866  0  0.094403  0.090022  0  0.992053  0
H  H96  1  0.53469080  0.21416245  0.19303740  1  0.040364  0  0.09446  0.089644  0  0.992417  0
H  H97  1  0.52107851  0.34151633  0.30684501  1  0.024054  0  0.094365  0.089966  0  0.992096  0
H  H98  1  0.25437282  0.62041491  0.62910062  1  0.07129  0  0.117133  0.095731  0  0.959848  0
H  H99  1  0.49156579  0.62557130  0.87113307  1  0.07037  0  0.116853  0.095352  0  0.959939  0
H  H100  1  0.74562630  0.37959152  0.37089438  1  0.07121  0  0.117114  0.095712  0  0.95983  0
H  H101  1  0.50843062  0.37442709  0.12886543  1  0.070178  0  0.116818  0.095308  0  0.959904  0
H  H102  1  0.35596836  0.73463181  0.63749779  1  0.072384  0  0.116657  0.10156  0  0.974338  0
H  H103  1  0.59728447  0.71851141  0.86247005  1  0.083392  0  0.11674  0.101031  0  0.972875  0
H  H104  1  0.64403627  0.26537633  0.36250357  1  0.072568  0  0.116647  0.101559  0  0.974225  0
H  H105  1  0.40271087  0.28148345  0.13752501  1  0.083375  0  0.116761  0.101057  0  0.972865  0
C  C106  1  0.09926445  0.09697847  0.83558031  1  0.003935  0  -0.015291  -0.073462  0  3.924235  0
C  C107  1  0.76181692  0.26368032  0.66440359  1  -0.041809  0  -0.014809  -0.072494  0  3.922602  0
C  C108  1  0.90073411  0.90302544  0.16441881  1  0.00385  0  -0.015331  -0.073481  0  3.924313  0
C  C109  1  0.23818637  0.73632175  0.33559953  1  -0.041187  0  -0.0149  -0.072552  0  3.922688  0
C  C110  1  0.06342644  0.03010174  0.95464229  1  4.7e-05  0  0.006814  0.071959  0  3.950568  0
C  C111  1  0.57575711  0.10876145  0.54539758  1  0.011359  0  0.005339  0.068163  0  3.952674  0
C  C112  1  0.93657027  0.96989650  0.04535260  1  0.000112  0  0.006794  0.071845  0  3.950516  0
C  C113  1  0.42424290  0.89123769  0.45460143  1  0.011211  0  0.005345  0.068084  0  3.952478  0
C  C114  1  0.97611020  0.92772145  0.91593005  1  -0.012191  0  -0.01197  -0.061617  0  3.93159  0
C  C115  1  0.51194179  0.06032750  0.58406637  1  -0.001465  0  -0.010898  -0.059112  0  3.928301  0
C  C116  1  0.02388840  0.07227687  0.08406284  1  -0.011658  0  -0.012038  -0.061718  0  3.931535  0
C  C117  1  0.48806430  0.93967522  0.41593645  1  -0.000955  0  -0.010994  -0.059171  0  3.928416  0
C  C118  1  0.13356875  0.07295698  0.91298769  1  0.02926  0  0.011032  0.08802  0  3.922968  0
C  C119  1  0.66039903  0.22053013  0.58698222  1  0.001022  0  0.011674  0.089807  0  3.921937  0
C  C120  1  0.86642676  0.92704223  0.08701067  1  0.029535  0  0.011113  0.088261  0  3.922802  0
C  C121  1  0.33960160  0.77946691  0.41301899  1  0.000955  0  0.011751  0.089927  0  3.921798  0
C  C122  1  0.98742319  0.07627752  0.78359174  1  1.576725  0  0.198442  0.568372  0  4.226192  0
C  C123  1  0.79289539  0.20390559  0.71662211  1  1.57407  0  0.197753  0.565938  0  4.228624  0
C  C124  1  0.01257516  0.92372753  0.21640560  1  1.576703  0  0.198399  0.568317  0  4.226162  0
C  C125  1  0.20711208  0.79609922  0.28338368  1  1.573761  0  0.197741  0.565931  0  4.228707  0
C  C126  1  0.08544498  0.09931416  0.03853581  1  -0.005885  0  -0.084564  -0.145317  0  3.955252  0
C  C127  1  0.56095576  0.04670371  0.46151965  1  -0.046443  0  -0.084955  -0.144898  0  3.953889  0
C  C128  1  0.91455162  0.90068287  0.96145505  1  -0.00506  0  -0.084616  -0.145304  0  3.955235  0
C  C129  1  0.43905035  0.95329772  0.53848633  1  -0.046115  0  -0.085005  -0.145016  0  3.953795  0
C  C130  1  0.94723583  0.84208074  0.83039854  1  1.563562  0  0.20495  0.578795  0  4.1964  0
C  C131  1  0.51197054  0.11709294  0.66963017  1  1.576167  0  0.202485  0.57536  0  4.199409  0
C  C132  1  0.05276287  0.15791739  0.16959681  1  1.563266  0  0.20506  0.578952  0  4.196262  0
C  C133  1  0.48803436  0.88290795  0.33037302  1  1.576139  0  0.2025  0.57535  0  4.199518  0
C  C134  1  0.17201444  0.14510857  0.80502433  1  -0.052131  0  -0.078281  -0.104516  0  3.964912  0
C  C135  1  0.84048664  0.36696616  0.69490793  1  -0.02054  0  -0.078591  -0.103185  0  3.960442  0
C  C136  1  0.82798799  0.85489876  0.19497480  1  -0.052047  0  -0.078264  -0.10445  0  3.964987  0
C  C137  1  0.15951452  0.63303824  0.30509226  1  -0.020478  0  -0.078514  -0.103118  0  3.960388  0
C  C138  1  0.65279974  0.87749010  0.55519853  1  0.3992  0  0.002654  -0.020728  0  3.971336  0
C  C139  1  0.82246466  0.09778357  0.94530810  1  0.383673  0  0.003017  -0.019701  0  3.974333  0
C  C140  1  0.34720135  0.12250901  0.44479768  1  0.399259  0  0.00262  -0.020723  0  3.971253  0
C  C141  1  0.17753597  0.90221563  0.05469779  1  0.383645  0  0.003031  -0.019597  0  3.974207  0
C  C142  1  0.94524215  0.97855389  0.45856513  1  0.011793  0  -0.162922  -0.163378  0  3.922163  0
C  C143  1  0.01995216  0.48671054  0.04147524  1  0.007604  0  -0.162943  -0.163903  0  3.921331  0
C  C144  1  0.05475975  0.02144393  0.54143033  1  -0.009292  0  -0.162892  -0.163186  0  3.922178  0
C  C145  1  0.98004647  0.51328802  0.95852706  1  -0.015492  0  -0.162959  -0.163965  0  3.921399  0
C  C146  1  0.85060885  0.92298997  0.47591017  1  0.289783  0  -0.051937  -0.0783  0  3.857826  0
C  C147  1  0.94705020  0.37474607  0.02418650  1  0.233182  0  -0.052161  -0.078206  0  3.857731  0
C  C148  1  0.14939706  0.07700979  0.52409091  1  0.289395  0  -0.051919  -0.078391  0  3.857893  0
C  C149  1  0.05294815  0.62525122  0.97581787  1  0.233084  0  -0.052206  -0.078315  0  3.857701  0
C  C150  1  0.70318498  0.80782185  0.64876747  1  0.900235  0  0.131758  0.069411  0  3.913773  0
C  C151  1  0.65926011  0.05457521  0.85162433  1  0.89839  0  0.132022  0.070016  0  3.916632  0
C  C152  1  0.29681331  0.19217725  0.35122747  1  0.900315  0  0.131709  0.069282  0  3.913832  0
C  C153  1  0.34074002  0.94542310  0.14837871  1  0.898287  0  0.131989  0.069993  0  3.916687  0
C  C154  1  0.90821199  0.84982859  0.58830027  1  0.972011  0  0.146119  0.100198  0  3.89764  0
C  C155  1  0.76162142  0.32017885  0.91176106  1  0.955537  0  0.14537  0.098262  0  3.898713  0
C  C156  1  0.09179262  0.15017232  0.41170183  1  0.972455  0  0.146117  0.100166  0  3.897566  0
C  C157  1  0.23838135  0.67982513  0.08824232  1  0.955314  0  0.145371  0.098314  0  3.898566  0
C  C158  1  0.51333251  0.55593300  0.51317576  1  -0.03363  0  -0.163055  -0.165254  0  3.963634  0
C  C159  1  0.54279990  0.00025537  0.98686849  1  -0.035247  0  -0.163332  -0.16496  0  3.962142  0
C  C160  1  0.48666667  0.44406731  0.48681929  1  -0.016564  0  -0.163001  -0.165154  0  3.963212  0
C  C161  1  0.45720376  0.99975122  0.01313657  1  -0.009788  0  -0.163496  -0.165196  0  3.962435  0
C  C162  1  0.16733486  0.71069964  0.69744953  1  0.960812  0  0.140251  0.079668  0  3.925269  0
C  C163  1  0.51324165  0.46992016  0.80275014  1  0.973326  0  0.142164  0.08284  0  3.920174  0
C  C164  1  0.83266790  0.28930422  0.30254915  1  0.960653  0  0.140261  0.079725  0  3.925131  0
C  C165  1  0.48675191  0.53007444  0.19724936  1  0.97447  0  0.142185  0.083008  0  3.919904  0
C  C166  1  0.82112732  0.74127795  0.43972905  1  0.262649  0  -0.002506  -0.121273  0  3.919776  0
C  C167  1  0.80152695  0.38154025  0.06032953  1  0.323476  0  -0.001785  -0.118534  0  3.918328  0
C  C168  1  0.17887529  0.25872243  0.56027416  1  0.262693  0  -0.002564  -0.121335  0  3.91988  0
C  C169  1  0.19847286  0.61846089  0.93967554  1  0.32323  0  -0.001796  -0.118595  0  3.918467  0
C  C170  1  0.85725930  0.69574982  0.49470185  1  0.385657  0  -0.012635  -0.051799  0  4.050142  0
C  C171  1  0.70109576  0.36280967  0.00530585  1  0.338689  0  -0.013437  -0.054416  0  4.049242  0
C  C172  1  0.14273873  0.30424814  0.50529985  1  0.385546  0  -0.01259  -0.051685  0  4.050052  0
C  C173  1  0.29890779  0.63719570  0.99469520  1  0.338858  0  -0.01343  -0.054411  0  4.049103  0
C  C174  1  0.62810900  0.62898656  0.53467745  1  0.313046  0  -0.048857  -0.060345  0  3.88135  0
C  C175  1  0.59450948  0.09374135  0.96566497  1  0.338751  0  -0.049179  -0.06315  0  3.879044  0
C  C176  1  0.37188643  0.37100800  0.46531536  1  0.313072  0  -0.048763  -0.060205  0  3.880942  0
C  C177  1  0.40549607  0.90626532  0.03433810  1  0.33877  0  -0.049077  -0.062923  0  3.879046  0
C  C178  1  0.29675513  0.85957760  0.71716097  1  0.300207  0  0.002293  -0.110386  0  3.887229  0
C  C179  1  0.64192908  0.57932252  0.78240268  1  0.285989  0  0.002608  -0.110635  0  3.887898  0
C  C180  1  0.70324466  0.14042482  0.28284095  1  0.300355  0  0.002299  -0.110442  0  3.887285  0
C  C181  1  0.35806477  0.42067270  0.21759634  1  0.285186  0  0.002597  -0.11067  0  3.888061  0
C  C182  1  0.21801645  0.87332321  0.72845346  1  0.371642  0  0.005058  -0.020247  0  3.968265  0
C  C183  1  0.64431371  0.48925680  0.77103105  1  0.401267  0  0.004848  -0.019759  0  3.970474  0
C  C184  1  0.78198669  0.12668528  0.27155186  1  0.371331  0  0.004998  -0.02033  0  3.968449  0
C  C185  1  0.35567994  0.51073826  0.22896934  1  0.401287  0  0.004868  -0.019874  0  3.970573  0
C  C186  1  0.61874368  0.77818465  0.49996214  1  0.293886  0  0.002274  -0.105476  0  3.90411  0
C  C187  1  0.77835802  0.11903583  0.00047002  1  0.305576  0  0.002237  -0.106505  0  3.910294  0
C  C188  1  0.38125858  0.22181832  0.50003369  1  0.293608  0  0.002303  -0.105566  0  3.904057  0
C  C189  1  0.22164112  0.88096297  0.99953671  1  0.289394  0  0.002312  -0.106479  0  3.910311  0
C  C190  1  0.27873317  0.17086115  0.84915930  1  0.035903  0  -0.030121  -0.046799  0  4.013163  0
C  C191  1  0.82207131  0.42956707  0.65080878  1  0.004704  0  -0.030269  -0.048698  0  4.012645  0
C  C192  1  0.72126777  0.82914438  0.15083911  1  0.018531  0  -0.030065  -0.046723  0  4.013127  0
C  C193  1  0.17792959  0.57043404  0.34919348  1  0.004639  0  -0.030248  -0.04861  0  4.012376  0
C  C194  1  0.24133657  0.09898034  0.95722853  1  -0.080593  0  -0.100168  -0.154016  0  4.019105  0
C  C195  1  0.64218111  0.28402076  0.54267729  1  -0.007867  0  -0.100328  -0.15467  0  4.016014  0
C  C196  1  0.75865704  0.90101589  0.04276401  1  -0.081304  0  -0.100272  -0.154332  0  4.019438  0
C  C197  1  0.35782101  0.71597949  0.45732620  1  -0.007872  0  -0.100305  -0.154597  0  4.016086  0
C  C198  1  0.31295747  0.14666268  0.92588898  1  -0.092713  0  -0.094972  -0.106376  0  4.027171  0
C  C199  1  0.72114276  0.38703024  0.57407440  1  -0.123612  0  -0.094678  -0.105129  0  4.022965  0
C  C200  1  0.68703753  0.85333349  0.07410184  1  -0.075092  0  -0.095099  -0.106508  0  4.02731  0
C  C201  1  0.27886228  0.61296842  0.42593126  1  -0.123536  0  -0.094744  -0.105283  0  4.023005  0
C  C202  1  0.35341731  0.22338045  0.81375947  1  1.560728  0  0.194285  0.56612  0  4.244234  0
C  C203  1  0.90982069  0.53972841  0.68624436  1  1.57192  0  0.194339  0.566718  0  4.242429  0
C  C204  1  0.64658391  0.77661923  0.18624232  1  1.560628  0  0.194341  0.566137  0  4.244332  0
C  C205  1  0.09017884  0.46026995  0.31375650  1  1.571945  0  0.194324  0.566592  0  4.242323  0
C  C206  1  0.39859092  0.70514681  0.76316477  1  -0.021591  0  -0.158273  -0.165323  0  3.941079  0
C  C207  1  0.44204994  0.63556356  0.73697549  1  0.012475  0  -0.158415  -0.165384  0  3.939449  0
C  C208  1  0.60140617  0.29485327  0.23683364  1  -0.021414  0  -0.158342  -0.165397  0  3.941156  0
C  C209  1  0.55794359  0.36443372  0.26302243  1  0.011757  0  -0.158374  -0.165349  0  3.939501  0
C  C210  1  0.31734315  0.70136054  0.67660970  1  0.307302  0  -0.044038  -0.060574  0  3.880217  0
C  C211  1  0.52484943  0.64082597  0.82350085  1  0.300836  0  -0.043436  -0.058943  0  3.877952  0
C  C212  1  0.68265860  0.29864510  0.32338952  1  0.307269  0  -0.043939  -0.060495  0  3.880033  0
C  C213  1  0.47514419  0.35917101  0.17649482  1  0.301219  0  -0.043416  -0.058973  0  3.877912  0
N  N214  1  0.91162441  0.76447735  0.58719622  1  -1.234359  0  -0.367297  -0.301181  0  3.624988  0
N  N215  1  0.67740400  0.32478866  0.91283622  1  -1.233742  0  -0.36625  -0.298588  0  3.623519  0
N  N216  1  0.08837589  0.23552316  0.41280544  1  -1.234677  0  -0.367342  -0.301269  0  3.624957  0
N  N217  1  0.32259818  0.67521473  0.08716656  1  -1.23355  0  -0.366357  -0.298754  0  3.623461  0
N  N218  1  0.70473813  0.89465147  0.64751415  1  -1.23805  0  -0.363809  -0.293862  0  3.625551  0
N  N219  1  0.74735463  0.05732984  0.85296339  1  -1.231322  0  -0.363751  -0.294613  0  3.628999  0
N  N220  1  0.29526426  0.10534852  0.35248102  1  -1.237931  0  -0.36378  -0.293866  0  3.625512  0
N  N221  1  0.25264643  0.94266700  0.14704136  1  -1.231142  0  -0.363752  -0.29461  0  3.629058  0
N  N222  1  0.85373316  0.83833663  0.50047352  1  -1.231072  0  -0.241441  0.056358  0  3.764266  0
N  N223  1  0.83785289  0.35338351  0.99959228  1  -1.234778  0  -0.24106  0.05613  0  3.762322  0
N  N224  1  0.14627322  0.16166530  0.49952727  1  -1.230942  0  -0.241421  0.05644  0  3.764045  0
N  N225  1  0.16214625  0.64661313  0.00040976  1  -1.234526  0  -0.240989  0.056277  0  3.762221  0
N  N226  1  0.65195965  0.73560760  0.56022817  1  -1.239735  0  -0.246676  0.036466  0  3.796254  0
N  N227  1  0.67557177  0.09201720  0.94013544  1  -1.241028  0  -0.246425  0.039195  0  3.796803  0
N  N228  1  0.34803906  0.26438978  0.43976404  1  -1.239892  0  -0.246799  0.0365  0  3.796201  0
N  N229  1  0.32442773  0.90798320  0.05986541  1  -1.225028  0  -0.246447  0.03915  0  3.79677  0
N  N230  1  0.13773264  0.77983809  0.71574417  1  -1.223695  0  -0.350375  -0.282108  0  3.590978  0
N  N231  1  0.56383114  0.42186942  0.78412998  1  -1.238462  0  -0.351024  -0.284178  0  3.595027  0
N  N232  1  0.86226823  0.22016570  0.28425650  1  -1.223922  0  -0.350366  -0.282149  0  3.591057  0
N  N233  1  0.43616180  0.57812523  0.21586735  1  -1.238352  0  -0.351021  -0.284173  0  3.594778  0
N  N234  1  0.26305655  0.75572243  0.69716000  1  -1.223787  0  -0.24087  0.039839  0  3.774471  0
N  N235  1  0.55844622  0.56585256  0.80286741  1  -1.234036  0  -0.241865  0.03833  0  3.772291  0
N  N236  1  0.73694500  0.24428304  0.30284059  1  -1.223753  0  -0.240895  0.039876  0  3.774251  0
N  N237  1  0.44154322  0.43414104  0.19712716  1  -1.234129  0  -0.241894  0.038433  0  3.772166  0
O  O238  1  0.85345961  0.76482459  0.78370319  1  -1.194807  0  -0.330274  -0.571413  0  2.149555  0
O  O239  1  0.48146361  0.07001444  0.71634844  1  -1.19345  0  -0.328067  -0.568965  0  2.151097  0
O  O240  1  0.14653982  0.23517115  0.21629210  1  -1.194902  0  -0.33032  -0.571495  0  2.149476  0
O  O241  1  0.51854298  0.92998917  0.28365724  1  -1.193446  0  -0.328114  -0.568937  0  2.151116  0
O  O242  1  0.02553108  0.85310947  0.81196550  1  -1.163591  0  -0.329592  -0.54804  0  2.331606  0
O  O243  1  0.54147289  0.21385692  0.68812262  1  -1.169146  0  -0.329465  -0.547798  0  2.331374  0
O  O244  1  0.97447115  0.14688703  0.18803420  1  -1.163148  0  -0.329687  -0.548115  0  2.331692  0
O  O245  1  0.45853460  0.78614510  0.31188006  1  -1.169247  0  -0.3294  -0.54781  0  2.331553  0
O  O246  1  0.93401146  0.07102142  0.82954127  1  -1.177663  0  -0.326294  -0.541827  0  2.361622  0
O  O247  1  0.74166510  0.10452121  0.67084234  1  -1.161533  0  -0.325651  -0.540673  0  2.363151  0
O  O248  1  0.06599081  0.92898306  0.17046082  1  -1.17724  0  -0.326274  -0.54181  0  2.361685  0
O  O249  1  0.25832923  0.89547770  0.32916266  1  -1.161564  0  -0.325634  -0.540611  0  2.363412  0
O  O250  1  0.95217297  0.06521363  0.70030658  1  -1.183963  0  -0.325887  -0.557873  0  2.141642  0
O  O251  1  0.86494692  0.25204209  0.79997207  1  -1.189937  0  -0.325387  -0.556891  0  2.144048  0
O  O252  1  0.04782534  0.93479550  0.29969073  1  -1.184121  0  -0.325856  -0.557791  0  2.141644  0
O  O253  1  0.13506217  0.74796078  0.20003066  1  -1.190069  0  -0.325381  -0.556927  0  2.143916  0
O  O254  1  0.32220136  0.24845818  0.74770583  1  -1.197027  0  -0.334688  -0.58  0  2.147755  0
O  O255  1  0.00096677  0.57474810  0.75238178  1  -1.198398  0  -0.334596  -0.579902  0  2.145869  0
O  O256  1  0.67780829  0.75154873  0.25229905  1  -1.196937  0  -0.334744  -0.580004  0  2.147724  0
O  O257  1  0.99902964  0.42525028  0.24761672  1  -1.198409  0  -0.334596  -0.579898  0  2.145755  0
O  O258  1  0.44968971  0.23956180  0.85641230  1  -1.177694  0  -0.344421  -0.569661  0  2.354529  0
O  O259  1  0.88315227  0.59325346  0.64359110  1  -1.178501  0  -0.344043  -0.569387  0  2.355318  0
O  O260  1  0.55030875  0.76043100  0.14358514  1  -1.177676  0  -0.344422  -0.569672  0  2.354606  0
O  O261  1  0.11685076  0.40674316  0.35640941  1  -1.178525  0  -0.344012  -0.569262  0  2.355233  0
