# generated using pymatgen
data_CuH15C17N4ClO4
_symmetry_space_group_name_H-M   'P 1'
_cell_length_a   8.01975081
_cell_length_b   13.01017946
_cell_length_c   18.17670966
_cell_angle_alpha   106.57257980
_cell_angle_beta   89.99934873
_cell_angle_gamma   90.00000155
_symmetry_Int_Tables_number   1
_chemical_formula_structural   CuH15C17N4ClO4
_chemical_formula_sum   'Cu4 H60 C68 N16 Cl4 O16'
_cell_volume   1817.74540732
_cell_formula_units_Z   4
loop_
 _symmetry_equiv_pos_site_id
 _symmetry_equiv_pos_as_xyz
  1  'x, y, z'
loop_
 _atom_site_type_symbol
 _atom_site_label
 _atom_site_symmetry_multiplicity
 _atom_site_fract_x
 _atom_site_fract_y
 _atom_site_fract_z
 _atom_site_occupancy
 _atom_site_pbe_bader_charge
 _atom_site_pbe_bader_spin_density
 _atom_site_pbe_cm5_charge
 _atom_site_pbe_ddec_charge
 _atom_site_pbe_ddec_spin_density
 _atom_site_pbe_ddec_sum_bond_order
 _atom_site_pbe_magmom
Cu  Cu0  1  0.80359519  0.96980792  0.85806737  1  1.033587  0.558217  0.739711  0.743451  0.73455  2.275946  0.557
Cu  Cu1  1  0.30359945  0.03017863  0.64194640  1  1.033478  0.558118  0.739625  0.743259  0.734419  2.275994  0.557
Cu  Cu2  1  0.19635087  0.03023999  0.14188742  1  1.033489  0.553888  0.739689  0.743319  0.729407  2.27573  0.553
Cu  Cu3  1  0.69635534  0.96974856  0.35811485  1  1.033001  -0.553813  0.739655  0.743406  -0.770269  2.275516  -0.553
H  H4  1  0.64871197  0.21737905  0.11886385  1  0.561171  0.000234  0.306458  0.294293  0.0002  0.993974  0.0
H  H5  1  0.14871697  0.78262004  0.38113418  1  0.561124  0.000241  0.306425  0.294248  0.000139  0.994052  0.0
H  H6  1  0.35127524  0.78262333  0.88114167  1  0.561292  0.000232  0.306465  0.294297  0.000195  0.993905  0.0
H  H7  1  0.85127772  0.21736949  0.61886159  1  0.561222  -0.000239  0.30644  0.294362  -0.000153  0.993973  0.0
H  H8  1  0.91671405  0.40512414  0.88063195  1  0.091133  0.000254  0.104108  0.117078  0.000178  0.995161  0.0
H  H9  1  0.41673575  0.59486446  0.61935803  1  0.091137  0.000248  0.104163  0.117189  0.000173  0.995105  0.0
H  H10  1  0.08326194  0.59488147  0.11938633  1  0.090952  -0.000225  0.104128  0.11714  -0.000176  0.995137  0.0
H  H11  1  0.58329261  0.40511300  0.38062319  1  0.09069  0.00023  0.10406  0.11705  0.000171  0.995113  0.0
H  H12  1  0.85036939  0.50412722  0.01542119  1  0.114221  6.7e-05  0.097883  0.062634  3.6e-05  1.052795  0.0
H  H13  1  0.35038504  0.49587695  0.48456974  1  0.114175  7e-05  0.097894  0.062681  3.1e-05  1.053005  0.0
H  H14  1  0.14962280  0.49589202  0.98459545  1  0.11456  6.1e-05  0.097852  0.062664  3.5e-05  1.052879  0.0
H  H15  1  0.64963708  0.50409730  0.51540918  1  0.114759  -5.2e-05  0.097821  0.06266  -4.3e-05  1.052956  0.0
H  H16  1  0.87599633  0.20437091  0.83399301  1  0.119911  0.000516  0.110408  0.127202  0.000302  1.022865  0.0
H  H17  1  0.37601827  0.79561621  0.66600291  1  0.120057  0.000519  0.11041  0.127225  0.000305  1.02285  0.0
H  H18  1  0.12402205  0.79564757  0.16603723  1  0.119963  -3.5e-05  0.110357  0.127239  -0.000101  1.022745  0.0
H  H19  1  0.62402755  0.20434360  0.33397417  1  0.120431  3.6e-05  0.110358  0.1272  8.7e-05  1.022775  0.0
H  H20  1  0.65579182  0.02806596  0.02946013  1  0.160015  0.000618  0.144258  0.112639  0.00027  0.978804  0.0
H  H21  1  0.15581960  0.97193472  0.47054370  1  0.159935  0.000535  0.144197  0.112524  0.000161  0.978874  0.0
H  H22  1  0.34420910  0.97193078  0.97053820  1  0.159721  0.00062  0.144283  0.112603  0.000273  0.978931  0.0
H  H23  1  0.84421125  0.02805081  0.52945731  1  0.159835  -0.000534  0.144251  0.112702  -0.000184  0.978865  0.0
H  H24  1  0.70533453  0.70234942  0.71517347  1  0.080393  0.003495  0.104756  0.105891  0.001905  1.000873  0.002
H  H25  1  0.20532034  0.29767097  0.78481573  1  0.080038  0.003504  0.104716  0.105842  0.001911  1.000557  0.002
H  H26  1  0.29466889  0.29765690  0.28481139  1  0.080413  0.003518  0.104809  0.105886  0.00192  1.000517  0.002
H  H27  1  0.79467809  0.70233699  0.21517992  1  0.080211  -0.003515  0.104761  0.105899  -0.002018  1.000583  -0.002
H  H28  1  0.67391362  0.83075209  0.70035210  1  0.096069  -5.7e-05  0.12084  0.132147  -0.000129  1.003612  0.0
H  H29  1  0.17390762  0.16925157  0.79964267  1  0.096209  -5e-05  0.120835  0.132074  -0.000125  1.003541  0.0
H  H30  1  0.32612471  0.16923016  0.29962073  1  0.09654  -6.5e-05  0.120853  0.132193  -0.000193  1.003255  0.0
H  H31  1  0.82612822  0.83075323  0.20036995  1  0.096332  6.2e-05  0.12086  0.132215  0.000192  1.003433  0.0
H  H32  1  0.92165218  0.89634735  0.68922823  1  0.1373  -0.00014  0.120853  0.140772  -0.000193  0.987408  0.0
H  H33  1  0.42162461  0.10368537  0.81077783  1  0.137043  -0.000141  0.120758  0.140595  -0.000192  0.987194  0.0
H  H34  1  0.07839488  0.10361323  0.31073526  1  0.137181  2.6e-05  0.120828  0.140595  -6.4e-05  0.987175  0.0
H  H35  1  0.57840624  0.89637401  0.18926291  1  0.13687  -2.6e-05  0.120799  0.1405  6.7e-05  0.987247  0.0
H  H36  1  0.06521517  0.79524441  0.69783290  1  0.081464  0.002939  0.101722  0.106102  0.001569  1.023633  0.002
H  H37  1  0.56521777  0.20478598  0.80216672  1  0.081094  0.002943  0.101758  0.106199  0.00157  1.023328  0.002
H  H38  1  0.93481942  0.20477393  0.30215166  1  0.08184  0.002942  0.101583  0.105802  0.001555  1.023226  0.002
H  H39  1  0.43483428  0.79521723  0.19784998  1  0.081699  -0.00294  0.101624  0.105882  -0.001638  1.023409  -0.002
H  H40  1  0.06885560  0.78592365  0.83514855  1  0.069109  0.000496  0.114038  0.105011  8.9e-05  0.995746  0.0
H  H41  1  0.56886310  0.21410272  0.66484968  1  0.069142  0.000521  0.114088  0.105139  0.000106  0.995628  0.0
H  H42  1  0.93114158  0.21409395  0.16485621  1  0.069083  0.000491  0.114092  0.105112  8.6e-05  0.995691  0.0
H  H43  1  0.43115528  0.78590204  0.33514972  1  0.068809  -0.000516  0.114119  0.105125  -0.000116  0.995586  0.0
H  H44  1  0.96888689  0.67695384  0.76827701  1  0.061603  0.007479  0.108648  0.098167  0.003962  0.956523  0.004
H  H45  1  0.46888660  0.32306592  0.73172564  1  0.061402  0.007478  0.10858  0.098086  0.003959  0.956509  0.004
H  H46  1  0.03112277  0.32304694  0.23173424  1  0.061326  0.007456  0.108611  0.098179  0.003953  0.956443  0.004
H  H47  1  0.53113677  0.67694203  0.26826891  1  0.061353  -0.007456  0.108622  0.098116  -0.004163  0.95642  -0.004
H  H48  1  0.73607609  0.58393561  0.80751512  1  0.043141  0.000349  0.10663  0.108952  0.00021  0.983818  0.0
H  H49  1  0.23605949  0.41609115  0.69248568  1  0.04298  0.000353  0.106541  0.108772  0.000213  0.983841  0.0
H  H50  1  0.26392109  0.41608600  0.19249100  1  0.043008  0.000243  0.106559  0.108839  0.000135  0.983656  0.0
H  H51  1  0.76392148  0.58389838  0.30751504  1  0.042679  -0.000243  0.106568  0.108895  -0.000144  0.983685  0.0
H  H52  1  0.57983412  0.54602443  0.91548589  1  0.116783  3.5e-05  0.098192  0.108181  2.7e-05  1.034706  0.0
H  H53  1  0.07982791  0.45398749  0.58451211  1  0.116431  2.1e-05  0.098174  0.108084  1e-05  1.034824  0.0
H  H54  1  0.42017428  0.45398915  0.08451695  1  0.116761  -9e-06  0.098185  0.108127  -1.9e-05  1.03475  0.0
H  H55  1  0.92018050  0.54600525  0.41548761  1  0.116384  2.3e-05  0.098191  0.108149  2.7e-05  1.03462  0.0
H  H56  1  0.79248922  0.83026840  0.07207279  1  0.115312  0.000116  0.102651  0.12155  0.000166  1.02248  0.0
H  H57  1  0.29248606  0.16974316  0.42793257  1  0.115438  -6e-05  0.102672  0.121541  -0.000119  1.022593  0.0
H  H58  1  0.20750297  0.16975400  0.92792854  1  0.115189  0.000107  0.102726  0.121645  0.000137  1.022478  0.0
H  H59  1  0.70753607  0.83025439  0.57206922  1  0.151038  5.1e-05  0.102664  0.121509  8.4e-05  1.022555  0.0
H  H60  1  0.94197084  0.86885294  0.96475442  1  0.066458  -0.000446  0.100879  0.092545  -0.000409  1.032463  0.0
H  H61  1  0.44196432  0.13116850  0.53524870  1  0.066043  -0.000394  0.100889  0.092673  -0.000354  1.032443  0.0
H  H62  1  0.05800889  0.13117345  0.03524112  1  0.066114  -0.000479  0.100944  0.092694  -0.000435  1.032483  0.0
H  H63  1  0.55803536  0.86883307  0.46475611  1  0.066199  0.000429  0.100919  0.09267  0.000352  1.032516  0.0
C  C64  1  0.87137170  0.36095632  0.91937234  1  -0.066031  -1.1e-05  -0.100444  -0.155041  2.8e-05  4.006345  0.0
C  C65  1  0.37138575  0.63903320  0.58061805  1  -0.066045  -3.6e-05  -0.100363  -0.155075  1.1e-05  4.006254  0.0
C  C66  1  0.12860678  0.63905973  0.08064916  1  -0.066051  -0.000629  -0.100413  -0.155164  -0.000473  4.005812  0.0
C  C67  1  0.62863014  0.36093703  0.41936060  1  -0.065832  0.000655  -0.100298  -0.154861  0.000463  4.005901  0.0
C  C68  1  0.83268373  0.41751343  0.99589742  1  0.427392  0.000199  0.030153  0.077952  0.000156  4.026218  0.0
C  C69  1  0.33269226  0.58247779  0.50409295  1  0.426759  0.000199  0.029977  0.077787  0.000152  4.02628  0.0
C  C70  1  0.16730223  0.58249779  0.00412090  1  0.426694  0.000228  0.030097  0.077775  0.000215  4.026395  0.0
C  C71  1  0.66732487  0.41749245  0.49588515  1  0.426772  -0.000225  0.030104  0.077478  -0.000229  4.026586  0.0
C  C72  1  0.75277512  0.26683821  0.02211352  1  0.991776  0.002804  0.214249  0.264445  0.001928  4.067161  0.002
C  C73  1  0.25277251  0.73315661  0.47788809  1  0.991908  0.002834  0.21419  0.264413  0.001957  4.067018  0.003
C  C74  1  0.24719339  0.73317463  0.97790678  1  0.99213  0.002784  0.214303  0.264483  0.001944  4.066693  0.002
C  C75  1  0.74722592  0.26681524  0.52209584  1  0.991003  -0.002815  0.214548  0.264846  -0.002088  4.06658  -0.003
C  C76  1  0.79020788  0.20169565  0.94700447  1  0.412144  0.001401  0.084819  0.099278  0.001394  4.05138  0.001
C  C77  1  0.29021286  0.79829410  0.55299296  1  0.411995  0.001397  0.084904  0.099536  0.001375  4.051759  0.001
C  C78  1  0.20977559  0.79830754  0.05300562  1  0.412128  0.000933  0.084598  0.098967  0.001023  4.051349  0.001
C  C79  1  0.70980303  0.20167616  0.44699284  1  0.412447  -0.000921  0.084759  0.099406  -0.001124  4.050951  -0.001
C  C80  1  0.85021298  0.25019072  0.89303028  1  0.033148  0.001111  -0.07646  -0.110793  0.000771  3.955907  0.001
C  C81  1  0.35022146  0.74980608  0.60696498  1  0.033427  0.001108  -0.076535  -0.110963  0.000767  3.956149  0.001
C  C82  1  0.14978421  0.74982612  0.10698862  1  0.032682  0.000183  -0.076232  -0.110469  -3.4e-05  3.955455  0.0
C  C83  1  0.64980066  0.25016737  0.39301762  1  0.033291  -0.000178  -0.07639  -0.110723  2e-06  3.955465  0.0
C  C84  1  0.69671979  0.09773633  0.01284079  1  1.008047  -0.001154  0.166371  0.197667  -0.000232  3.911014  0.0
C  C85  1  0.19673458  0.90226103  0.48716051  1  1.008518  -0.001313  0.166499  0.197777  -0.000464  3.911386  0.0
C  C86  1  0.30327490  0.90226364  0.98716535  1  1.008917  -0.001167  0.166376  0.197535  -0.000241  3.911435  0.0
C  C87  1  0.80329253  0.09772449  0.51283939  1  1.009119  0.001332  0.166459  0.19775  0.000286  3.911633  0.0
C  C88  1  0.70249122  0.78901503  0.74353593  1  0.238495  0.000486  -0.079457  -0.254672  0.001065  3.882526  -0.002
C  C89  1  0.20250262  0.21098452  0.75644796  1  0.23896  0.000391  -0.079287  -0.254623  0.000995  3.882902  -0.002
C  C90  1  0.29750347  0.21095997  0.25642718  1  0.237488  0.000503  -0.079234  -0.254489  0.001111  3.883279  -0.002
C  C91  1  0.79752324  0.78902027  0.24356025  1  0.238116  -0.000412  -0.079318  -0.254643  -0.001274  3.882818  0.002
C  C92  1  0.56246115  0.81713980  0.80330260  1  1.582511  -6.7e-05  0.205515  0.604355  0.001242  4.153373  0.0
C  C93  1  0.06248408  0.18285453  0.69669467  1  1.582518  -6.7e-05  0.205531  0.604297  0.001232  4.153453  0.0
C  C94  1  0.43750236  0.18286812  0.19667984  1  1.582841  -0.000141  0.205507  0.604267  0.001191  4.152956  0.0
C  C95  1  0.93752183  0.81712624  0.30332242  1  1.583056  0.000142  0.205443  0.604134  -0.00144  4.153647  0.0
C  C96  1  0.98770479  0.86266486  0.72985322  1  0.196011  -0.00025  -0.084222  -0.262399  0.000488  3.898823  -0.002
C  C97  1  0.48767959  0.13736044  0.77013725  1  0.197888  -0.00026  -0.084123  -0.262616  0.000481  3.899225  -0.002
C  C98  1  0.01234227  0.13731815  0.27010546  1  0.1966  -0.000174  -0.084191  -0.262335  0.000585  3.899619  -0.002
C  C99  1  0.51234253  0.86266523  0.22988510  1  0.197197  0.00018  -0.084117  -0.262166  -0.000813  3.899328  0.002
C  C100  1  0.09800698  0.95197979  0.77853927  1  1.5857  -0.00047  0.204049  0.61802  0.000769  4.142321  -0.001
C  C101  1  0.59797787  0.04803772  0.72146693  1  1.584731  -0.000464  0.204134  0.618206  0.000772  4.142343  -0.001
C  C102  1  0.90197774  0.04804895  0.22143584  1  1.58617  0.000941  0.204206  0.618077  0.001908  4.142716  0.001
C  C103  1  0.40198190  0.95194229  0.27856487  1  1.585866  -0.000939  0.204154  0.617993  -0.002159  4.142743  -0.001
C  C104  1  0.94667615  0.75186507  0.81440521  1  0.231839  0.000909  -0.06482  -0.121753  0.00131  3.891472  -0.001
C  C105  1  0.44667825  0.24815634  0.68559128  1  0.231857  0.000922  -0.064792  -0.121952  0.00132  3.891482  -0.001
C  C106  1  0.05331604  0.24814368  0.18558895  1  0.231721  0.000907  -0.06489  -0.121838  0.001298  3.891308  -0.001
C  C107  1  0.55333265  0.75184283  0.31441250  1  0.23271  -0.000923  -0.064747  -0.121564  -0.001515  3.891105  0.001
C  C108  1  0.84990420  0.72890650  0.87864660  1  -0.019207  0.000918  -0.020923  0.074688  0.000411  3.995333  0.001
C  C109  1  0.34990429  0.27111998  0.62135744  1  -0.020393  0.000901  -0.020874  0.074599  0.000399  3.995924  0.001
C  C110  1  0.15007553  0.27112632  0.12135574  1  -0.019557  0.000885  -0.020722  0.074838  0.000392  3.995526  0.001
C  C111  1  0.65008292  0.72886716  0.37864775  1  -0.019937  -0.000879  -0.020882  0.074399  -0.000427  3.996092  -0.001
C  C112  1  0.74758942  0.63834460  0.86539429  1  0.001695  -0.000162  -0.084186  -0.10205  -7.2e-05  3.955819  0.0
C  C113  1  0.24759799  0.36168374  0.63460952  1  0.001838  -0.000145  -0.084146  -0.101791  -6.1e-05  3.95575  0.0
C  C114  1  0.25239030  0.36168901  0.13460491  1  0.001725  -0.000162  -0.084256  -0.102079  -8.6e-05  3.955863  0.0
C  C115  1  0.75239171  0.63830100  0.36539408  1  0.002076  0.000155  -0.084154  -0.101917  7.1e-05  3.955826  0.0
C  C116  1  0.66062457  0.61581122  0.92533605  1  0.024072  -0.000209  -0.095128  -0.142513  -0.000155  3.995553  0.0
C  C117  1  0.16063350  0.38420931  0.57466220  1  0.024186  -0.000221  -0.095102  -0.142426  -0.000171  3.995545  0.0
C  C118  1  0.33936139  0.38421359  0.07466577  1  0.023792  -0.000291  -0.095007  -0.142255  -0.000225  3.995505  0.0
C  C119  1  0.83935994  0.61577862  0.42533709  1  0.023969  0.00029  -0.095132  -0.142379  0.000209  3.995314  0.0
C  C120  1  0.67927383  0.68440800  0.99937596  1  -0.021021  -0.000193  0.014302  0.148391  -0.00013  4.034829  0.0
C  C121  1  0.17928216  0.31561248  0.50062330  1  -0.021373  -0.000183  0.014344  0.148471  -0.00012  4.034844  0.0
C  C122  1  0.32070340  0.31561439  0.00062482  1  -0.021458  -0.000163  0.014196  0.148288  -0.000111  4.034808  0.0
C  C123  1  0.82072251  0.68438346  0.49937597  1  -0.021403  0.000196  0.014325  0.148288  0.000112  4.035002  0.0
C  C124  1  0.77764785  0.77664657  0.01423278  1  -0.009783  -4.9e-05  -0.096951  -0.146504  1.9e-05  3.975107  0.0
C  C125  1  0.27765443  0.22337224  0.48577028  1  -0.009605  -0.000241  -0.097008  -0.146632  -0.000124  3.975159  0.0
C  C126  1  0.22232813  0.22337742  0.98576283  1  -0.009348  -0.000108  -0.097056  -0.146647  -4.4e-05  3.975122  0.0
C  C127  1  0.72235023  0.77662291  0.51423268  1  -0.045267  0.000308  -0.096994  -0.146466  0.000128  3.975071  0.0
C  C128  1  0.86217046  0.79799237  0.95330506  1  -0.046274  -0.00057  -0.089135  -0.119152  -0.000605  3.998734  0.0
C  C129  1  0.36217993  0.20203567  0.54669759  1  -0.044529  -0.000507  -0.089103  -0.11913  -0.000543  3.998945  0.0
C  C130  1  0.13779305  0.20204204  0.04669541  1  -0.044878  -0.000595  -0.089155  -0.119349  -0.000632  3.998933  0.0
C  C131  1  0.63781600  0.79796108  0.45330515  1  -0.044866  0.000547  -0.089185  -0.119263  0.000536  3.999154  0.0
N  N132  1  0.86447086  0.82949350  0.77921263  1  -0.978905  0.110998  -0.3522  -0.052352  0.07416  3.561151  0.095
N  N133  1  0.36446820  0.17052735  0.72079679  1  -0.97919  0.111004  -0.352202  -0.051641  0.074166  3.561241  0.095
N  N134  1  0.13554876  0.17050081  0.22077860  1  -0.979689  0.1111  -0.352078  -0.052037  0.074279  3.562381  0.095
N  N135  1  0.63555641  0.82948870  0.27922360  1  -0.979168  -0.111082  -0.35209  -0.051941  -0.078405  3.561659  -0.095
N  N136  1  0.77263205  0.37271067  0.04840293  1  -1.23213  0.00408  -0.334542  -0.340555  0.002638  3.302098  0.003
N  N137  1  0.27263750  0.62728568  0.45159009  1  -1.231737  0.004081  -0.334411  -0.340455  0.002642  3.301925  0.003
N  N138  1  0.22733645  0.62728852  0.95161185  1  -1.231082  0.003834  -0.334514  -0.340446  0.002484  3.301698  0.003
N  N139  1  0.72737464  0.37269580  0.54839524  1  -1.231489  -0.003707  -0.334664  -0.340415  -0.00256  3.301521  -0.003
N  N140  1  0.75500477  0.09596446  0.94355540  1  -1.208003  0.062651  -0.384177  -0.353608  0.042962  3.596844  0.053
N  N141  1  0.25501228  0.90402456  0.55643876  1  -1.208562  0.062562  -0.384244  -0.353707  0.042906  3.597277  0.053
N  N142  1  0.24499241  0.90404350  0.05644301  1  -1.207629  0.06207  -0.384046  -0.353246  0.042577  3.596398  0.053
N  N143  1  0.74501483  0.09594814  0.44356020  1  -1.208913  -0.061955  -0.384094  -0.35373  -0.044887  3.597042  -0.053
N  N144  1  0.69356448  0.19802694  0.06174959  1  -1.274846  0.002022  -0.365329  -0.282536  0.001204  3.57065  0.002
N  N145  1  0.19356549  0.80197204  0.43824985  1  -1.274796  0.00201  -0.365325  -0.282533  0.001179  3.570446  0.002
N  N146  1  0.30642646  0.80197063  0.93825551  1  -1.275969  0.001983  -0.365323  -0.282406  0.001188  3.570213  0.001
N  N147  1  0.80644416  0.19801588  0.56174504  1  -1.275112  -0.001964  -0.365377  -0.28283  -0.001279  3.570532  -0.002
Cl  Cl148  1  0.58249129  0.65025550  0.07446813  1  -0.235499  -0.000184  0.029262  -0.057481  -7.1e-05  1.650161  0.0
Cl  Cl149  1  0.08249712  0.34975015  0.42552825  1  -0.235574  0.000116  0.029229  -0.05751  1.6e-05  1.650199  0.0
Cl  Cl150  1  0.41749841  0.34976530  0.92553563  1  -0.235418  0.000129  0.029228  -0.05754  2.5e-05  1.650203  0.0
Cl  Cl151  1  0.91752001  0.65024498  0.57446645  1  -0.23555  0.000196  0.02926  -0.057459  5.9e-05  1.650322  0.0
O  O152  1  0.58311072  0.90274033  0.85975231  1  -1.115477  0.098859  -0.336287  -0.550698  0.064691  2.302195  0.09
O  O153  1  0.08315750  0.09726195  0.64024097  1  -1.115906  0.098709  -0.336348  -0.550698  0.064588  2.302428  0.09
O  O154  1  0.41680292  0.09730274  0.14019215  1  -1.115436  0.098829  -0.336413  -0.550754  0.06472  2.301965  0.09
O  O155  1  0.91681724  0.90268121  0.35979821  1  -1.115336  -0.098678  -0.336329  -0.550649  -0.068285  2.302475  -0.09
O  O156  1  0.43449966  0.75949006  0.79439219  1  -1.17581  0.020704  -0.315279  -0.517127  0.013256  2.110764  0.016
O  O157  1  0.93450735  0.24049530  0.70560035  1  -1.175317  0.019931  -0.315272  -0.517127  0.012753  2.110635  0.016
O  O158  1  0.56549752  0.24049947  0.20560798  1  -1.175471  0.02067  -0.315174  -0.516951  0.01323  2.11028  0.016
O  O159  1  0.06551602  0.75949263  0.29439784  1  -1.175886  -0.019904  -0.315148  -0.51694  -0.013457  2.110785  -0.016
O  O160  1  0.04037660  0.00677333  0.84486501  1  -1.115327  0.097915  -0.337442  -0.548981  0.064202  2.257893  0.089
O  O161  1  0.54037276  0.99323791  0.65514460  1  -1.115276  0.097857  -0.337594  -0.54907  0.064152  2.258194  0.089
O  O162  1  0.95966423  0.99318094  0.15513846  1  -1.115634  0.097915  -0.337697  -0.549265  0.064207  2.258082  0.089
O  O163  1  0.45967555  0.00681253  0.34485417  1  -1.115806  -0.097904  -0.337663  -0.549258  -0.067833  2.258347  -0.089
O  O164  1  0.23490561  0.97035188  0.75220589  1  -1.182074  0.023664  -0.313846  -0.543206  0.015282  2.241947  0.021
O  O165  1  0.73487454  0.02966529  0.74780673  1  -1.182257  0.023685  -0.31386  -0.543357  0.015295  2.241609  0.021
O  O166  1  0.76501552  0.02978259  0.24775105  1  -1.182576  0.025615  -0.314057  -0.543312  0.016388  2.240939  0.02
O  O167  1  0.26500668  0.97020740  0.25225337  1  -1.182548  -0.025617  -0.314074  -0.543313  -0.017297  2.240597  -0.02
