# generated using pymatgen
data_NdH9C8NO9
_symmetry_space_group_name_H-M   'P 1'
_cell_length_a   7.79574258
_cell_length_b   7.59312184
_cell_length_c   9.68382159
_cell_angle_alpha   95.91482822
_cell_angle_beta   101.91472460
_cell_angle_gamma   99.18649245
_symmetry_Int_Tables_number   1
_chemical_formula_structural   NdH9C8NO9
_chemical_formula_sum   'Nd2 H18 C16 N2 O18'
_cell_volume   548.16436335
_cell_formula_units_Z   2
loop_
 _symmetry_equiv_pos_site_id
 _symmetry_equiv_pos_as_xyz
  1  'x, y, z'
loop_
 _atom_site_type_symbol
 _atom_site_label
 _atom_site_symmetry_multiplicity
 _atom_site_fract_x
 _atom_site_fract_y
 _atom_site_fract_z
 _atom_site_occupancy
 _atom_site_hle17_bader_spin_density
 _atom_site_hle17_ddec_charge
 _atom_site_hle17_ddec_spin_density
 _atom_site_hle17_ddec_sum_bond_order
 _atom_site_hle17_magmom
 _atom_site_hse06_10hf_bader_spin_density
 _atom_site_hse06_10hf_ddec_charge
 _atom_site_hse06_10hf_ddec_spin_density
 _atom_site_hse06_10hf_ddec_sum_bond_order
 _atom_site_hse06_10hf_magmom
 _atom_site_hse06_bader_spin_density
 _atom_site_hse06_ddec_charge
 _atom_site_hse06_ddec_spin_density
 _atom_site_hse06_ddec_sum_bond_order
 _atom_site_hse06_magmom
 _atom_site_pbe_bader_spin_density
 _atom_site_pbe_cm5_charge
 _atom_site_pbe_ddec_charge
 _atom_site_pbe_ddec_spin_density
 _atom_site_pbe_ddec_sum_bond_order
 _atom_site_pbe_magmom
Nd  Nd0  1  0.71855065  0.21176740  0.13904729  1  0  2.283254  0  1.531325  0  0  2.103185  0  1.998901  0  0  2.208746  0  1.839909  0  0  1.43741  2.070226  0  2.031456  0
Nd  Nd1  1  0.28144451  0.78823348  0.86095205  1  0  2.28322  0  1.531344  0  0  2.103128  0  1.998956  0  0  2.208714  0  1.839929  0  0  1.437423  2.070138  0  2.031572  0
H  H2  1  0.41090194  0.44833766  0.09315228  1  0  0.446108  0  0.850056  0  0  0.417192  0  0.910496  0  0  0.427498  0  0.895425  0  0  0.309633  0.409947  0  0.921269  0
H  H3  1  0.58909126  0.55166090  0.90683722  1  0  0.446148  0  0.850022  0  0  0.417233  0  0.910458  0  0  0.427538  0  0.895388  0  0  0.309661  0.409993  0  0.921223  0
H  H4  1  0.33597245  0.25626341  0.99770523  1  0  0.442797  0  0.856437  0  0  0.413676  0  0.916793  0  0  0.42419  0  0.901553  0  0  0.307406  0.406317  0  0.927561  0
H  H5  1  0.66402491  0.74373652  0.00227990  1  0  0.44252  0  0.856751  0  0  0.41341  0  0.917098  0  0  0.423921  0  0.901862  0  0  0.307312  0.406052  0  0.927863  0
H  H6  1  0.54976737  0.47969902  0.30433266  1  0  0.418453  0  0.851241  0  0  0.394882  0  0.918689  0  0  0.404126  0  0.908659  0  0  0.308211  0.388331  0  0.926316  0
H  H7  1  0.45022733  0.52030624  0.69565880  1  0  0.418465  0  0.851341  0  0  0.394889  0  0.91879  0  0  0.404135  0  0.908752  0  0  0.308198  0.388337  0  0.926416  0
H  H8  1  0.75086390  0.51233164  0.38915184  1  0  0.431941  0  0.874122  0  0  0.398558  0  0.941363  0  0  0.410917  0  0.92364  0  0  0.294768  0.389794  0  0.954022  0
H  H9  1  0.24912747  0.48766393  0.61084739  1  0  0.431837  0  0.874266  0  0  0.398495  0  0.941443  0  0  0.410873  0  0.923699  0  0  0.294753  0.38974  0  0.954084  0
H  H10  1  0.89980168  0.59661253  0.23752286  1  0  0.442506  0  0.853419  0  0  0.409851  0  0.919821  0  0  0.421295  0  0.902967  0  0  0.303427  0.401805  0  0.931757  0
H  H11  1  0.10019089  0.40338832  0.76248020  1  0  0.442481  0  0.853468  0  0  0.40983  0  0.919863  0  0  0.421275  0  0.903006  0  0  0.303421  0.401785  0  0.931797  0
H  H12  1  0.92242144  0.59356131  0.07870426  1  0  0.446003  0  0.841849  0  0  0.419924  0  0.895339  0  0  0.431232  0  0.878786  0  0  0.30787  0.412217  0  0.906625  0
H  H13  1  0.07757203  0.40644361  0.92129833  1  0  0.446  0  0.841841  0  0  0.419915  0  0.895344  0  0  0.431224  0  0.878787  0  0  0.307874  0.412205  0  0.906634  0
H  H14  1  0.46753315  0.68375180  0.46127584  1  0  0.121356  0  0.94757  0  0  0.129327  0  1.008406  0  0  0.133629  0  1.004991  0  0  0.11407  0.126229  0  1.010846  0
H  H15  1  0.53247242  0.31624860  0.53872717  1  0  0.121344  0  0.947535  0  0  0.129322  0  1.008377  0  0  0.133625  0  1.004958  0  0  0.114035  0.126226  0  1.010816  0
H  H16  1  0.67453542  0.81715260  0.69518404  1  0  0.108137  0  0.921315  0  0  0.119433  0  0.977802  0  0  0.122743  0  0.975322  0  0  0.119496  0.116858  0  0.979946  0
H  H17  1  0.32547075  0.18285049  0.30481934  1  0  0.108158  0  0.921291  0  0  0.119443  0  0.977785  0  0  0.122749  0  0.97531  0  0  0.119494  0.116866  0  0.979929  0
H  H18  1  0.90976585  0.09135664  0.70124628  1  0  0.118122  0  0.952083  0  0  0.125522  0  1.015864  0  0  0.129217  0  1.014001  0  0  0.115589  0.123167  0  1.016651  0
H  H19  1  0.09024489  0.90864373  0.29875238  1  0  0.118133  0  0.952102  0  0  0.125526  0  1.015879  0  0  0.129223  0  1.01402  0  0  0.115599  0.12318  0  1.01664  0
C  C20  1  0.58527360  0.88454309  0.34868965  1  0  0.110438  0  3.761678  0  0  0.117754  0  4.001471  0  0  0.118528  0  4.021595  0  0  0.121816  0.117273  0  3.988965  0
C  C21  1  0.41473066  0.11545739  0.65131213  1  0  0.1106  0  3.761667  0  0  0.117964  0  4.001392  0  0  0.11874  0  4.021517  0  0  0.121914  0.117489  0  3.988882  0
C  C22  1  0.57070172  0.80135012  0.46889566  1  0  -0.098393  0  3.667883  0  0  -0.12429  0  3.920025  0  0  -0.127323  0  3.937593  0  0  -0.0694  -0.122082  0  3.907657  0
C  C23  1  0.42930485  0.19864888  0.53110736  1  0  -0.098457  0  3.667964  0  0  -0.12439  0  3.92009  0  0  -0.127422  0  3.937656  0  0  -0.069385  -0.122182  0  3.907725  0
C  C24  1  0.68488046  0.87708174  0.59906636  1  0  0.028126  0  3.644189  0  0  0.008661  0  3.901919  0  0  0.011658  0  3.916697  0  0  -0.05009  0.0069  0  3.891629  0
C  C25  1  0.31512741  0.12291721  0.40093686  1  0  0.028143  0  3.644286  0  0  0.0087  0  3.901982  0  0  0.011698  0  3.916762  0  0  -0.050106  0.00693  0  3.891694  0
C  C26  1  0.81359874  0.02928455  0.60360294  1  0  -0.090983  0  3.650802  0  0  -0.118854  0  3.908574  0  0  -0.121965  0  3.926207  0  0  -0.066348  -0.116762  0  3.896322  0
C  C27  1  0.18640811  0.97071590  0.39639718  1  0  -0.091049  0  3.650929  0  0  -0.118892  0  3.908676  0  0  -0.122008  0  3.926313  0  0  -0.066384  -0.116795  0  3.896415  0
C  C28  1  0.82309851  0.10053149  0.47780357  1  0  0.107302  0  3.753052  0  0  0.110962  0  4.000249  0  0  0.11149  0  4.021311  0  0  0.118394  0.110263  0  3.988335  0
C  C29  1  0.17690504  0.89947181  0.52219632  1  0  0.107348  0  3.752959  0  0  0.11095  0  4.000188  0  0  0.111479  0  4.02125  0  0  0.118417  0.110255  0  3.988268  0
C  C30  1  0.46437211  0.81369067  0.20499225  1  0  0.645704  0  3.918836  0  0  0.594827  0  4.216672  0  0  0.627754  0  4.212903  0  0  0.223715  0.572236  0  4.222534  0
C  C31  1  0.53562607  0.18630588  0.79501127  1  0  0.645458  0  3.919045  0  0  0.594561  0  4.216898  0  0  0.62748  0  4.213131  0  0  0.223597  0.571962  0  4.22276  0
C  C32  1  0.96862876  0.25291743  0.46869887  1  0  0.649615  0  3.898428  0  0  0.596475  0  4.196098  0  0  0.630066  0  4.189483  0  0  0.222558  0.573799  0  4.201447  0
C  C33  1  0.03136931  0.74708463  0.53130312  1  0  0.649644  0  3.898756  0  0  0.596545  0  4.196354  0  0  0.630137  0  4.189737  0  0  0.222572  0.573868  0  4.201704  0
C  C34  1  0.03935225  0.08767597  0.97530083  1  0  0.563253  0  3.907057  0  0  0.519378  0  4.20074  0  0  0.548648  0  4.196639  0  0  0.229484  0.499554  0  4.205933  0
C  C35  1  0.96065055  0.91231761  0.02470518  1  0  0.563156  0  3.907097  0  0  0.519254  0  4.200819  0  0  0.548513  0  4.196732  0  0  0.229493  0.499432  0  4.206011  0
N  N36  1  0.70767982  0.03202286  0.35348908  1  0  -0.428061  0  3.298192  0  0  -0.381283  0  3.550336  0  0  -0.399618  0  3.571588  0  0  -0.382517  -0.37303  0  3.536965  0
N  N37  1  0.29232214  0.96797908  0.64651249  1  0  -0.428059  0  3.297998  0  0  -0.381277  0  3.550126  0  0  -0.399614  0  3.571378  0  0  -0.382546  -0.373025  0  3.536764  0
O  O38  1  0.45408261  0.92676927  0.11390847  1  0  -0.786403  0  2.075345  0  0  -0.727573  0  2.336186  0  0  -0.766098  0  2.327106  0  0  -0.400158  -0.709293  0  2.341563  0
O  O39  1  0.54590648  0.07322761  0.88609467  1  0  -0.786371  0  2.075448  0  0  -0.727492  0  2.336198  0  0  -0.766038  0  2.327186  0  0  -0.400185  -0.709264  0  2.341696  0
O  O40  1  0.38365712  0.65272282  0.18123427  1  0  -0.614763  0  1.941675  0  0  -0.561685  0  2.156606  0  0  -0.585747  0  2.147343  0  0  -0.29332  -0.54625  0  2.164113  0
O  O41  1  0.61635060  0.34726913  0.81877442  1  0  -0.61465  0  1.941777  0  0  -0.561573  0  2.156706  0  0  -0.585629  0  2.147447  0  0  -0.293243  -0.546129  0  2.164216  0
O  O42  1  0.97410787  0.29067934  0.34453700  1  0  -0.700224  0  2.012639  0  0  -0.650389  0  2.261034  0  0  -0.682338  0  2.250162  0  0  -0.389123  -0.63317  0  2.266172  0
O  O43  1  0.02589267  0.70932812  0.65546387  1  0  -0.700243  0  2.012867  0  0  -0.650417  0  2.261223  0  0  -0.682376  0  2.250364  0  0  -0.389119  -0.633194  0  2.266368  0
O  O44  1  0.07806459  0.32630540  0.58325194  1  0  -0.614001  0  2.058148  0  0  -0.548127  0  2.276368  0  0  -0.5742  0  2.267405  0  0  -0.290309  -0.529697  0  2.281665  0
O  O45  1  0.92193638  0.67369786  0.41675166  1  0  -0.614093  0  2.058308  0  0  -0.548184  0  2.276496  0  0  -0.574247  0  2.26753  0  0  -0.290342  -0.529749  0  2.281798  0
O  O46  1  0.97309969  0.22547960  0.00262336  1  0  -0.635377  0  2.031669  0  0  -0.580086  0  2.260502  0  0  -0.609979  0  2.249364  0  0  -0.325806  -0.563768  0  2.266079  0
O  O47  1  0.02690152  0.77451269  0.99738226  1  0  -0.635285  0  2.031714  0  0  -0.579983  0  2.260549  0  0  -0.609873  0  2.249421  0  0  -0.325736  -0.56366  0  2.266116  0
O  O48  1  0.16480672  0.07941736  0.91078673  1  0  -0.663792  0  2.098472  0  0  -0.611532  0  2.342288  0  0  -0.641761  0  2.33285  0  0  -0.342372  -0.595  0  2.347044  0
O  O49  1  0.83519024  0.92057395  0.08921192  1  0  -0.663754  0  2.098476  0  0  -0.611495  0  2.342327  0  0  -0.641715  0  2.332893  0  0  -0.342417  -0.594976  0  2.347083  0
O  O50  1  0.43589942  0.32568072  0.07381048  1  0  -0.932347  0  1.887281  0  0  -0.879561  0  2.086619  0  0  -0.905458  0  2.050432  0  0  -0.648181  -0.866189  0  2.109078  0
O  O51  1  0.56409506  0.67431786  0.92617716  1  0  -0.932119  0  1.887416  0  0  -0.879311  0  2.086707  0  0  -0.905229  0  2.050574  0  0  -0.648098  -0.865939  0  2.10916  0
O  O52  1  0.64475431  0.41505987  0.34082101  1  0  -0.882115  0  1.871587  0  0  -0.830937  0  2.071662  0  0  -0.857381  0  2.042147  0  0  -0.623166  -0.816441  0  2.090334  0
O  O53  1  0.35523531  0.58494005  0.65917219  1  0  -0.882027  0  1.871778  0  0  -0.830883  0  2.071824  0  0  -0.857343  0  2.04226  0  0  -0.623129  -0.816387  0  2.090488  0
O  O54  1  0.85539764  0.52825646  0.14013791  1  0  -0.916626  0  1.856483  0  0  -0.865306  0  2.052617  0  0  -0.889875  0  2.01192  0  0  -0.65308  -0.853226  0  2.077549  0
O  O55  1  0.14459493  0.47174443  0.85986412  1  0  -0.91658  0  1.856527  0  0  -0.865253  0  2.052661  0  0  -0.889821  0  2.011955  0  0  -0.653053  -0.853165  0  2.077595  0
