# generated using pymatgen
data_CeH7(CO2)5
_symmetry_space_group_name_H-M   'P 1'
_cell_length_a   6.45582614
_cell_length_b   13.81119279
_cell_length_c   23.91362264
_cell_angle_alpha   90.00132702
_cell_angle_beta   89.99436728
_cell_angle_gamma   89.99971575
_symmetry_Int_Tables_number   1
_chemical_formula_structural   CeH7(CO2)5
_chemical_formula_sum   'Ce8 H56 C40 O80'
_cell_volume   2132.20218103
_cell_formula_units_Z   8
loop_
 _symmetry_equiv_pos_site_id
 _symmetry_equiv_pos_as_xyz
  1  'x, y, z'
loop_
 _atom_site_type_symbol
 _atom_site_label
 _atom_site_symmetry_multiplicity
 _atom_site_fract_x
 _atom_site_fract_y
 _atom_site_fract_z
 _atom_site_occupancy
 _atom_site_pbe_bader_charge
 _atom_site_pbe_bader_spin_density
 _atom_site_pbe_cm5_charge
 _atom_site_pbe_ddec_charge
 _atom_site_pbe_ddec_spin_density
 _atom_site_pbe_ddec_sum_bond_order
 _atom_site_pbe_magmom
Ce  Ce0  1  0.88281552  0.71692284  0.62956048  1  2.414264  0  1.478442  2.150084  0  2.683524  0
Ce  Ce1  1  0.38284198  0.78304634  0.87042031  1  2.414612  0  1.478638  2.150137  0  2.684267  0
Ce  Ce2  1  0.61717348  0.71694694  0.37043351  1  2.414447  0  1.478445  2.150067  0  2.683737  0
Ce  Ce3  1  0.11716121  0.78303620  0.12958171  1  2.414829  0  1.478657  2.150093  0  2.684462  0
Ce  Ce4  1  0.11717627  0.28306899  0.37043772  1  2.414413  0  1.478407  2.149908  0  2.683945  0
Ce  Ce5  1  0.61716066  0.21695345  0.12957998  1  2.414685  0  1.478593  2.150085  0  2.684267  0
Ce  Ce6  1  0.38282450  0.28305648  0.62956595  1  2.414337  0  1.478429  2.150016  0  2.683849  0
Ce  Ce7  1  0.88284762  0.21696287  0.87041566  1  2.414838  0  1.478676  2.150051  0  2.684468  0
H  H8  1  0.90694792  0.92714559  0.61936906  1  0.659316  0  0.302443  0.41391  0  0.900791  0
H  H9  1  0.54238373  0.77699736  0.72106519  1  0.63483  0  0.307987  0.391409  0  0.944693  0
H  H10  1  0.52651498  0.85795537  0.67210305  1  0.657176  0  0.306776  0.39136  0  0.944635  0
H  H11  1  0.84329860  0.50616874  0.57071783  1  0.61818  0  0.32401  0.408451  0  0.883507  0
H  H12  1  0.01789063  0.48726561  0.61460920  1  0.628484  0  0.298641  0.383127  0  0.962324  0
H  H13  1  0.33056706  0.70529148  0.58691765  1  0.655445  0  0.321725  0.422905  0  0.886965  0
H  H14  1  0.35258692  0.73617708  0.64935436  1  0.639035  0  0.309204  0.407893  0  0.922529  0
H  H15  1  0.40693734  0.57282427  0.88057221  1  0.659365  0  0.302459  0.414237  0  0.900401  0
H  H16  1  0.04240816  0.72302258  0.77890969  1  0.634209  0  0.30781  0.391151  0  0.945074  0
H  H17  1  0.02653039  0.64206387  0.82786681  1  0.657713  0  0.306667  0.391211  0  0.944778  0
H  H18  1  0.34333880  0.99381285  0.92923518  1  0.618103  0  0.323949  0.408206  0  0.8833  0
H  H19  1  0.51792604  0.01271548  0.88534039  1  0.627549  0  0.298668  0.383407  0  0.961963  0
H  H20  1  0.83052442  0.79462280  0.91306204  1  0.655635  0  0.321748  0.42284  0  0.887075  0
H  H21  1  0.85261511  0.76378784  0.85062056  1  0.638513  0  0.309088  0.407706  0  0.922823  0
H  H22  1  0.59305742  0.92716869  0.38062734  1  0.659099  0  0.302656  0.414233  0  0.900371  0
H  H23  1  0.95760928  0.77701122  0.27893212  1  0.634812  0  0.307986  0.391488  0  0.944624  0
H  H24  1  0.97348800  0.85796681  0.32789576  1  0.65702  0  0.306819  0.391462  0  0.944491  0
H  H25  1  0.65671898  0.50619726  0.42927166  1  0.61844  0  0.32394  0.40827  0  0.883551  0
H  H26  1  0.48210022  0.48728511  0.38539136  1  0.628773  0  0.298692  0.383278  0  0.962115  0
H  H27  1  0.16943076  0.70530557  0.41307873  1  0.655406  0  0.321793  0.423084  0  0.886713  0
H  H28  1  0.14739199  0.73618800  0.35064411  1  0.639135  0  0.309076  0.407718  0  0.922763  0
H  H29  1  0.09306809  0.57281450  0.11943034  1  0.659284  0  0.302457  0.414211  0  0.900448  0
H  H30  1  0.45759257  0.72301530  0.22109320  1  0.634184  0  0.307813  0.391221  0  0.944971  0
H  H31  1  0.47347585  0.64205388  0.17213373  1  0.657606  0  0.306719  0.391368  0  0.944593  0
H  H32  1  0.15666833  0.99380171  0.07076884  1  0.618287  0  0.324006  0.408311  0  0.883184  0
H  H33  1  0.98207358  0.01270680  0.11466213  1  0.627454  0  0.298671  0.383485  0  0.961864  0
H  H34  1  0.66947304  0.79461445  0.08693717  1  0.655606  0  0.321711  0.42277  0  0.887176  0
H  H35  1  0.64738733  0.76378348  0.14937950  1  0.638466  0  0.309131  0.407762  0  0.92273  0
H  H36  1  0.09305162  0.07284697  0.38062831  1  0.659121  0  0.302517  0.413993  0  0.900663  0
H  H37  1  0.45759722  0.22300751  0.27893469  1  0.634871  0  0.308035  0.391506  0  0.944614  0
H  H38  1  0.47347526  0.14204732  0.32789473  1  0.657215  0  0.306816  0.391458  0  0.944497  0
H  H39  1  0.15670093  0.49381947  0.42928122  1  0.618291  0  0.323947  0.408319  0  0.883481  0
H  H40  1  0.98210891  0.51272767  0.38539319  1  0.628649  0  0.298649  0.383174  0  0.962284  0
H  H41  1  0.66943093  0.29470252  0.41308014  1  0.655422  0  0.321766  0.423  0  0.886835  0
H  H42  1  0.64739558  0.26381910  0.35064427  1  0.639196  0  0.309101  0.407735  0  0.922746  0
H  H43  1  0.59305755  0.42717625  0.11943269  1  0.659418  0  0.302408  0.41415  0  0.900544  0
H  H44  1  0.95758828  0.27697722  0.22109186  1  0.634193  0  0.3079  0.391334  0  0.944798  0
H  H45  1  0.97346605  0.35793520  0.17213432  1  0.657728  0  0.306684  0.391267  0  0.944726  0
H  H46  1  0.65664679  0.00619056  0.07076052  1  0.618241  0  0.323992  0.408237  0  0.883271  0
H  H47  1  0.48207815  0.98728504  0.11465991  1  0.627864  0  0.298693  0.383442  0  0.961904  0
H  H48  1  0.16947202  0.20538206  0.08693700  1  0.655504  0  0.321682  0.422763  0  0.887173  0
H  H49  1  0.14738288  0.23621413  0.14937848  1  0.638478  0  0.30913  0.407727  0  0.922787  0
H  H50  1  0.40695141  0.07283472  0.61937546  1  0.659003  0  0.302711  0.414259  0  0.900326  0
H  H51  1  0.04240110  0.22299365  0.72106817  1  0.634879  0  0.30799  0.391486  0  0.944645  0
H  H52  1  0.02652547  0.14203733  0.67210579  1  0.657086  0  0.30681  0.391434  0  0.944506  0
H  H53  1  0.34328675  0.49380108  0.57072905  1  0.618503  0  0.323942  0.408286  0  0.88348  0
H  H54  1  0.51789621  0.51271468  0.61461186  1  0.628745  0  0.298681  0.383219  0  0.96221  0
H  H55  1  0.83056723  0.29469567  0.58692407  1  0.655526  0  0.321741  0.422984  0  0.886862  0
H  H56  1  0.85260135  0.26381469  0.64936037  1  0.638992  0  0.309112  0.407749  0  0.922728  0
H  H57  1  0.90694074  0.42718530  0.88056536  1  0.659303  0  0.302442  0.414157  0  0.900513  0
H  H58  1  0.54241316  0.27698232  0.77890710  1  0.634184  0  0.307827  0.39123  0  0.944953  0
H  H59  1  0.52652988  0.35794591  0.82786614  1  0.657617  0  0.306694  0.391288  0  0.944683  0
H  H60  1  0.84333740  0.00620532  0.92922937  1  0.61834  0  0.323983  0.408255  0  0.883201  0
H  H61  1  0.01793215  0.98729445  0.88533817  1  0.627435  0  0.298702  0.383457  0  0.961881  0
H  H62  1  0.33053889  0.20538752  0.91305936  1  0.655526  0  0.321641  0.422722  0  0.88724  0
H  H63  1  0.35261840  0.23621776  0.85061829  1  0.638429  0  0.309098  0.40771  0  0.9228  0
C  C64  1  0.02240053  0.89183844  0.73584234  1  0.848463  0  0.12678  0.198268  0  4.075697  0
C  C65  1  0.05842752  0.93593563  0.79133604  1  0.778909  0  0.112646  0.17718  0  4.104691  0
C  C66  1  0.01236326  0.03224500  0.76893792  1  0.797369  0  0.108338  0.168858  0  4.170235  0
C  C67  1  0.98846036  0.99029540  0.71199676  1  0.814873  0  0.115878  0.147674  0  4.131924  0
C  C68  1  0.86536627  0.70528752  0.49166560  1  1.586998  0  0.238456  0.500603  0  4.210212  0
C  C69  1  0.52234071  0.60815982  0.76414186  1  0.849117  0  0.126604  0.198119  0  4.075564  0
C  C70  1  0.55824410  0.56403141  0.70864593  1  0.780692  0  0.112605  0.177129  0  4.105127  0
C  C71  1  0.51214423  0.46772959  0.73105322  1  0.796325  0  0.108585  0.169112  0  4.168796  0
C  C72  1  0.48832425  0.50970468  0.78798748  1  0.814321  0  0.115783  0.147848  0  4.131895  0
C  C73  1  0.36539134  0.79466319  0.00832707  1  1.583597  0  0.238454  0.500722  0  4.209289  0
C  C74  1  0.47761389  0.89184515  0.26415780  1  0.848209  0  0.126663  0.198409  0  4.075376  0
C  C75  1  0.44157558  0.93594092  0.20866594  1  0.778975  0  0.112593  0.176972  0  4.104861  0
C  C76  1  0.48764329  0.03225326  0.23106197  1  0.797456  0  0.108417  0.16875  0  4.170014  0
C  C77  1  0.51155515  0.99030631  0.28800383  1  0.814569  0  0.116023  0.147987  0  4.13175  0
C  C78  1  0.63461356  0.70529101  0.50832824  1  1.622853  0  0.238564  0.50098  0  4.209845  0
C  C79  1  0.97766649  0.60815888  0.23585903  1  0.84905  0  0.126535  0.198273  0  4.075526  0
C  C80  1  0.94176357  0.56403422  0.29135520  1  0.780674  0  0.11262  0.177078  0  4.105325  0
C  C81  1  0.98784588  0.46773212  0.26894663  1  0.796224  0  0.108493  0.168958  0  4.169005  0
C  C82  1  0.01167565  0.50970024  0.21201297  1  0.814686  0  0.115737  0.147618  0  4.132104  0
C  C83  1  0.13460398  0.79466065  0.99167260  1  1.621145  0  0.238366  0.500483  0  4.209419  0
C  C84  1  0.97760210  0.10815918  0.26416130  1  0.848418  0  0.126669  0.198263  0  4.075799  0
C  C85  1  0.94157821  0.06406055  0.20866760  1  0.779122  0  0.112669  0.177191  0  4.10481  0
C  C86  1  0.98765021  0.96775407  0.23106572  1  0.79729  0  0.108432  0.168955  0  4.170244  0
C  C87  1  0.01154537  0.00970150  0.28800646  1  0.814537  0  0.116015  0.147876  0  4.131957  0
C  C88  1  0.13462242  0.29470721  0.50833261  1  1.624548  0  0.238498  0.500576  0  4.209878  0
C  C89  1  0.47766812  0.39184142  0.23586178  1  0.84936  0  0.126499  0.198134  0  4.075719  0
C  C90  1  0.44175389  0.43597200  0.29135645  1  0.780448  0  0.112673  0.177128  0  4.10537  0
C  C91  1  0.48783362  0.53227238  0.26894833  1  0.796263  0  0.108465  0.168988  0  4.169078  0
C  C92  1  0.51167218  0.49029801  0.21201658  1  0.814419  0  0.115757  0.147817  0  4.132015  0
C  C93  1  0.63461130  0.20534240  0.99166947  1  1.623163  0  0.238436  0.500618  0  4.209457  0
C  C94  1  0.52239649  0.10815682  0.73584250  1  0.848438  0  0.126729  0.198394  0  4.075526  0
C  C95  1  0.55842240  0.06405959  0.79133435  1  0.778746  0  0.11266  0.177096  0  4.104715  0
C  C96  1  0.51236244  0.96775016  0.76893624  1  0.797561  0  0.108423  0.168866  0  4.170176  0
C  C97  1  0.48845523  0.00969711  0.71199647  1  0.814342  0  0.115982  0.147884  0  4.131688  0
C  C98  1  0.36537668  0.29470444  0.49167081  1  1.585903  0  0.238671  0.501053  0  4.209803  0
C  C99  1  0.02234079  0.39184309  0.76413959  1  0.849317  0  0.126622  0.198344  0  4.07559  0
C  C100  1  0.05825145  0.43596847  0.70864551  1  0.78043  0  0.112627  0.177108  0  4.105429  0
C  C101  1  0.01217999  0.53226840  0.73105367  1  0.796224  0  0.108542  0.169073  0  4.169182  0
C  C102  1  0.98833937  0.49030028  0.78798440  1  0.814448  0  0.115676  0.147572  0  4.132334  0
C  C103  1  0.86539865  0.20534639  0.00832351  1  1.583043  0  0.238414  0.500492  0  4.209722  0
O  O104  1  0.02013026  0.80610617  0.71811633  1  -1.154941  0  -0.296766  -0.460906  0  2.373064  0
O  O105  1  0.11285049  0.90714755  0.83930736  1  -1.171484  0  -0.31984  -0.489757  0  2.459482  0
O  O106  1  0.99877053  0.11601979  0.78898954  1  -1.16001  0  -0.325531  -0.487729  0  2.427997  0
O  O107  1  0.96037542  0.02573912  0.66446629  1  -1.131775  0  -0.247409  -0.362317  0  2.266003  0
O  O108  1  0.99700477  0.70961433  0.53003279  1  -1.131298  0  -0.312278  -0.503369  0  2.27428  0
O  O109  1  0.90139901  0.69857303  0.43931416  1  -1.154174  0  -0.332485  -0.569813  0  2.30392  0
O  O110  1  0.87836216  0.85900718  0.60823641  1  -1.103278  0  -0.7176  -0.838203  0  1.836226  0
O  O111  1  0.55735736  0.78798833  0.68017247  1  -1.261203  0  -0.579155  -0.807879  0  2.171109  0
O  O112  1  0.96367498  0.53692733  0.58790244  1  -1.233433  0  -0.585436  -0.811907  0  2.009418  0
O  O113  1  0.24931010  0.71030488  0.62187500  1  -1.250691  0  -0.6349  -0.829771  0  2.108226  0
O  O114  1  0.52018861  0.69389643  0.78186458  1  -1.15581  0  -0.296644  -0.460927  0  2.373065  0
O  O115  1  0.61266235  0.59281791  0.66067567  1  -1.171288  0  -0.319849  -0.489946  0  2.460117  0
O  O116  1  0.49856985  0.38394281  0.71101071  1  -1.160325  0  -0.325606  -0.487694  0  2.427408  0
O  O117  1  0.46018161  0.47425833  0.83551408  1  -1.131745  0  -0.247326  -0.362613  0  2.266527  0
O  O118  1  0.49700770  0.79036039  0.96994118  1  -1.129059  0  -0.312335  -0.503414  0  2.273473  0
O  O119  1  0.40140979  0.80134645  0.06068214  1  -1.15375  0  -0.332472  -0.5699  0  2.303611  0
O  O120  1  0.37841809  0.64097360  0.89172736  1  -1.103234  0  -0.71769  -0.838423  0  1.836331  0
O  O121  1  0.05742139  0.71201853  0.81980494  1  -1.260918  0  -0.578779  -0.80737  0  2.171433  0
O  O122  1  0.46367523  0.96303516  0.91203479  1  -1.232308  0  -0.58541  -0.812008  0  2.009329  0
O  O123  1  0.74931108  0.78966100  0.87810144  1  -1.250193  0  -0.634862  -0.829579  0  2.108423  0
O  O124  1  0.47986803  0.80611069  0.28188349  1  -1.154788  0  -0.296756  -0.46107  0  2.372986  0
O  O125  1  0.38715292  0.90714165  0.16069633  1  -1.171564  0  -0.319824  -0.48965  0  2.459487  0
O  O126  1  0.50123263  0.11602765  0.21100851  1  -1.159968  0  -0.325594  -0.487653  0  2.427622  0
O  O127  1  0.53963335  0.02575404  0.33553348  1  -1.131452  0  -0.247431  -0.362469  0  2.266014  0
O  O128  1  0.50296882  0.70963687  0.46995651  1  -1.130379  0  -0.312363  -0.503541  0  2.273718  0
O  O129  1  0.59858090  0.69855843  0.56067499  1  -1.153606  0  -0.332538  -0.57  0  2.304314  0
O  O130  1  0.62162068  0.85902850  0.39176158  1  -1.103204  0  -0.717793  -0.838446  0  1.836065  0
O  O131  1  0.94264017  0.78799952  0.31982582  1  -1.26114  0  -0.579154  -0.808039  0  2.170883  0
O  O132  1  0.53632833  0.53695762  0.41209374  1  -1.233808  0  -0.585438  -0.811883  0  2.009198  0
O  O133  1  0.25068922  0.71032245  0.37812103  1  -1.250678  0  -0.634882  -0.829845  0  2.108228  0
O  O134  1  0.97980838  0.69389333  0.21813788  1  -1.155949  0  -0.296568  -0.460991  0  2.373114  0
O  O135  1  0.88734192  0.59282566  0.33932502  1  -1.171384  0  -0.319768  -0.489829  0  2.460202  0
O  O136  1  0.00140971  0.38394437  0.28898554  1  -1.160158  0  -0.325587  -0.487592  0  2.427217  0
O  O137  1  0.03981093  0.47425048  0.16448756  1  -1.131859  0  -0.247304  -0.362465  0  2.266533  0
O  O138  1  0.00297992  0.79035159  0.03006052  1  -1.12884  0  -0.312258  -0.503309  0  2.27332  0
O  O139  1  0.09858390  0.80134625  0.93932055  1  -1.153712  0  -0.332495  -0.569843  0  2.303824  0
O  O140  1  0.12158042  0.64096259  0.10827234  1  -1.103237  0  -0.71769  -0.838382  0  1.836385  0
O  O141  1  0.44258100  0.71201111  0.18019697  1  -1.260751  0  -0.578853  -0.807638  0  2.171363  0
O  O142  1  0.03633068  0.96302064  0.08796714  1  -1.232378  0  -0.585475  -0.81221  0  2.009224  0
O  O143  1  0.75069728  0.78964300  0.12189604  1  -1.25008  0  -0.634861  -0.829496  0  2.10845  0
O  O144  1  0.97985843  0.19389145  0.28188564  1  -1.154886  0  -0.296734  -0.460927  0  2.373137  0
O  O145  1  0.88715215  0.09284717  0.16069670  1  -1.171648  0  -0.319843  -0.489809  0  2.459509  0
O  O146  1  0.00123985  0.88397855  0.21101075  1  -1.159945  0  -0.325618  -0.487829  0  2.427946  0
O  O147  1  0.03962721  0.97425777  0.33553694  1  -1.131431  0  -0.247484  -0.362483  0  2.266052  0
O  O148  1  0.00297618  0.29037605  0.46996207  1  -1.131747  0  -0.312407  -0.503444  0  2.273724  0
O  O149  1  0.09858814  0.30142966  0.56068154  1  -1.153825  0  -0.332424  -0.569744  0  2.304168  0
O  O150  1  0.12163118  0.14098609  0.39176054  1  -1.103236  0  -0.717646  -0.83821  0  1.836322  0
O  O151  1  0.44263288  0.21201436  0.31982741  1  -1.261322  0  -0.579216  -0.808061  0  2.171049  0
O  O152  1  0.03631681  0.46306233  0.41209828  1  -1.233597  0  -0.585392  -0.811809  0  2.009121  0
O  O153  1  0.75068634  0.28968261  0.37812279  1  -1.250764  0  -0.634871  -0.829722  0  2.108296  0
O  O154  1  0.47980782  0.30610626  0.21814199  1  -1.15589  0  -0.296507  -0.46093  0  2.373181  0
O  O155  1  0.38734183  0.40718405  0.33932630  1  -1.17133  0  -0.31985  -0.4899  0  2.460177  0
O  O156  1  0.50140490  0.61606060  0.28898876  1  -1.16037  0  -0.325539  -0.487596  0  2.427141  0
O  O157  1  0.53983651  0.52573857  0.16448998  1  -1.131734  0  -0.24733  -0.362588  0  2.26638  0
O  O158  1  0.50298719  0.20964448  0.03005744  1  -1.130442  0  -0.312422  -0.503493  0  2.27336  0
O  O159  1  0.59858974  0.19865262  0.93931648  1  -1.153896  0  -0.332366  -0.569725  0  2.303691  0
O  O160  1  0.62157680  0.35902619  0.10827670  1  -1.10326  0  -0.717646  -0.838318  0  1.836499  0
O  O161  1  0.94256730  0.28797981  0.18019661  1  -1.260971  0  -0.578888  -0.807598  0  2.171382  0
O  O162  1  0.53631966  0.03696826  0.08796592  1  -1.232742  0  -0.585449  -0.812039  0  2.009348  0
O  O163  1  0.25069000  0.21034821  0.12189677  1  -1.250134  0  -0.63484  -0.829506  0  2.108447  0
O  O164  1  0.52012686  0.19388838  0.71811639  1  -1.154815  0  -0.296766  -0.461037  0  2.373132  0
O  O165  1  0.61285901  0.09285018  0.83930606  1  -1.171351  0  -0.319932  -0.489802  0  2.459455  0
O  O166  1  0.49876226  0.88397649  0.78898886  1  -1.16003  0  -0.325575  -0.487763  0  2.427864  0
O  O167  1  0.46036154  0.97424793  0.66446556  1  -1.131468  0  -0.247432  -0.362428  0  2.265875  0
O  O168  1  0.49701523  0.29036220  0.53003835  1  -1.130808  0  -0.312428  -0.503583  0  2.274021  0
O  O169  1  0.40141244  0.30143050  0.43931987  1  -1.15369  0  -0.332545  -0.569978  0  2.303932  0
O  O170  1  0.37838970  0.14097492  0.60823914  1  -1.103019  0  -0.717829  -0.838432  0  1.836083  0
O  O171  1  0.05736091  0.21200318  0.68017489  1  -1.261264  0  -0.57917  -0.808033  0  2.170926  0
O  O172  1  0.46367585  0.46304218  0.58790949  1  -1.233801  0  -0.585402  -0.811819  0  2.00918  0
O  O173  1  0.74931032  0.28968169  0.62188219  1  -1.250661  0  -0.634853  -0.829765  0  2.108359  0
O  O174  1  0.02020200  0.30610646  0.78185656  1  -1.155857  0  -0.296564  -0.461014  0  2.373104  0
O  O175  1  0.11265762  0.40717558  0.66067402  1  -1.171239  0  -0.319847  -0.4899  0  2.460215  0
O  O176  1  0.99860377  0.61605543  0.71101434  1  -1.16017  0  -0.32564  -0.487672  0  2.427178  0
O  O177  1  0.96018241  0.52574787  0.83551065  1  -1.131818  0  -0.247261  -0.36245  0  2.266527  0
O  O178  1  0.99702117  0.20965399  0.96994061  1  -1.128923  0  -0.312314  -0.503363  0  2.273651  0
O  O179  1  0.90140944  0.19865644  0.06067933  1  -1.153465  0  -0.332429  -0.56975  0  2.303642  0
O  O180  1  0.87842996  0.35903648  0.89172168  1  -1.103211  0  -0.717675  -0.838306  0  1.836522  0
O  O181  1  0.55741853  0.28798579  0.81980375  1  -1.260812  0  -0.578845  -0.807541  0  2.171331  0
O  O182  1  0.96368125  0.03698205  0.91203316  1  -1.23242  0  -0.585477  -0.812093  0  2.009206  0
O  O183  1  0.24930536  0.21035824  0.87810133  1  -1.24999  0  -0.634764  -0.829374  0  2.108383  0
