# generated using pymatgen
data_Zn4C48O13F24
_symmetry_space_group_name_H-M   'P 1'
_cell_length_a   28.25633473
_cell_length_b   28.25699641
_cell_length_c   28.25527476
_cell_angle_alpha   119.99998734
_cell_angle_beta   90.00135024
_cell_angle_gamma   59.99524221
_symmetry_Int_Tables_number   1
_chemical_formula_structural   Zn4C48O13F24
_chemical_formula_sum   'Zn8 C96 O26 F48'
_cell_volume   15951.45584574
_cell_formula_units_Z   2
loop_
 _symmetry_equiv_pos_site_id
 _symmetry_equiv_pos_as_xyz
  1  'x, y, z'
loop_
 _atom_site_type_symbol
 _atom_site_label
 _atom_site_symmetry_multiplicity
 _atom_site_fract_x
 _atom_site_fract_y
 _atom_site_fract_z
 _atom_site_occupancy
 _atom_site_pbe_bader_charge
 _atom_site_pbe_bader_spin_density
 _atom_site_pbe_cm5_charge
 _atom_site_pbe_ddec_charge
 _atom_site_pbe_ddec_spin_density
 _atom_site_pbe_ddec_sum_bond_order
 _atom_site_pbe_magmom
Zn  Zn0  1  0.52841493  0.05684820  0.02840995  1  1.318996  0  0.681127  0.973272  0  2.365464  0
Zn  Zn1  1  0.52846579  0.94317776  0.91470327  1  1.3153  0  0.681206  0.973541  0  2.364672  0
Zn  Zn2  1  0.41478839  0.05680467  0.02835424  1  1.316754  0  0.68115  0.973353  0  2.365864  0
Zn  Zn3  1  0.52841809  0.94318504  0.02838293  1  1.320904  0  0.681233  0.973552  0  2.365571  0
Zn  Zn4  1  0.97149741  0.94321446  0.47165618  1  1.318261  0  0.681217  0.973448  0  2.366006  0
Zn  Zn5  1  0.08519442  0.94314485  0.47156829  1  1.318361  0  0.681177  0.974158  0  2.364971  0
Zn  Zn6  1  0.97152920  0.05683004  0.58524870  1  1.315787  0  0.681159  0.973079  0  2.366238  0
Zn  Zn7  1  0.97151362  0.05682664  0.47159305  1  1.319393  0  0.681392  0.974006  0  2.365153  0
C  C8  1  0.59041154  0.00007226  0.90964502  1  1.647269  0  0.228328  0.636729  0  4.170911  0
C  C9  1  0.40964595  0.00000680  0.90955360  1  1.641457  0  0.228273  0.636558  0  4.170751  0
C  C10  1  0.40959459  0.18077822  0.09038468  1  1.711406  0  0.228273  0.636269  0  4.171418  0
C  C11  1  0.40960248  0.00002176  0.09035392  1  1.645727  0  0.228262  0.636302  0  4.169761  0
C  C12  1  0.59039844  0.99998672  0.09036391  1  1.639769  0  0.228079  0.635815  0  4.171959  0
C  C13  1  0.59041964  0.81923017  0.90959060  1  1.697048  0  0.228196  0.63619  0  4.171454  0
C  C14  1  0.09023118  0.81923575  0.40971402  1  1.655738  0  0.228786  0.638132  0  4.170568  0
C  C15  1  0.09029112  0.99999937  0.59042458  1  1.640986  0  0.228531  0.637369  0  4.169863  0
C  C16  1  0.90957493  0.00003817  0.59046140  1  1.646829  0  0.227706  0.635492  0  4.172933  0
C  C17  1  0.90951227  0.18077765  0.59042943  1  1.69725  0  0.228166  0.636444  0  4.171638  0
C  C18  1  0.90948447  0.00000835  0.40970230  1  1.641671  0  0.228605  0.637447  0  4.171178  0
C  C19  1  0.09032189  0.00004278  0.40963600  1  1.64523  0  0.228044  0.636  0  4.170094  0
C  C20  1  0.87199172  0.99996473  0.37211816  1  0.131012  0  -0.025084  -0.219348  0  3.950387  0
C  C21  1  0.85337922  0.04250882  0.35348114  1  0.569623  0  0.104349  0.175466  0  4.072848  0
C  C22  1  0.81860713  0.04238968  0.31866600  1  0.558027  0  0.099171  0.133536  0  4.066624  0
C  C23  1  0.80025161  0.99994845  0.30030128  1  0.183034  0  -0.005616  -0.03321  0  4.185849  0
C  C24  1  0.81860108  0.95749814  0.31864472  1  0.544132  0  0.099626  0.135326  0  4.065825  0
C  C25  1  0.85337866  0.95738655  0.35345934  1  0.563439  0  0.103726  0.173531  0  4.073931  0
C  C26  1  0.76517459  0.99994823  0.26522907  1  -0.034818  0  -0.02234  -0.038953  0  4.095234  0
C  C27  1  0.73472620  0.99995448  0.23480040  1  -0.214047  0  -0.0225  -0.039911  0  4.094239  0
C  C28  1  0.69965698  0.99997514  0.19972284  1  0.183307  0  -0.005861  -0.032789  0  4.18306  0
C  C29  1  0.68132789  0.04241552  0.18136763  1  0.557154  0  0.099446  0.134102  0  4.066106  0
C  C30  1  0.64654754  0.04253702  0.14656215  1  0.566753  0  0.104326  0.175243  0  4.072616  0
C  C31  1  0.62791341  0.99998539  0.12792254  1  0.130254  0  -0.025095  -0.219439  0  3.950186  0
C  C32  1  0.64650934  0.95744236  0.14656385  1  0.562801  0  0.104302  0.174517  0  4.073194  0
C  C33  1  0.68129391  0.95755018  0.18136862  1  0.549601  0  0.099186  0.134405  0  4.066388  0
C  C34  1  0.12784002  0.00003236  0.62795964  1  0.071484  0  -0.024862  -0.219118  0  3.950371  0
C  C35  1  0.18902241  0.95746724  0.60401834  1  0.563104  0  0.103963  0.174384  0  4.073766  0
C  C36  1  0.22371699  0.95759312  0.63891135  1  0.59571  0  0.099446  0.134661  0  4.065947  0
C  C37  1  0.19964624  0.00005607  0.69970791  1  0.232737  0  -0.00587  -0.032903  0  4.182698  0
C  C38  1  0.13885190  0.04250969  0.72381636  1  0.508378  0  0.099037  0.134377  0  4.0659  0
C  C39  1  0.10392016  0.04261919  0.68915379  1  0.634217  0  0.104334  0.174268  0  4.073473  0
C  C40  1  0.23473827  0.00006371  0.73476902  1  -0.216305  0  -0.022782  -0.040599  0  4.094072  0
C  C41  1  0.26519229  0.00005392  0.76519277  1  -0.034191  0  -0.021771  -0.038011  0  4.09444  0
C  C42  1  0.30028814  0.00003220  0.80025536  1  0.23928  0  -0.005528  -0.033207  0  4.185245  0
C  C43  1  0.36108724  0.95757787  0.77615268  1  0.566036  0  0.099697  0.135202  0  4.06493  0
C  C44  1  0.39601319  0.95745351  0.81081962  1  0.632397  0  0.103918  0.174334  0  4.072751  0
C  C45  1  0.37210343  0.00000317  0.87201403  1  0.070715  0  -0.024904  -0.219351  0  3.949774  0
C  C46  1  0.31091520  0.04257503  0.89595293  1  0.567252  0  0.104413  0.175079  0  4.073251  0
C  C47  1  0.27621983  0.04246436  0.86105682  1  0.507873  0  0.099312  0.13431  0  4.066164  0
C  C48  1  0.12776495  0.74415568  0.37219673  1  0.08942  0  -0.025034  -0.219982  0  3.94974  0
C  C49  1  0.18894605  0.70689312  0.35356786  1  0.601764  0  0.104162  0.175615  0  4.071635  0
C  C50  1  0.22363467  0.63730408  0.31876640  1  0.519651  0  0.099263  0.133409  0  4.066296  0
C  C51  1  0.19955416  0.60059077  0.30041234  1  0.043245  0  -0.005966  -0.033322  0  4.185238  0
C  C52  1  0.13875826  0.63729625  0.31876573  1  0.54412  0  0.099416  0.134491  0  4.066256  0
C  C53  1  0.10383747  0.70689064  0.35357109  1  0.601084  0  0.104447  0.175065  0  4.073796  0
C  C54  1  0.23462959  0.53044075  0.26535114  1  -0.232609  0  -0.022453  -0.039328  0  4.095072  0
C  C55  1  0.26508028  0.46955838  0.23491514  1  0.223686  0  -0.022373  -0.03928  0  4.094761  0
C  C56  1  0.30019026  0.39940906  0.19982363  1  0.082851  0  -0.005896  -0.033321  0  4.184948  0
C  C57  1  0.36098933  0.36272552  0.18147982  1  0.56364  0  0.099173  0.133764  0  4.066488  0
C  C58  1  0.39592447  0.29313644  0.14666258  1  0.571693  0  0.104183  0.175105  0  4.073027  0
C  C59  1  0.37202521  0.25585617  0.12798288  1  0.092664  0  -0.025148  -0.219835  0  3.950522  0
C  C60  1  0.31083261  0.29308759  0.14662466  1  0.621555  0  0.104105  0.174737  0  4.07262  0
C  C61  1  0.27612685  0.36267982  0.18144220  1  0.475839  0  0.09968  0.134779  0  4.066596  0
C  C62  1  0.87205191  0.25585558  0.62796745  1  0.094693  0  -0.025007  -0.219225  0  3.950142  0
C  C63  1  0.85345693  0.29310594  0.60403255  1  0.567117  0  0.104406  0.175631  0  4.072223  0
C  C64  1  0.81868347  0.36269536  0.63893124  1  0.559177  0  0.09931  0.13425  0  4.066273  0
C  C65  1  0.80032470  0.39941340  0.69973017  1  0.09295  0  -0.00557  -0.033241  0  4.184528  0
C  C66  1  0.81866556  0.36272292  0.72383069  1  0.506163  0  0.099392  0.135141  0  4.064892  0
C  C67  1  0.85343792  0.29312998  0.68915961  1  0.57988  0  0.104418  0.174142  0  4.072284  0
C  C68  1  0.76524022  0.46956696  0.73480538  1  -0.166422  0  -0.022405  -0.039201  0  4.094696  0
C  C69  1  0.73476648  0.53044262  0.76525416  1  0.16777  0  -0.022617  -0.039827  0  4.09451  0
C  C70  1  0.69967262  0.60059688  0.80031469  1  0.040244  0  -0.005428  -0.032725  0  4.183803  0
C  C71  1  0.68131881  0.63728241  0.77620730  1  0.507951  0  0.099412  0.134841  0  4.065263  0
C  C72  1  0.64652838  0.70687182  0.81087026  1  0.595982  0  0.10403  0.17442  0  4.072707  0
C  C73  1  0.62791319  0.74415153  0.87205903  1  0.044685  0  -0.024988  -0.21921  0  3.9503  0
C  C74  1  0.64652615  0.70691072  0.89600744  1  0.600815  0  0.104215  0.174725  0  4.072337  0
C  C75  1  0.68131339  0.63732023  0.86110948  1  0.55872  0  0.09908  0.134371  0  4.066639  0
C  C76  1  0.87206196  0.00005846  0.62802588  1  0.08355  0  -0.025354  -0.219905  0  3.950927  0
C  C77  1  0.85346764  0.04262508  0.68921605  1  0.588068  0  0.104286  0.174239  0  4.073809  0
C  C78  1  0.81867272  0.04253754  0.72392031  1  0.538889  0  0.099253  0.134822  0  4.06672  0
C  C79  1  0.80030690  0.00011847  0.69984508  1  0.236188  0  -0.005717  -0.032996  0  4.184995  0
C  C80  1  0.81863141  0.95766056  0.63904958  1  0.526224  0  0.099228  0.133311  0  4.066544  0
C  C81  1  0.85342181  0.95751772  0.60411943  1  0.600549  0  0.104111  0.175568  0  4.073105  0
C  C82  1  0.76523568  0.00015308  0.73494423  1  -0.237757  0  -0.022682  -0.039825  0  4.094594  0
C  C83  1  0.73479353  0.00016969  0.76539124  1  -0.021035  0  -0.02219  -0.038734  0  4.094235  0
C  C84  1  0.69971731  0.00015794  0.80044053  1  0.250029  0  -0.00609  -0.03382  0  4.18548  0
C  C85  1  0.68134854  0.04259852  0.86123172  1  0.525723  0  0.099396  0.134975  0  4.06612  0
C  C86  1  0.64655288  0.04269359  0.89611934  1  0.588496  0  0.104154  0.173899  0  4.0736  0
C  C87  1  0.62794842  0.00010683  0.87214830  1  0.084123  0  -0.025436  -0.219676  0  3.949981  0
C  C88  1  0.64659952  0.95755754  0.81096388  1  0.601367  0  0.104239  0.175324  0  4.072677  0
C  C89  1  0.68139364  0.95769499  0.77631174  1  0.531277  0  0.099486  0.134044  0  4.065616  0
C  C90  1  0.12786062  0.00011840  0.37215865  1  0.084667  0  -0.024726  -0.218609  0  3.949397  0
C  C91  1  0.18904887  0.95760538  0.35355653  1  0.592993  0  0.103833  0.174182  0  4.073704  0
C  C92  1  0.22372818  0.95772974  0.31876897  1  0.539112  0  0.098985  0.133641  0  4.066567  0
C  C93  1  0.19964735  0.00016737  0.30040403  1  0.250092  0  -0.0056  -0.032393  0  4.183248  0
C  C94  1  0.13884599  0.04259788  0.31876319  1  0.525192  0  0.09932  0.134007  0  4.065443  0
C  C95  1  0.10393357  0.04270569  0.35355380  1  0.592956  0  0.104308  0.17468  0  4.072358  0
C  C96  1  0.23471006  0.00017736  0.26531693  1  -0.019578  0  -0.02251  -0.039548  0  4.093831  0
C  C97  1  0.26514028  0.00016465  0.23485389  1  -0.236314  0  -0.022326  -0.039336  0  4.093335  0
C  C98  1  0.30023761  0.00010774  0.19973252  1  0.229696  0  -0.005892  -0.033177  0  4.182777  0
C  C99  1  0.36104401  0.95763407  0.18135196  1  0.532634  0  0.099528  0.134202  0  4.065909  0
C  C100  1  0.39595848  0.95749511  0.14653876  1  0.595717  0  0.104036  0.174968  0  4.072776  0
C  C101  1  0.37204833  0.00004382  0.12790401  1  0.085224  0  -0.024877  -0.218975  0  3.949873  0
C  C102  1  0.31085580  0.04262196  0.14654216  1  0.588629  0  0.104435  0.174323  0  4.073138  0
C  C103  1  0.27616691  0.04253158  0.18135912  1  0.553229  0  0.099219  0.134699  0  4.065926  0
O  O104  1  0.50002804  0.99999518  0.99995445  1  -1.209956  0  -0.572296  -1.041289  0  2.536548  0
O  O105  1  0.57607162  0.04025298  0.96416926  1  -1.170052  0  -0.308604  -0.533867  0  2.359946  0
O  O106  1  0.46418321  0.95981870  0.88367754  1  -1.156343  0  -0.308912  -0.534217  0  2.358808  0
O  O107  1  0.38374659  0.15210344  0.07600621  1  -1.174643  0  -0.308977  -0.534191  0  2.360825  0
O  O108  1  0.57609392  0.95986600  0.88374542  1  -1.160939  0  -0.309015  -0.534799  0  2.361667  0
O  O109  1  0.46412249  0.15214020  0.07605183  1  -1.172913  0  -0.308765  -0.534128  0  2.360911  0
O  O110  1  0.38377875  0.04019369  0.96407478  1  -1.169365  0  -0.308751  -0.534358  0  2.362303  0
O  O111  1  0.38373821  0.04020224  0.07600664  1  -1.163767  0  -0.308862  -0.534277  0  2.360239  0
O  O112  1  0.57609118  0.95976937  0.07600276  1  -1.164825  0  -0.308935  -0.534165  0  2.361382  0
O  O113  1  0.46413576  0.95982223  0.07603587  1  -1.169006  0  -0.309038  -0.534574  0  2.360528  0
O  O114  1  0.57607396  0.04019216  0.07604409  1  -1.164075  0  -0.30876  -0.534004  0  2.360797  0
O  O115  1  0.57614599  0.84788163  0.88370911  1  -1.162812  0  -0.3088  -0.534083  0  2.359536  0
O  O116  1  0.57608646  0.84789290  0.96411528  1  -1.172666  0  -0.308945  -0.534334  0  2.361646  0
O  O117  1  0.99995257  0.99999812  0.50000438  1  -1.21004  0  -0.572376  -1.041376  0  2.536617  0
O  O118  1  0.03571083  0.84789747  0.42405312  1  -1.175049  0  -0.309414  -0.535077  0  2.361056  0
O  O119  1  0.11615914  0.95977426  0.53588702  1  -1.170185  0  -0.309272  -0.535389  0  2.360748  0
O  O120  1  0.92389932  0.04023382  0.61630883  1  -1.162432  0  -0.308684  -0.533568  0  2.361111  0
O  O121  1  0.11611677  0.84788078  0.42400676  1  -1.171467  0  -0.30909  -0.535513  0  2.361439  0
O  O122  1  0.92388679  0.95983375  0.53593717  1  -1.167839  0  -0.308502  -0.533785  0  2.362243  0
O  O123  1  0.03577296  0.04018676  0.61630702  1  -1.157806  0  -0.309041  -0.534676  0  2.360917  0
O  O124  1  0.92380372  0.15213220  0.61630621  1  -1.16278  0  -0.308852  -0.534237  0  2.360635  0
O  O125  1  0.92381322  0.04020587  0.42402708  1  -1.165332  0  -0.309026  -0.535049  0  2.362181  0
O  O126  1  0.92379979  0.15211245  0.53589767  1  -1.171474  0  -0.30903  -0.534718  0  2.3612  0
O  O127  1  0.92376411  0.95986166  0.42407756  1  -1.162547  0  -0.309141  -0.534805  0  2.360357  0
O  O128  1  0.11620385  0.95978939  0.42391877  1  -1.162404  0  -0.308972  -0.534659  0  2.360368  0
O  O129  1  0.03579348  0.04021506  0.42394589  1  -1.169929  0  -0.308753  -0.534125  0  2.359623  0
F  F130  1  0.86815436  0.08522592  0.36827385  1  -0.60433  0  -0.079117  -0.087778  0  1.3932  0
F  F131  1  0.86815540  0.91465617  0.36822081  1  -0.60103  0  -0.078672  -0.087135  0  1.392466  0
F  F132  1  0.80210764  0.91595388  0.30211036  1  -0.600818  0  -0.082579  -0.097405  0  1.359083  0
F  F133  1  0.80211383  0.08391449  0.30215813  1  -0.607295  0  -0.082498  -0.09687  0  1.360758  0
F  F134  1  0.69784666  0.08392793  0.19788445  1  -0.606804  0  -0.082592  -0.097062  0  1.360747  0
F  F135  1  0.69777741  0.91602961  0.19788346  1  -0.602448  0  -0.082507  -0.097268  0  1.360157  0
F  F136  1  0.63171699  0.91474331  0.13179151  1  -0.602024  0  -0.078806  -0.0873  0  1.392076  0
F  F137  1  0.63179174  0.08525147  0.13178718  1  -0.603342  0  -0.079172  -0.087923  0  1.392668  0
F  F138  1  0.21695012  0.91472871  0.54651963  1  -0.609165  0  -0.078887  -0.087471  0  1.392782  0
F  F139  1  0.04642910  0.08535755  0.71711897  1  -0.609142  0  -0.078661  -0.08711  0  1.392368  0
F  F140  1  0.11384129  0.08406839  0.78185816  1  -0.625692  0  -0.082652  -0.097347  0  1.359993  0
F  F141  1  0.28175174  0.91605527  0.61386801  1  -0.627411  0  -0.082555  -0.097208  0  1.360324  0
F  F142  1  0.38610450  0.91604677  0.71811060  1  -0.608352  0  -0.082878  -0.097765  0  1.359206  0
F  F143  1  0.21818222  0.08400575  0.88610585  1  -0.627444  0  -0.082721  -0.097357  0  1.360233  0
F  F144  1  0.28298000  0.08529869  0.95344781  1  -0.609414  0  -0.079077  -0.087669  0  1.393173  0
F  F145  1  0.45350734  0.91473461  0.78285948  1  -0.603562  0  -0.079157  -0.087775  0  1.392308  0
F  F146  1  0.21688716  0.73644526  0.36834321  1  -0.605033  0  -0.079138  -0.087811  0  1.392709  0
F  F147  1  0.04634396  0.73644281  0.36837101  1  -0.60356  0  -0.078842  -0.0875  0  1.392109  0
F  F148  1  0.11373426  0.60428513  0.30226989  1  -0.601664  0  -0.082565  -0.097137  0  1.359076  0
F  F149  1  0.28167256  0.60429431  0.30225504  1  -0.603286  0  -0.082479  -0.096809  0  1.360722  0
F  F150  1  0.38598147  0.39576920  0.19802592  1  -0.613649  0  -0.082403  -0.096854  0  1.361018  0
F  F151  1  0.21808939  0.39566198  0.19794040  1  -0.600568  0  -0.082827  -0.097401  0  1.359613  0
F  F152  1  0.28291581  0.26351068  0.13183633  1  -0.600487  0  -0.078875  -0.087482  0  1.391799  0
F  F153  1  0.45341372  0.26361364  0.13191681  1  -0.598781  0  -0.078949  -0.087516  0  1.392992  0
F  F154  1  0.86825246  0.26354193  0.54653547  1  -0.60138  0  -0.079191  -0.088001  0  1.392549  0
F  F155  1  0.86820087  0.26359818  0.71711852  1  -0.6049  0  -0.079118  -0.087541  0  1.391981  0
F  F156  1  0.80216466  0.39575166  0.78187286  1  -0.598054  0  -0.082804  -0.097633  0  1.359262  0
F  F157  1  0.80220602  0.39569068  0.61389293  1  -0.610226  0  -0.082561  -0.097216  0  1.36056  0
F  F158  1  0.69781944  0.60424730  0.71816398  1  -0.59745  0  -0.082693  -0.097484  0  1.359762  0
F  F159  1  0.69781485  0.60433093  0.88615527  1  -0.61042  0  -0.082542  -0.09735  0  1.360474  0
F  F160  1  0.63175254  0.73647508  0.95350277  1  -0.60219  0  -0.07901  -0.087628  0  1.392038  0
F  F161  1  0.63174359  0.73640150  0.78290842  1  -0.605254  0  -0.078907  -0.087598  0  1.392248  0
F  F162  1  0.86826329  0.08532522  0.71713427  1  -0.60629  0  -0.078694  -0.087143  0  1.392119  0
F  F163  1  0.86818295  0.91479338  0.54662902  1  -0.60718  0  -0.078872  -0.087674  0  1.392956  0
F  F164  1  0.80209890  0.91615630  0.61406881  1  -0.612362  0  -0.082419  -0.096725  0  1.360233  0
F  F165  1  0.80218221  0.08406605  0.78195750  1  -0.611725  0  -0.082563  -0.097332  0  1.359647  0
F  F166  1  0.69783688  0.08414455  0.88627365  1  -0.609684  0  -0.082452  -0.097178  0  1.358829  0
F  F167  1  0.69793344  0.91617178  0.71826807  1  -0.622709  0  -0.082694  -0.097143  0  1.359922  0
F  F168  1  0.63185378  0.91482023  0.78299185  1  -0.606683  0  -0.078947  -0.087662  0  1.392909  0
F  F169  1  0.63175310  0.08541156  0.95362080  1  -0.605376  0  -0.078701  -0.087126  0  1.391787  0
F  F170  1  0.21700114  0.91491247  0.36835879  1  -0.606732  0  -0.078671  -0.087193  0  1.393281  0
F  F171  1  0.04643679  0.08544225  0.36834296  1  -0.607175  0  -0.079025  -0.087612  0  1.391821  0
F  F172  1  0.11379738  0.08413731  0.30226470  1  -0.609455  0  -0.082651  -0.097183  0  1.359651  0
F  F173  1  0.28176676  0.91621171  0.30228620  1  -0.622632  0  -0.082234  -0.096783  0  1.360961  0
F  F174  1  0.38606718  0.91610667  0.19785606  1  -0.611397  0  -0.082557  -0.097085  0  1.360903  0
F  F175  1  0.21812866  0.08409172  0.19786881  1  -0.622478  0  -0.082604  -0.097451  0  1.359941  0
F  F176  1  0.28291395  0.08533999  0.13176594  1  -0.606469  0  -0.078724  -0.08718  0  1.392271  0
F  F177  1  0.45345465  0.91475147  0.13175092  1  -0.607221  0  -0.079115  -0.087804  0  1.392526  0
