# generated using pymatgen
data_AlH10C14O5
_symmetry_space_group_name_H-M   'P 1'
_cell_length_a   6.60745244
_cell_length_b   11.17339024
_cell_length_c   15.22193999
_cell_angle_alpha   83.03106181
_cell_angle_beta   78.63159577
_cell_angle_gamma   70.87783093
_symmetry_Int_Tables_number   1
_chemical_formula_structural   AlH10C14O5
_chemical_formula_sum   'Al2 H20 C28 O10'
_cell_volume   1039.00277623
_cell_formula_units_Z   2
loop_
 _symmetry_equiv_pos_site_id
 _symmetry_equiv_pos_as_xyz
  1  'x, y, z'
loop_
 _atom_site_type_symbol
 _atom_site_label
 _atom_site_symmetry_multiplicity
 _atom_site_fract_x
 _atom_site_fract_y
 _atom_site_fract_z
 _atom_site_occupancy
 _atom_site_pbe_bader_charge
 _atom_site_pbe_bader_spin_density
 _atom_site_pbe_cm5_charge
 _atom_site_pbe_ddec_charge
 _atom_site_pbe_ddec_spin_density
 _atom_site_pbe_ddec_sum_bond_order
 _atom_site_pbe_magmom
Al  Al0  1  0.49276731  0.49685612  0.49894065  1  2.501262  0  0.391925  1.639751  0  2.585316  0
Al  Al1  1  0.99395204  0.49273056  0.50062235  1  2.498995  0  0.394851  1.635994  0  2.582428  0
H  H2  1  0.24990573  0.40656520  0.60242638  1  0.619918  0  0.352508  0.42888  0  0.857794  0
H  H3  1  0.68276050  0.65219877  0.46057871  1  0.614182  0  0.341429  0.414397  0  0.892694  0
H  H4  1  0.88900546  0.55592596  0.77591342  1  0.073885  0  0.107889  0.110825  0  1.000408  0
H  H5  1  0.78819679  0.56868615  0.94042981  1  0.049065  0  0.099413  0.095809  0  1.023573  0
H  H6  1  0.13712483  0.40305903  0.22795707  1  0.092628  0  0.112522  0.117337  0  0.985913  0
H  H7  1  0.22807966  0.40238504  0.06260334  1  0.037134  0  0.102366  0.101145  0  1.01288  0
H  H8  1  0.55816067  0.62535589  0.22890831  1  0.09811  0  0.109259  0.113448  0  1.00174  0
H  H9  1  0.62968046  0.63941761  0.06305716  1  0.065166  0  0.102446  0.101122  0  1.009653  0
H  H10  1  0.32020465  0.45395100  0.76884385  1  0.084747  0  0.106758  0.106709  0  1.005908  0
H  H11  1  0.21277806  0.46966921  0.93276488  1  0.061939  0  0.09947  0.095663  0  1.027035  0
H  H12  1  0.25979813  0.22538078  0.38091938  1  0.080021  0  0.105076  0.117533  0  1.03624  0
H  H13  1  0.45805923  0.75710571  0.38163100  1  0.045547  0  0.1042  0.105847  0  1.06172  0
H  H14  1  0.73627459  0.88662805  0.54979682  1  0.098519  0  0.110246  0.115293  0  0.98535  0
H  H15  1  0.62446887  0.12387560  0.53865960  1  0.087347  0  0.11293  0.119352  0  0.98513  0
H  H16  1  0.81268166  0.08927847  0.30655605  1  0.043738  0  0.090803  0.127299  0  1.01347  0
H  H17  1  0.58771633  0.22513140  0.29011477  1  0.033383  0  0.091684  0.131151  0  1.008288  0
H  H18  1  0.68746779  0.10470017  0.21157400  1  0.030035  0  0.089829  0.120767  0  0.997094  0
H  H19  1  0.78641869  0.87073782  0.21259413  1  0.030153  0  0.090491  0.122558  0  0.996611  0
H  H20  1  0.79470168  0.74131785  0.29434670  1  0.056864  0  0.094048  0.134264  0  1.000497  0
H  H21  1  0.91076387  0.85937953  0.30714774  1  0.057371  0  0.091977  0.12927  0  1.007244  0
C  C22  1  0.86415567  0.27136526  0.48096588  1  1.573363  0  0.27231  0.646417  0  4.089136  0
C  C23  1  0.67602800  0.49117188  0.66305302  1  1.560464  0  0.266235  0.641645  0  4.097699  0
C  C24  1  0.12614310  0.72450162  0.49925515  1  1.591009  0  0.266519  0.648378  0  4.093775  0
C  C25  1  0.30037358  0.50541182  0.33850455  1  1.508579  0  0.26765  0.628405  0  4.113849  0
C  C26  1  0.61286611  0.50214711  0.76190683  1  -0.01417  0  -0.017036  -0.048036  0  3.976218  0
C  C27  1  0.34371134  0.51305827  0.23872125  1  0.036534  0  -0.013989  -0.046535  0  3.987174  0
C  C28  1  0.74184809  0.53616198  0.81115644  1  -0.014145  0  -0.080667  -0.082197  0  3.978852  0
C  C29  1  0.68297398  0.54409377  0.90364088  1  -0.044618  0  -0.090784  -0.135744  0  3.978643  0
C  C30  1  0.24697016  0.45330124  0.19096667  1  -0.04813  0  -0.077804  -0.082439  0  3.980997  0
C  C31  1  0.29652263  0.45507304  0.09787735  1  -0.008242  0  -0.089404  -0.134223  0  3.983051  0
C  C32  1  0.48406069  0.57850033  0.19150748  1  -0.073423  0  -0.077704  -0.080447  0  3.972865  0
C  C33  1  0.52623710  0.58416157  0.09825038  1  -0.027928  0  -0.090141  -0.133628  0  3.982074  0
C  C34  1  0.42172356  0.47896980  0.80723874  1  0.007821  0  -0.080331  -0.079887  0  3.985776  0
C  C35  1  0.36318783  0.48731024  0.89958222  1  -0.04236  0  -0.090579  -0.134364  0  3.983812  0
C  C36  1  0.49369985  0.51839755  0.95037095  1  -0.076765  0  -0.001356  0.076669  0  3.986088  0
C  C37  1  0.43719856  0.52040163  0.04926863  1  0.023507  0  -0.003538  0.070404  0  3.992846  0
C  C38  1  0.93891132  0.13120716  0.47363070  1  -0.046667  0  -0.004864  -0.077828  0  3.933748  0
C  C39  1  0.15257386  0.06242574  0.43140373  1  -0.066056  0  -0.00351  0.055902  0  3.985398  0
C  C40  1  0.78960816  0.06854503  0.51138393  1  0.028342  0  -0.080539  -0.094012  0  3.994465  0
C  C41  1  0.30310223  0.12242833  0.38231403  1  -0.043504  0  -0.093483  -0.197199  0  3.939319  0
C  C42  1  0.50208746  0.05477039  0.33578280  1  -0.003823  0  -0.0081  0.118508  0  3.954119  0
C  C43  1  0.06156666  0.86496563  0.48218773  1  -0.060855  0  -0.010331  -0.082349  0  3.941472  0
C  C44  1  0.85152119  0.93555232  0.51663781  1  -0.054258  0  -0.083079  -0.097298  0  4.005224  0
C  C45  1  0.21289411  0.92648010  0.43390780  1  0.059629  0  -0.003843  0.060487  0  3.985914  0
C  C46  1  0.41640759  0.85944207  0.38437237  1  -0.058664  0  -0.101184  -0.217028  0  3.976483  0
C  C47  1  0.55990318  0.91956137  0.33634253  1  0.03526  0  -0.009091  0.117869  0  3.959552  0
C  C48  1  0.65464482  0.12239980  0.28342891  1  -0.064353  0  -0.237174  -0.399609  0  3.971376  0
C  C49  1  0.77326099  0.84346502  0.28499080  1  -0.092528  0  -0.237317  -0.403292  0  3.96833  0
O  O50  1  0.66971939  0.33052822  0.46956577  1  -1.259271  0  -0.231204  -0.580198  0  2.337535  0
O  O51  1  0.85920957  0.50422034  0.62612812  1  -1.263632  0  -0.240549  -0.600071  0  2.328991  0
O  O52  1  0.98895660  0.66939403  0.49246705  1  -1.263963  0  -0.236403  -0.600255  0  2.341534  0
O  O53  1  0.43417958  0.52941682  0.37819528  1  -1.260136  0  -0.233267  -0.588304  0  2.366608  0
O  O54  1  0.31376216  0.66928533  0.52030224  1  -1.268845  0  -0.243793  -0.604368  0  2.347525  0
O  O55  1  0.13252924  0.47597094  0.37744309  1  -1.254759  0  -0.231887  -0.578301  0  2.345662  0
O  O56  1  0.99392381  0.32177422  0.50188217  1  -1.260114  0  -0.23215  -0.586242  0  2.350736  0
O  O57  1  0.54221677  0.46863961  0.62222491  1  -1.268025  0  -0.240472  -0.60888  0  2.348863  0
O  O58  1  0.25923352  0.43515273  0.53948587  1  -1.424508  0  -0.447782  -0.98752  0  2.203631  0
O  O59  1  0.72553350  0.56004995  0.46395312  1  -1.420777  0  -0.451481  -0.988852  0  2.213999  0
