# generated using pymatgen
data_AgH14C11N(OF2)3
_symmetry_space_group_name_H-M   'P 1'
_cell_length_a   5.98346477
_cell_length_b   9.35869526
_cell_length_c   13.51403728
_cell_angle_alpha   89.67627405
_cell_angle_beta   79.99539016
_cell_angle_gamma   76.86321021
_symmetry_Int_Tables_number   1
_chemical_formula_structural   AgH14C11N(OF2)3
_chemical_formula_sum   'Ag2 H28 C22 N2 O6 F12'
_cell_volume   725.28928585
_cell_formula_units_Z   2
loop_
 _symmetry_equiv_pos_site_id
 _symmetry_equiv_pos_as_xyz
  1  'x, y, z'
loop_
 _atom_site_type_symbol
 _atom_site_label
 _atom_site_symmetry_multiplicity
 _atom_site_fract_x
 _atom_site_fract_y
 _atom_site_fract_z
 _atom_site_occupancy
 _atom_site_hle17_bader_spin_density
 _atom_site_hle17_ddec_charge
 _atom_site_hle17_ddec_spin_density
 _atom_site_hle17_ddec_sum_bond_order
 _atom_site_hle17_magmom
 _atom_site_hse06_10hf_bader_spin_density
 _atom_site_hse06_10hf_ddec_charge
 _atom_site_hse06_10hf_ddec_spin_density
 _atom_site_hse06_10hf_ddec_sum_bond_order
 _atom_site_hse06_10hf_magmom
 _atom_site_hse06_bader_spin_density
 _atom_site_hse06_ddec_charge
 _atom_site_hse06_ddec_spin_density
 _atom_site_hse06_ddec_sum_bond_order
 _atom_site_hse06_magmom
 _atom_site_pbe_bader_spin_density
 _atom_site_pbe_cm5_charge
 _atom_site_pbe_ddec_charge
 _atom_site_pbe_ddec_spin_density
 _atom_site_pbe_ddec_sum_bond_order
 _atom_site_pbe_magmom
Ag  Ag0  1  0.70285665  0.51544623  0.43419384  1  0  0.633358  0  1.316789  0  0  0.509725  0  1.772297  0  0  0.545976  0  1.709235  0  0  0.435261  0.483988  0  1.816116  0
Ag  Ag1  1  0.29716111  0.48455207  0.56579039  1  0  0.633373  0  1.316729  0  0  0.509687  0  1.772239  0  0  0.545947  0  1.709175  0  0  0.435255  0.483947  0  1.816062  0
H  H2  1  0.24950017  0.95879763  0.26764337  1  0  0.038437  0  0.94505  0  0  0.052558  0  1.003622  0  0  0.052676  0  1.003552  0  0  0.106745  0.052272  0  1.003945  0
H  H3  1  0.75049776  0.04120409  0.73236236  1  0  0.038496  0  0.945073  0  0  0.052599  0  1.003642  0  0  0.052712  0  1.003575  0  0  0.106765  0.052313  0  1.003962  0
H  H4  1  0.15615900  0.75572328  0.44057191  1  0  0.113259  0  0.969187  0  0  0.129943  0  1.040899  0  0  0.132819  0  1.038192  0  0  0.086956  0.127796  0  1.04298  0
H  H5  1  0.84385042  0.24427953  0.55943514  1  0  0.113312  0  0.969124  0  0  0.129987  0  1.040859  0  0  0.132861  0  1.038149  0  0  0.086972  0.127841  0  1.042943  0
H  H6  1  0.26070031  0.91961924  0.44197782  1  0  0.11213  0  0.941061  0  0  0.137342  0  0.992571  0  0  0.138232  0  0.993697  0  0  0.093213  0.136633  0  0.991889  0
H  H7  1  0.73930153  0.08038577  0.55802832  1  0  0.112154  0  0.941157  0  0  0.137397  0  0.992619  0  0  0.138286  0  0.993744  0  0  0.09323  0.136687  0  0.991938  0
H  H8  1  0.43959964  0.76047619  0.37445050  1  0  0.091145  0  0.991164  0  0  0.105936  0  1.073057  0  0  0.107933  0  1.071081  0  0  0.078611  0.104513  0  1.074379  0
H  H9  1  0.56040350  0.23952993  0.62555776  1  0  0.091151  0  0.991202  0  0  0.105961  0  1.073078  0  0  0.107958  0  1.071102  0  0  0.078607  0.10454  0  1.074396  0
H  H10  1  0.83177021  0.00031385  0.26069673  1  0  0.109891  0  0.961729  0  0  0.127503  0  1.027234  0  0  0.129124  0  1.026981  0  0  0.0853  0.126322  0  1.027453  0
H  H11  1  0.16823270  0.99968346  0.73930716  1  0  0.109842  0  0.961722  0  0  0.127443  0  1.02725  0  0  0.129062  0  1.026997  0  0  0.08527  0.126262  0  1.027464  0
H  H12  1  0.88140343  0.05162442  0.37921487  1  0  0.111826  0  0.950211  0  0  0.13532  0  1.008603  0  0  0.136182  0  1.009139  0  0  0.090968  0.134601  0  1.008401  0
H  H13  1  0.11859919  0.94837839  0.62078901  1  0  0.111887  0  0.950108  0  0  0.135387  0  1.008487  0  0  0.136247  0  1.009022  0  0  0.091009  0.134666  0  1.008286  0
H  H14  1  0.79060304  0.88537758  0.36518321  1  0  0.114489  0  0.960648  0  0  0.137289  0  1.018907  0  0  0.138653  0  1.019181  0  0  0.089965  0.136295  0  1.018767  0
H  H15  1  0.20939500  0.11462854  0.63482322  1  0  0.11452  0  0.960622  0  0  0.137294  0  1.01891  0  0  0.138655  0  1.019187  0  0  0.089964  0.1363  0  1.018774  0
H  H16  1  0.40897048  0.67494356  0.08598399  1  0  0.044602  0  0.951524  0  0  0.053706  0  1.015993  0  0  0.054404  0  1.014685  0  0  0.100168  0.053087  0  1.016936  0
H  H17  1  0.59103164  0.32505596  0.91402142  1  0  0.044567  0  0.951536  0  0  0.053673  0  1.016016  0  0  0.054371  0  1.014711  0  0  0.100163  0.053054  0  1.016962  0
H  H18  1  0.55315985  0.93403266  0.17176726  1  0  0.102533  0  0.984355  0  0  0.120686  0  1.051889  0  0  0.122257  0  1.05142  0  0  0.082768  0.119544  0  1.052219  0
H  H19  1  0.44682460  0.06597345  0.82823357  1  0  0.102575  0  0.984259  0  0  0.12075  0  1.051775  0  0  0.122322  0  1.051304  0  0  0.082786  0.119608  0  1.052102  0
H  H20  1  0.70973942  0.79838548  0.07910380  1  0  0.114476  0  0.965154  0  0  0.131977  0  1.032127  0  0  0.133402  0  1.031924  0  0  0.085755  0.130862  0  1.032431  0
H  H21  1  0.29026032  0.20162063  0.92090102  1  0  0.114499  0  0.965217  0  0  0.132013  0  1.032158  0  0  0.133432  0  1.031963  0  0  0.085767  0.130896  0  1.032464  0
H  H22  1  0.64999574  0.74928323  0.20632846  1  0  0.111593  0  0.970444  0  0  0.133033  0  1.032934  0  0  0.13408  0  1.033593  0  0  0.087447  0.132205  0  1.032659  0
H  H23  1  0.35000491  0.25072507  0.79367702  1  0  0.111627  0  0.97043  0  0  0.13308  0  1.032915  0  0  0.134127  0  1.033574  0  0  0.087462  0.132248  0  1.032649  0
H  H24  1  0.07820878  0.86192332  0.04183661  1  0  0.109577  0  0.958666  0  0  0.128371  0  1.023172  0  0  0.129791  0  1.023307  0  0  0.087247  0.127282  0  1.023221  0
H  H25  1  0.92178762  0.13806851  0.95816559  1  0  0.109606  0  0.958651  0  0  0.128391  0  1.023163  0  0  0.129808  0  1.023302  0  0  0.087242  0.127317  0  1.023194  0
H  H26  1  0.34640446  0.90949223  0.99372802  1  0  0.113749  0  0.947757  0  0  0.134396  0  1.009078  0  0  0.135606  0  1.009488  0  0  0.088932  0.133484  0  1.008745  0
H  H27  1  0.65358247  0.09051167  0.00627114  1  0  0.11378  0  0.947715  0  0  0.134447  0  1.009006  0  0  0.135655  0  1.00941  0  0  0.08896  0.133536  0  1.00868  0
H  H28  1  0.16550498  0.00274901  0.10348860  1  0  0.106868  0  0.951188  0  0  0.127248  0  1.014025  0  0  0.128994  0  1.013376  0  0  0.08775  0.12614  0  1.014218  0
H  H29  1  0.83448905  0.99724943  0.89651745  1  0  0.106921  0  0.951154  0  0  0.127282  0  1.014011  0  0  0.129028  0  1.013362  0  0  0.087771  0.126175  0  1.014202  0
C  C30  1  0.34168779  0.37933579  0.35272783  1  0  0.549235  0  3.996074  0  0  0.496221  0  4.282439  0  0  0.52852  0  4.282435  0  0  0.194967  0.474259  0  4.281831  0
C  C31  1  0.65832104  0.62064502  0.64726682  1  0  0.54934  0  3.996217  0  0  0.496486  0  4.282472  0  0  0.528787  0  4.282457  0  0  0.195098  0.474533  0  4.281857  0
C  C32  1  0.28177590  0.30274799  0.26221744  1  0  0.321478  0  3.611541  0  0  0.28283  0  3.908152  0  0  0.296026  0  3.897056  0  0  0.195147  0.272891  0  3.917024  0
C  C33  1  0.71824843  0.69724152  0.73776560  1  0  0.321846  0  3.611025  0  0  0.282836  0  3.908217  0  0  0.296015  0  3.897146  0  0  0.195194  0.272858  0  3.917178  0
C  C34  1  0.28495699  0.38280522  0.16035575  1  0  0.333182  0  3.647243  0  0  0.277765  0  3.960918  0  0  0.294151  0  3.949634  0  0  0.192671  0.265944  0  3.969675  0
C  C35  1  0.71503294  0.61719974  0.83963652  1  0  0.333121  0  3.647014  0  0  0.277586  0  3.961056  0  0  0.293958  0  3.949815  0  0  0.192694  0.265775  0  3.969808  0
C  C36  1  0.10128562  0.53043927  0.15846211  1  0  0.33414  0  3.630907  0  0  0.284267  0  3.944531  0  0  0.298918  0  3.93359  0  0  0.200897  0.273558  0  3.952794  0
C  C37  1  0.89871021  0.46956353  0.84153933  1  0  0.334242  0  3.630696  0  0  0.284485  0  3.944231  0  0  0.299135  0  3.933289  0  0  0.200891  0.273773  0  3.952498  0
C  C38  1  0.09637548  0.64881058  0.24076381  1  0  0.397031  0  3.824908  0  0  0.346721  0  4.108525  0  0  0.373184  0  4.112436  0  0  0.234263  0.32899  0  4.105532  0
C  C39  1  0.90361555  0.35118679  0.75924766  1  0  0.397206  0  3.824431  0  0  0.346861  0  4.108035  0  0  0.373324  0  4.111939  0  0  0.234191  0.329129  0  4.105037  0
C  C40  1  0.15528273  0.87864689  0.30243788  1  0  0.234399  0  3.56258  0  0  0.225125  0  3.800246  0  0  0.230832  0  3.816293  0  0  0.0129  0.221231  0  3.789477  0
C  C41  1  0.84471678  0.12135045  0.69756850  1  0  0.234323  0  3.562708  0  0  0.225075  0  3.800374  0  0  0.230784  0  3.816418  0  0  0.012913  0.221185  0  3.7896  0
C  C42  1  0.25875552  0.82416249  0.39547584  1  0  -0.348609  0  3.667221  0  0  -0.431884  0  3.90828  0  0  -0.435406  0  3.917183  0  0  -0.24709  -0.429021  0  3.901898  0
C  C43  1  0.74124880  0.17584032  0.60452939  1  0  -0.348667  0  3.667312  0  0  -0.431992  0  3.908328  0  0  -0.435507  0  3.917237  0  0  -0.24712  -0.429115  0  3.90192  0
C  C44  1  0.89810055  0.95742482  0.32824029  1  0  -0.351821  0  3.666495  0  0  -0.436222  0  3.906983  0  0  -0.439457  0  3.916975  0  0  -0.250611  -0.433847  0  3.90035  0
C  C45  1  0.10189698  0.04257800  0.67176546  1  0  -0.351831  0  3.666423  0  0  -0.436212  0  3.906919  0  0  -0.439442  0  3.916916  0  0  -0.250615  -0.433839  0  3.900284  0
C  C46  1  0.35648949  0.78087430  0.12685308  1  0  0.216757  0  3.608584  0  0  0.198105  0  3.867286  0  0  0.203786  0  3.883096  0  0  0.003579  0.194197  0  3.856461  0
C  C47  1  0.64351132  0.21912410  0.87314800  1  0  0.216678  0  3.60872  0  0  0.19805  0  3.8674  0  0  0.203728  0  3.883212  0  0  0.003566  0.194144  0  3.856576  0
C  C48  1  0.57949299  0.81868264  0.14835790  1  0  -0.354076  0  3.655455  0  0  -0.439536  0  3.903567  0  0  -0.442947  0  3.913786  0  0  -0.252579  -0.436946  0  3.896733  0
C  C49  1  0.42049605  0.18132019  0.85164777  1  0  -0.354155  0  3.65549  0  0  -0.439673  0  3.903623  0  0  -0.443079  0  3.913843  0  0  -0.252618  -0.437083  0  3.89679  0
C  C50  1  0.22789303  0.89562508  0.06299735  1  0  -0.345489  0  3.658794  0  0  -0.428066  0  3.905444  0  0  -0.431469  0  3.915808  0  0  -0.246982  -0.42541  0  3.898164  0
C  C51  1  0.77210348  0.10437114  0.93700556  1  0  -0.345555  0  3.658744  0  0  -0.428141  0  3.905426  0  0  -0.431536  0  3.915783  0  0  -0.247012  -0.425496  0  3.89814  0
N  N52  1  0.19988962  0.76130063  0.22188837  1  0  -0.234469  0  3.273116  0  0  -0.155858  0  3.499793  0  0  -0.177888  0  3.523026  0  0  -0.250922  -0.141226  0  3.483966  0
N  N53  1  0.80010830  0.23870107  0.77811292  1  0  -0.234364  0  3.273173  0  0  -0.155779  0  3.499837  0  0  -0.177803  0  3.523066  0  0  -0.250876  -0.14115  0  3.48401  0
O  O54  1  0.52163800  0.42957280  0.32921081  1  0  -0.565064  0  2.158157  0  0  -0.505068  0  2.429458  0  0  -0.536198  0  2.419941  0  0  -0.315692  -0.48344  0  2.435141  0
O  O55  1  0.47839764  0.57042766  0.67076906  1  0  -0.564871  0  2.158901  0  0  -0.504898  0  2.430121  0  0  -0.536018  0  2.420595  0  0  -0.315557  -0.483274  0  2.435795  0
O  O56  1  0.21405752  0.37460644  0.43664108  1  0  -0.556383  0  2.129205  0  0  -0.488124  0  2.390984  0  0  -0.518964  0  2.38072  0  0  -0.307132  -0.46678  0  2.397531  0
O  O57  1  0.78599224  0.62536441  0.56334898  1  0  -0.556719  0  2.128683  0  0  -0.488474  0  2.390415  0  0  -0.519323  0  2.380146  0  0  -0.307392  -0.467124  0  2.396959  0
O  O58  1  0.98253265  0.63069103  0.32455033  1  0  -0.521695  0  2.098718  0  0  -0.469372  0  2.359707  0  0  -0.493801  0  2.352857  0  0  -0.294045  -0.452108  0  2.363941  0
O  O59  1  0.01747207  0.36931067  0.67545265  1  0  -0.522039  0  2.098327  0  0  -0.469621  0  2.359208  0  0  -0.494053  0  2.352352  0  0  -0.294106  -0.452389  0  2.363525  0
F  F60  1  0.45096841  0.17249597  0.24152847  1  0  -0.204917  0  1.176975  0  0  -0.165684  0  1.343576  0  0  -0.173931  0  1.329984  0  0  -0.096571  -0.159722  0  1.353014  0
F  F61  1  0.54903395  0.82749794  0.75845180  1  0  -0.205072  0  1.176668  0  0  -0.165735  0  1.343378  0  0  -0.173976  0  1.329787  0  0  -0.096658  -0.159767  0  1.352835  0
F  F62  1  0.07143980  0.26487372  0.28618578  1  0  -0.18807  0  1.221809  0  0  -0.152255  0  1.396178  0  0  -0.160759  0  1.382767  0  0  -0.091858  -0.146059  0  1.405679  0
F  F63  1  0.92855532  0.73513560  0.71380161  1  0  -0.188152  0  1.221859  0  0  -0.152241  0  1.396353  0  0  -0.160737  0  1.382941  0  0  -0.091837  -0.146039  0  1.405868  0
F  F64  1  0.24347545  0.28694402  0.09221548  1  0  -0.197416  0  1.20094  0  0  -0.162644  0  1.375944  0  0  -0.170583  0  1.362097  0  0  -0.09574  -0.156742  0  1.385278  0
F  F65  1  0.75649332  0.71306320  0.90778507  1  0  -0.197412  0  1.200656  0  0  -0.162589  0  1.375708  0  0  -0.170524  0  1.36187  0  0  -0.095744  -0.156688  0  1.385036  0
F  F66  1  0.50153569  0.40624238  0.12595840  1  0  -0.165531  0  1.218602  0  0  -0.134688  0  1.394927  0  0  -0.142682  0  1.38153  0  0  -0.087587  -0.128973  0  1.40409  0
F  F67  1  0.49845949  0.59375265  0.87402391  1  0  -0.165568  0  1.218807  0  0  -0.134687  0  1.395208  0  0  -0.142676  0  1.381818  0  0  -0.087614  -0.128975  0  1.404367  0
F  F68  1  0.13292564  0.57775979  0.06138311  1  0  -0.199764  0  1.232846  0  0  -0.158653  0  1.400595  0  0  -0.165731  0  1.386849  0  0  -0.09205  -0.153437  0  1.410101  0
F  F69  1  0.86705293  0.42224856  0.93862630  1  0  -0.199824  0  1.232719  0  0  -0.158707  0  1.400392  0  0  -0.165782  0  1.386647  0  0  -0.092012  -0.153491  0  1.409903  0
F  F70  1  0.88672262  0.49748260  0.17558891  1  0  -0.180845  0  1.251722  0  0  -0.148004  0  1.434449  0  0  -0.155725  0  1.421157  0  0  -0.092646  -0.142361  0  1.443624  0
F  F71  1  0.11326722  0.50251805  0.82441893  1  0  -0.180845  0  1.251667  0  0  -0.148028  0  1.434353  0  0  -0.155747  0  1.421059  0  0  -0.092613  -0.142382  0  1.44353  0
