# generated using pymatgen
data_Ag2H10C20S2N2O7F6
_symmetry_space_group_name_H-M   'P 1'
_cell_length_a   10.16301570
_cell_length_b   10.60336590
_cell_length_c   11.38308812
_cell_angle_alpha   97.35841989
_cell_angle_beta   100.37300531
_cell_angle_gamma   92.63528215
_symmetry_Int_Tables_number   1
_chemical_formula_structural   Ag2H10C20S2N2O7F6
_chemical_formula_sum   'Ag4 H20 C40 S4 N4 O14 F12'
_cell_volume   1193.68054574
_cell_formula_units_Z   2
loop_
 _symmetry_equiv_pos_site_id
 _symmetry_equiv_pos_as_xyz
  1  'x, y, z'
loop_
 _atom_site_type_symbol
 _atom_site_label
 _atom_site_symmetry_multiplicity
 _atom_site_fract_x
 _atom_site_fract_y
 _atom_site_fract_z
 _atom_site_occupancy
 _atom_site_hle17_bader_spin_density
 _atom_site_hle17_ddec_charge
 _atom_site_hle17_ddec_spin_density
 _atom_site_hle17_ddec_sum_bond_order
 _atom_site_hle17_magmom
 _atom_site_hse06_10hf_bader_spin_density
 _atom_site_hse06_10hf_ddec_charge
 _atom_site_hse06_10hf_ddec_spin_density
 _atom_site_hse06_10hf_ddec_sum_bond_order
 _atom_site_hse06_10hf_magmom
 _atom_site_hse06_bader_spin_density
 _atom_site_hse06_ddec_charge
 _atom_site_hse06_ddec_spin_density
 _atom_site_hse06_ddec_sum_bond_order
 _atom_site_hse06_magmom
 _atom_site_pbe_bader_spin_density
 _atom_site_pbe_cm5_charge
 _atom_site_pbe_ddec_charge
 _atom_site_pbe_ddec_spin_density
 _atom_site_pbe_ddec_sum_bond_order
 _atom_site_pbe_magmom
Ag  Ag0  1  0.40982640  0.68280603  0.05189400  1  0  0.694403  0  1.387721  0  0  0.612843  0  1.820216  0  0  0.627678  0  1.777433  0  0  0.505989  0.600839  0  1.85086  0
Ag  Ag1  1  0.59016716  0.31719852  0.94810861  1  0  0.69442  0  1.387642  0  0  0.612851  0  1.820141  0  0  0.627683  0  1.777359  0  0  0.506001  0.600848  0  1.850786  0
Ag  Ag2  1  0.04767523  0.66555803  0.01390034  1  0  0.691931  0  1.266616  0  0  0.57158  0  1.693846  0  0  0.597966  0  1.646641  0  0  0.492879  0.552679  0  1.726583  0
Ag  Ag3  1  0.95232509  0.33444277  0.98610472  1  0  0.691932  0  1.26662  0  0  0.571588  0  1.693828  0  0  0.59796  0  1.646647  0  0  0.492881  0.552681  0  1.726568  0
H  H4  1  0.88089724  0.83652048  0.03745119  1  0  0.090303  0  1.000138  0  0  0.09443  0  1.081654  0  0  0.098706  0  1.07675  0  0  0.09479  0.091444  0  1.08518  0
H  H5  1  0.11910184  0.16347557  0.96255126  1  0  0.090254  0  1.000235  0  0  0.094404  0  1.081731  0  0  0.098665  0  1.076844  0  0  0.094789  0.091422  0  1.085249  0
H  H6  1  0.66737425  0.93938633  0.01404591  1  0  0.104405  0  0.955027  0  0  0.116591  0  1.014162  0  0  0.118982  0  1.014133  0  0  0.102676  0.114936  0  1.014294  0
H  H7  1  0.33262353  0.06060402  0.98595380  1  0  0.104376  0  0.95502  0  0  0.116554  0  1.014183  0  0  0.118952  0  1.014124  0  0  0.102656  0.114897  0  1.014316  0
H  H8  1  0.42553670  0.26194835  0.11148906  1  0  0.246129  0  0.972804  0  0  0.242323  0  1.030189  0  0  0.249049  0  1.025435  0  0  0.133956  0.237388  0  1.033637  0
H  H9  1  0.57444775  0.73803429  0.88850112  1  0  0.246071  0  0.97301  0  0  0.242275  0  1.030378  0  0  0.248994  0  1.025641  0  0  0.133983  0.237341  0  1.033821  0
H  H10  1  0.85780683  0.27114864  0.25569176  1  0  0.119192  0  0.940045  0  0  0.126375  0  1.000739  0  0  0.129742  0  0.998824  0  0  0.106399  0.124051  0  1.001802  0
H  H11  1  0.14218567  0.72885220  0.74430314  1  0  0.119186  0  0.940131  0  0  0.126355  0  1.000846  0  0  0.129722  0  0.998927  0  0  0.106367  0.124027  0  1.001923  0
H  H12  1  0.07182994  0.16725444  0.28227718  1  0  0.111994  0  0.956947  0  0  0.117005  0  1.022989  0  0  0.120957  0  1.019658  0  0  0.105497  0.114378  0  1.024529  0
H  H13  1  0.92816573  0.83274930  0.71771866  1  0  0.112061  0  0.957117  0  0  0.117068  0  1.023139  0  0  0.121021  0  1.019809  0  0  0.105489  0.11444  0  1.024679  0
H  H14  1  0.56510611  0.81116132  0.26588730  1  0  0.096672  0  0.97159  0  0  0.103562  0  1.043204  0  0  0.10769  0  1.038955  0  0  0.099689  0.100735  0  1.046095  0
H  H15  1  0.43490161  0.18884354  0.73411170  1  0  0.096757  0  0.971611  0  0  0.103591  0  1.043268  0  0  0.107717  0  1.039023  0  0  0.099709  0.10077  0  1.046148  0
H  H16  1  0.78417379  0.89804782  0.38794503  1  0  0.104764  0  0.951717  0  0  0.116314  0  1.009993  0  0  0.119122  0  1.009037  0  0  0.103185  0.114351  0  1.010674  0
H  H17  1  0.21582990  0.10195787  0.61205688  1  0  0.104709  0  0.95177  0  0  0.116251  0  1.010055  0  0  0.11906  0  1.009096  0  0  0.103153  0.114288  0  1.010735  0
H  H18  1  0.02183709  0.22415049  0.65568802  1  0  0.227797  0  0.971712  0  0  0.227513  0  1.03111  0  0  0.233689  0  1.026004  0  0  0.126507  0.223119  0  1.034984  0
H  H19  1  0.97816633  0.77583785  0.34432384  1  0  0.227761  0  0.971727  0  0  0.227455  0  1.03118  0  0  0.233624  0  1.02607  0  0  0.126485  0.22306  0  1.035051  0
H  H20  1  0.61524264  0.25371337  0.48523928  1  0  0.113288  0  0.940514  0  0  0.122251  0  0.998425  0  0  0.125888  0  0.996162  0  0  0.104778  0.119485  0  1.000375  0
H  H21  1  0.38475633  0.74628261  0.51476753  1  0  0.113336  0  0.940568  0  0  0.122304  0  0.998471  0  0  0.125941  0  0.996207  0  0  0.104816  0.119538  0  1.000421  0
H  H22  1  0.39573137  0.16858904  0.36287456  1  0  0.10759  0  0.944156  0  0  0.115187  0  1.007562  0  0  0.118686  0  1.004819  0  0  0.10662  0.112616  0  1.00928  0
H  H23  1  0.60427078  0.83140985  0.63713321  1  0  0.107643  0  0.944141  0  0  0.115226  0  1.007549  0  0  0.118728  0  1.004803  0  0  0.106625  0.112657  0  1.009266  0
C  C24  1  0.87700054  0.93126382  0.08598947  1  0  -0.05031  0  3.700241  0  0  -0.072019  0  3.946312  0  0  -0.072877  0  3.966692  0  0  -0.077066  -0.073793  0  3.933969  0
C  C25  1  0.12300588  0.06873624  0.91400954  1  0  -0.050164  0  3.700019  0  0  -0.071845  0  3.94603  0  0  -0.072696  0  3.966423  0  0  -0.076952  -0.073617  0  3.933689  0
C  C26  1  0.75662902  0.98892867  0.07211883  1  0  -0.087329  0  3.667658  0  0  -0.10701  0  3.908627  0  0  -0.110391  0  3.929511  0  0  -0.079717  -0.105091  0  3.895607  0
C  C27  1  0.24337095  0.01106277  0.92787526  1  0  -0.087339  0  3.667874  0  0  -0.107033  0  3.908841  0  0  -0.110407  0  3.929727  0  0  -0.079738  -0.105114  0  3.895818  0
C  C28  1  0.74846212  0.11224402  0.13256600  1  0  0.097282  0  3.890109  0  0  0.108807  0  4.121396  0  0  0.111266  0  4.142886  0  0  0.001644  0.107585  0  4.106889  0
C  C29  1  0.25153394  0.88774925  0.86742852  1  0  0.097265  0  3.890408  0  0  0.108817  0  4.121618  0  0  0.111284  0  4.143091  0  0  0.001593  0.107599  0  4.107112  0
C  C30  1  0.62628507  0.17239564  0.11571726  1  0  0.01949  0  3.847764  0  0  0.027264  0  4.095802  0  0  0.027336  0  4.123017  0  0  -0.029892  0.026451  0  4.07814  0
C  C31  1  0.37370817  0.82760047  0.88427626  1  0  0.019564  0  3.847566  0  0  0.027346  0  4.095591  0  0  0.027415  0  4.122809  0  0  -0.029789  0.026532  0  4.077928  0
C  C32  1  0.52188415  0.22740131  0.10019685  1  0  -0.333286  0  3.611822  0  0  -0.342024  0  3.877559  0  0  -0.347526  0  3.890698  0  0  -0.16269  -0.338572  0  3.869425  0
C  C33  1  0.47810647  0.77258429  0.89979482  1  0  -0.333341  0  3.611898  0  0  -0.342112  0  3.877675  0  0  -0.347607  0  3.89082  0  0  -0.162801  -0.338662  0  3.869535  0
C  C34  1  0.86352011  0.17604856  0.20890449  1  0  -0.09675  0  3.697419  0  0  -0.116476  0  3.953424  0  0  -0.119098  0  3.971198  0  0  -0.076676  -0.114203  0  3.938966  0
C  C35  1  0.13647557  0.82395337  0.79108584  1  0  -0.096726  0  3.697414  0  0  -0.116456  0  3.953405  0  0  -0.119076  0  3.971182  0  0  -0.076589  -0.114188  0  3.938942  0
C  C36  1  0.98346064  0.11765945  0.22363105  1  0  -0.067565  0  3.713  0  0  -0.098438  0  3.976173  0  0  -0.098048  0  3.99415  0  0  -0.076933  -0.096277  0  3.960851  0
C  C37  1  0.01653388  0.88234144  0.77636332  1  0  -0.067646  0  3.713128  0  0  -0.098482  0  3.976318  0  0  -0.098095  0  3.994296  0  0  -0.076941  -0.096318  0  3.960993  0
C  C38  1  0.99179191  0.99528881  0.16171164  1  0  -0.029644  0  3.803298  0  0  -0.011437  0  4.038397  0  0  -0.016111  0  4.061818  0  0  -0.00695  -0.007759  0  4.021553  0
C  C39  1  0.00821166  0.00471314  0.83828536  1  0  -0.02972  0  3.803119  0  0  -0.0116  0  4.038322  0  0  -0.016271  0  4.061741  0  0  -0.00707  -0.007923  0  4.021473  0
C  C40  1  0.12009619  0.93981387  0.17579648  1  0  0.383844  0  3.691555  0  0  0.345901  0  3.962974  0  0  0.365411  0  3.972496  0  0  0.238089  0.333866  0  3.95454  0
C  C41  1  0.87990648  0.06018997  0.82420061  1  0  0.38382  0  3.691571  0  0  0.345896  0  3.963035  0  0  0.365407  0  3.972553  0  0  0.238125  0.333861  0  3.954595  0
C  C42  1  0.33407569  0.93528717  0.23979465  1  0  0.385218  0  3.681983  0  0  0.345863  0  3.960682  0  0  0.365515  0  3.968186  0  0  0.236059  0.33366  0  3.954864  0
C  C43  1  0.66592492  0.06471751  0.76020746  1  0  0.385326  0  3.681804  0  0  0.345985  0  3.960499  0  0  0.365646  0  3.967987  0  0  0.236128  0.333777  0  3.954684  0
C  C44  1  0.46478897  0.98377402  0.30722013  1  0  -0.039553  0  3.825858  0  0  -0.018654  0  4.061105  0  0  -0.024524  0  4.086043  0  0  -0.011524  -0.015562  0  4.045155  0
C  C45  1  0.53521452  0.01622878  0.69278312  1  0  -0.039649  0  3.825739  0  0  -0.018744  0  4.060959  0  0  -0.024645  0  4.085948  0  0  -0.011637  -0.015652  0  4.045008  0
C  C46  1  0.57545308  0.90811460  0.31357044  1  0  -0.066207  0  3.716611  0  0  -0.089484  0  3.964643  0  0  -0.090105  0  3.985356  0  0  -0.077398  -0.089009  0  3.951324  0
C  C47  1  0.42455054  0.09189012  0.68643221  1  0  -0.066263  0  3.716714  0  0  -0.089488  0  3.964743  0  0  -0.090104  0  3.985451  0  0  -0.077351  -0.089015  0  3.95142  0
C  C48  1  0.69864377  0.95649133  0.38218315  1  0  -0.098249  0  3.685813  0  0  -0.114845  0  3.926948  0  0  -0.119109  0  3.948314  0  0  -0.078343  -0.112086  0  3.912687  0
C  C49  1  0.30136398  0.04351537  0.61781961  1  0  -0.098154  0  3.685845  0  0  -0.114687  0  3.926974  0  0  -0.118945  0  3.948336  0  0  -0.078306  -0.111934  0  3.912716  0
C  C50  1  0.71426595  0.08093018  0.44624920  1  0  0.12664  0  3.862029  0  0  0.134705  0  4.094573  0  0  0.138568  0  4.11616  0  0  0.00804  0.132117  0  4.079414  0
C  C51  1  0.28573621  0.91906963  0.55376045  1  0  0.126589  0  3.86232  0  0  0.134506  0  4.095082  0  0  0.138361  0  4.116683  0  0  0.007954  0.131928  0  4.079915  0
C  C52  1  0.83741823  0.13067230  0.52150553  1  0  -0.024464  0  3.902739  0  0  -0.015615  0  4.156156  0  0  -0.018656  0  4.18752  0  0  -0.050085  -0.013884  0  4.135353  0
C  C53  1  0.16258800  0.86932852  0.47850497  1  0  -0.02439  0  3.902535  0  0  -0.015493  0  4.156006  0  0  -0.018537  0  4.187377  0  0  -0.04998  -0.013767  0  4.135198  0
C  C54  1  0.93785075  0.17829847  0.59053957  1  0  -0.258371  0  3.487399  0  0  -0.282172  0  3.717344  0  0  -0.287601  0  3.738579  0  0  -0.133296  -0.279487  0  3.703686  0
C  C55  1  0.06214687  0.82169176  0.40946712  1  0  -0.258374  0  3.486949  0  0  -0.282162  0  3.716948  0  0  -0.287575  0  3.738178  0  0  -0.133316  -0.279477  0  3.703295  0
C  C56  1  0.60340222  0.15698987  0.43739290  1  0  -0.097978  0  3.68229  0  0  -0.115187  0  3.930058  0  0  -0.119402  0  3.950312  0  0  -0.076594  -0.11185  0  3.915172  0
C  C57  1  0.39660114  0.84301192  0.56261370  1  0  -0.098075  0  3.682592  0  0  -0.115251  0  3.930403  0  0  -0.119462  0  3.950658  0  0  -0.076671  -0.111917  0  3.915514  0
C  C58  1  0.48041240  0.10898633  0.36910068  1  0  -0.057412  0  3.714113  0  0  -0.085641  0  3.970011  0  0  -0.085559  0  3.99087  0  0  -0.076994  -0.084796  0  3.954507  0
C  C59  1  0.51959394  0.89101549  0.63090734  1  0  -0.0574  0  3.714131  0  0  -0.085609  0  3.97002  0  0  -0.085522  0  3.990873  0  0  -0.076913  -0.084764  0  3.95452  0
C  C60  1  0.76134467  0.54706967  0.32453151  1  0  0.593721  0  3.689883  0  0  0.528286  0  4.051128  0  0  0.55595  0  4.024886  0  0  0.288053  0.50849  0  4.070119  0
C  C61  1  0.23865013  0.45293507  0.67546080  1  0  0.593896  0  3.689582  0  0  0.528143  0  4.051317  0  0  0.555789  0  4.025106  0  0  0.288084  0.50836  0  4.070273  0
C  C62  1  0.23916602  0.45333320  0.34055202  1  0  0.599048  0  3.699043  0  0  0.531067  0  4.064455  0  0  0.558815  0  4.03825  0  0  0.291194  0.511043  0  4.08358  0
C  C63  1  0.76083939  0.54666866  0.65945233  1  0  0.598988  0  3.698802  0  0  0.530921  0  4.06436  0  0  0.558672  0  4.038151  0  0  0.291084  0.510887  0  4.083507  0
S  S64  1  0.23630918  0.42778155  0.17529843  1  0  1.135552  0  5.751252  0  0  1.032878  0  6.267054  0  0  1.075639  0  6.251148  0  0  0.499067  1.003313  0  6.276954  0
S  S65  1  0.76369015  0.57221835  0.82470282  1  0  1.13562  0  5.751019  0  0  1.032994  0  6.266788  0  0  1.075761  0  6.250872  0  0  0.499127  1.003429  0  6.276691  0
S  S66  1  0.76181718  0.57370481  0.16593624  1  0  1.16399  0  5.764308  0  0  1.063397  0  6.284499  0  0  1.106287  0  6.266713  0  0  0.496239  1.033675  0  6.296145  0
S  S67  1  0.23818230  0.42629428  0.83405614  1  0  1.163947  0  5.764355  0  0  1.063447  0  6.284564  0  0  1.10635  0  6.266775  0  0  0.496262  1.033724  0  6.296201  0
N  N68  1  0.15709296  0.82986530  0.12892039  1  0  -0.29474  0  3.221619  0  0  -0.2336  0  3.531842  0  0  -0.250456  0  3.543744  0  0  -0.250136  -0.222196  0  3.52248  0
N  N69  1  0.84290842  0.17013556  0.87108223  1  0  -0.29469  0  3.221576  0  0  -0.23354  0  3.531791  0  0  -0.250393  0  3.543688  0  0  -0.25011  -0.222135  0  3.522427  0
N  N70  1  0.29395909  0.82671735  0.16963255  1  0  -0.301388  0  3.087888  0  0  -0.264192  0  3.391739  0  0  -0.275726  0  3.401289  0  0  -0.235236  -0.256118  0  3.384363  0
N  N71  1  0.70604132  0.17328444  0.83037089  1  0  -0.301502  0  3.087771  0  0  -0.264306  0  3.391613  0  0  -0.275831  0  3.401141  0  0  -0.235308  -0.25623  0  3.384236  0
O  O72  1  0.22834628  0.00973383  0.24634855  1  0  -0.246989  0  2.329145  0  0  -0.16593  0  2.542375  0  0  -0.185152  0  2.544988  0  0  -0.081492  -0.153558  0  2.540362  0
O  O73  1  0.77165322  0.99026893  0.75365311  1  0  -0.246977  0  2.329202  0  0  -0.165944  0  2.542449  0  0  -0.185171  0  2.545067  0  0  -0.081486  -0.153569  0  2.540433  0
O  O74  1  0.34938805  0.51048717  0.16232488  1  0  -0.598711  0  2.08272  0  0  -0.556052  0  2.362397  0  0  -0.575113  0  2.346344  0  0  -0.331266  -0.542355  0  2.373177  0
O  O75  1  0.65061024  0.48950995  0.83767054  1  0  -0.598694  0  2.082629  0  0  -0.556054  0  2.362305  0  0  -0.575121  0  2.34625  0  0  -0.331283  -0.542357  0  2.373084  0
O  O76  1  0.24839751  0.29116172  0.14801568  1  0  -0.593507  0  2.001402  0  0  -0.549882  0  2.248928  0  0  -0.57002  0  2.238491  0  0  -0.320829  -0.535446  0  2.255376  0
O  O77  1  0.75160175  0.70883721  0.85198630  1  0  -0.593539  0  2.001415  0  0  -0.549918  0  2.248913  0  0  -0.570055  0  2.238478  0  0  -0.320844  -0.535482  0  2.255362  0
O  O78  1  0.10289698  0.46809455  0.12396702  1  0  -0.644949  0  2.185536  0  0  -0.575545  0  2.485205  0  0  -0.598911  0  2.467052  0  0  -0.344715  -0.558738  0  2.497136  0
O  O79  1  0.89710033  0.53190621  0.87603750  1  0  -0.644953  0  2.185491  0  0  -0.575561  0  2.485155  0  0  -0.598935  0  2.467004  0  0  -0.344703  -0.558757  0  2.497089  0
O  O80  1  0.87424395  0.66789162  0.17770406  1  0  -0.616951  0  2.039061  0  0  -0.573674  0  2.304869  0  0  -0.594227  0  2.292352  0  0  -0.328258  -0.559175  0  2.312785  0
O  O81  1  0.12576029  0.33210372  0.82228954  1  0  -0.617  0  2.039139  0  0  -0.573716  0  2.304892  0  0  -0.594269  0  2.292374  0  0  -0.328325  -0.559216  0  2.312808  0
O  O82  1  0.62984672  0.61926125  0.12765797  1  0  -0.629329  0  2.104426  0  0  -0.5841  0  2.396374  0  0  -0.603432  0  2.378541  0  0  -0.344601  -0.570474  0  2.408347  0
O  O83  1  0.37015491  0.38073890  0.87233054  1  0  -0.629339  0  2.104568  0  0  -0.584091  0  2.396441  0  0  -0.603417  0  2.378599  0  0  -0.344593  -0.570476  0  2.408442  0
O  O84  1  0.78157704  0.44700686  0.10605743  1  0  -0.6589  0  2.146336  0  0  -0.612715  0  2.453009  0  0  -0.633791  0  2.436597  0  0  -0.340619  -0.597716  0  2.46393  0
O  O85  1  0.21841805  0.55298825  0.89394068  1  0  -0.658906  0  2.146314  0  0  -0.612713  0  2.45291  0  0  -0.633796  0  2.43651  0  0  -0.340627  -0.597714  0  2.463829  0
F  F86  1  0.66321019  0.45888925  0.33081628  1  0  -0.219996  0  1.20032  0  0  -0.178679  0  1.359858  0  0  -0.188455  0  1.345095  0  0  -0.09293  -0.171788  0  1.370381  0
F  F87  1  0.33678571  0.54111830  0.66918010  1  0  -0.220033  0  1.200275  0  0  -0.178601  0  1.359901  0  0  -0.188374  0  1.345149  0  0  -0.092912  -0.171712  0  1.370415  0
F  F88  1  0.88061008  0.50729682  0.37536868  1  0  -0.223095  0  1.203445  0  0  -0.185538  0  1.366448  0  0  -0.194439  0  1.350241  0  0  -0.095199  -0.179252  0  1.377895  0
F  F89  1  0.11938394  0.49271354  0.62462950  1  0  -0.223128  0  1.203248  0  0  -0.185545  0  1.3664  0  0  -0.194446  0  1.350202  0  0  -0.095265  -0.179263  0  1.377841  0
F  F90  1  0.74065189  0.65843245  0.39048640  1  0  -0.229688  0  1.206167  0  0  -0.195168  0  1.379779  0  0  -0.205152  0  1.36442  0  0  -0.095151  -0.187895  0  1.390364  0
F  F91  1  0.25934199  0.34157234  0.60950223  1  0  -0.22973  0  1.206152  0  0  -0.195129  0  1.379863  0  0  -0.205108  0  1.364507  0  0  -0.095105  -0.187859  0  1.390441  0
F  F92  1  0.13702818  0.38263531  0.36771724  1  0  -0.215122  0  1.214041  0  0  -0.178102  0  1.388049  0  0  -0.188256  0  1.372425  0  0  -0.086939  -0.170853  0  1.398962  0
F  F93  1  0.86297905  0.61736280  0.63228517  1  0  -0.215086  0  1.213958  0  0  -0.178048  0  1.387992  0  0  -0.1882  0  1.37237  0  0  -0.086902  -0.170792  0  1.398905  0
F  F94  1  0.35677738  0.41752874  0.39976020  1  0  -0.22099  0  1.182571  0  0  -0.185921  0  1.348865  0  0  -0.19503  0  1.332527  0  0  -0.095484  -0.179382  0  1.360477  0
F  F95  1  0.64323252  0.58247992  0.60024145  1  0  -0.220991  0  1.182464  0  0  -0.185898  0  1.348776  0  0  -0.195004  0  1.332439  0  0  -0.095464  -0.179356  0  1.360393  0
F  F96  1  0.22761447  0.57723256  0.38023363  1  0  -0.211745  0  1.212838  0  0  -0.176005  0  1.385838  0  0  -0.185742  0  1.370549  0  0  -0.084336  -0.168866  0  1.396522  0
F  F97  1  0.77238309  0.42277021  0.61976505  1  0  -0.21175  0  1.21283  0  0  -0.17599  0  1.385852  0  0  -0.185723  0  1.370562  0  0  -0.084327  -0.168845  0  1.396541  0
