# generated using pymatgen
data_HgH11C13(NCl)2
_symmetry_space_group_name_H-M   'P 1'
_cell_length_a   9.61021325
_cell_length_b   10.75785006
_cell_length_c   13.91040000
_cell_angle_alpha   110.42106689
_cell_angle_beta   90.00000000
_cell_angle_gamma   90.00000000
_symmetry_Int_Tables_number   1
_chemical_formula_structural   HgH11C13(NCl)2
_chemical_formula_sum   'Hg4 H44 C52 N8 Cl8'
_cell_volume   1347.74888908
_cell_formula_units_Z   4
loop_
 _symmetry_equiv_pos_site_id
 _symmetry_equiv_pos_as_xyz
  1  'x, y, z'
loop_
 _atom_site_type_symbol
 _atom_site_label
 _atom_site_symmetry_multiplicity
 _atom_site_fract_x
 _atom_site_fract_y
 _atom_site_fract_z
 _atom_site_occupancy
 _atom_site_hle17_bader_spin_density
 _atom_site_hle17_ddec_charge
 _atom_site_hle17_ddec_spin_density
 _atom_site_hle17_ddec_sum_bond_order
 _atom_site_hle17_magmom
 _atom_site_hse06_10hf_bader_spin_density
 _atom_site_hse06_10hf_ddec_charge
 _atom_site_hse06_10hf_ddec_spin_density
 _atom_site_hse06_10hf_ddec_sum_bond_order
 _atom_site_hse06_10hf_magmom
 _atom_site_hse06_bader_spin_density
 _atom_site_hse06_ddec_charge
 _atom_site_hse06_ddec_spin_density
 _atom_site_hse06_ddec_sum_bond_order
 _atom_site_hse06_magmom
 _atom_site_pbe_bader_charge
 _atom_site_pbe_bader_spin_density
 _atom_site_pbe_cm5_charge
 _atom_site_pbe_ddec_charge
 _atom_site_pbe_ddec_spin_density
 _atom_site_pbe_ddec_sum_bond_order
 _atom_site_pbe_magmom
Hg  Hg0  1  0.58052822  0.68374572  0.04541085  1  0  0.7505  0  2.071667  0  0  0.589493  0  2.565635  0  0  0.640372  0  2.532521  0  0.842468  0  0.509521  0.554304  0  2.588446  0
Hg  Hg1  1  0.08052683  0.31625531  0.45458964  1  0  0.750473  0  2.071629  0  0  0.589479  0  2.565593  0  0  0.640359  0  2.532477  0  0.842558  0  0.509508  0.55429  0  2.588401  0
Hg  Hg2  1  0.41947560  0.31625531  0.95458892  1  0  0.750499  0  2.071645  0  0  0.589489  0  2.565607  0  0  0.640367  0  2.532495  0  0.842542  0  0.509537  0.5543  0  2.588418  0
Hg  Hg3  1  0.91947283  0.68374473  0.54541059  1  0  0.750504  0  2.071636  0  0  0.589491  0  2.565605  0  0  0.640373  0  2.532488  0  0.842476  0  0.509506  0.554303  0  2.588414  0
H  H4  1  0.47646914  0.57788226  0.22342958  1  0  0.081755  0  0.975385  0  0  0.088129  0  1.044602  0  0  0.09015  0  1.043187  0  0.125293  0  0.105378  0.086796  0  1.045329  0
H  H5  1  0.97646949  0.42211778  0.27657137  1  0  0.081773  0  0.975455  0  0  0.088143  0  1.044666  0  0  0.090164  0  1.04325  0  0.125312  0  0.105381  0.086809  0  1.045392  0
H  H6  1  0.52352740  0.42211381  0.77657030  1  0  0.081724  0  0.975515  0  0  0.088114  0  1.044704  0  0  0.090132  0  1.043289  0  0.125325  0  0.105378  0.086783  0  1.045425  0
H  H7  1  0.02353226  0.57788325  0.72342984  1  0  0.081765  0  0.975428  0  0  0.088135  0  1.044645  0  0  0.090155  0  1.043231  0  0.12529  0  0.105377  0.086801  0  1.045372  0
H  H8  1  0.37237883  0.66072890  0.40122408  1  0  0.111234  0  0.967204  0  0  0.120465  0  1.028311  0  0  0.123198  0  1.027397  0  0.125493  0  0.104569  0.118527  0  1.029091  0
H  H9  1  0.87237710  0.33927212  0.09877714  1  0  0.111228  0  0.967205  0  0  0.120473  0  1.028309  0  0  0.123206  0  1.027394  0  0.125484  0  0.104584  0.118537  0  1.029087  0
H  H10  1  0.62762083  0.33927014  0.59877732  1  0  0.111266  0  0.967148  0  0  0.120492  0  1.028264  0  0  0.123225  0  1.027349  0  0.125518  0  0.104597  0.118556  0  1.02904  0
H  H11  1  0.12762256  0.66072890  0.90122480  1  0  0.11124  0  0.967158  0  0  0.120441  0  1.028303  0  0  0.123173  0  1.02739  0  0.125481  0  0.104572  0.118505  0  1.029078  0
H  H12  1  0.34379882  0.90512077  0.48962107  1  0  0.09134  0  0.93946  0  0  0.103784  0  0.997675  0  0  0.106054  0  0.996451  0  0.075479  0  0.108289  0.102295  0  0.99836  0
H  H13  1  0.84379917  0.09488125  0.01038041  1  0  0.09133  0  0.939484  0  0  0.103751  0  0.997717  0  0  0.10602  0  0.996494  0  0.075469  0  0.108296  0.102262  0  0.998402  0
H  H14  1  0.65620188  0.09487828  0.51038032  1  0  0.091336  0  0.939459  0  0  0.103759  0  0.997685  0  0  0.106027  0  0.996463  0  0.075504  0  0.108288  0.10227  0  0.998367  0
H  H15  1  0.15620049  0.90512077  0.98962107  1  0  0.091323  0  0.939471  0  0  0.103749  0  0.997704  0  0  0.106018  0  0.996481  0  0.075447  0  0.108283  0.102259  0  0.998391  0
H  H16  1  0.40138235  0.05744434  0.39443673  1  0  0.111256  0  0.988094  0  0  0.114344  0  1.060546  0  0  0.117514  0  1.060434  0  0.138232  0  0.098074  0.11203  0  1.060925  0
H  H17  1  0.90138582  0.94255570  0.10556350  1  0  0.111289  0  0.988055  0  0  0.114346  0  1.060536  0  0  0.117515  0  1.060424  0  0.138242  0  0.098052  0.112031  0  1.060917  0
H  H18  1  0.59861315  0.94255371  0.60556296  1  0  0.111285  0  0.988037  0  0  0.114337  0  1.060528  0  0  0.117505  0  1.060418  0  0.138223  0  0.098048  0.112014  0  1.060913  0
H  H19  1  0.09861800  0.05744434  0.89443601  1  0  0.111259  0  0.988087  0  0  0.11434  0  1.060549  0  0  0.117511  0  1.060437  0  0.138233  0  0.098067  0.112025  0  1.060928  0
H  H20  1  0.69642263  0.12358656  0.33523002  1  0  0.082843  0  0.956867  0  0  0.093703  0  1.019545  0  0  0.096156  0  1.019036  0  0.062214  0  0.092616  0.091748  0  1.020521  0
H  H21  1  0.19642228  0.87641348  0.16477093  1  0  0.082866  0  0.956871  0  0  0.093729  0  1.019545  0  0  0.096182  0  1.019037  0  0.0622  0  0.092632  0.091773  0  1.020522  0
H  H22  1  0.30357703  0.87641447  0.66477119  1  0  0.082838  0  0.956889  0  0  0.093701  0  1.019565  0  0  0.096154  0  1.019058  0  0.062206  0  0.092607  0.091745  0  1.020542  0
H  H23  1  0.80357738  0.12358656  0.83523002  1  0  0.082838  0  0.956865  0  0  0.093699  0  1.019541  0  0  0.096151  0  1.019033  0  0.062212  0  0.092615  0.091743  0  1.020519  0
H  H24  1  0.70649525  0.36834939  0.42331088  1  0  0.085806  0  0.996096  0  0  0.091751  0  1.067311  0  0  0.094652  0  1.065934  0  0.098096  0  0.082961  0.089792  0  1.06813  0
H  H25  1  0.20649698  0.63165164  0.07668889  1  0  0.085749  0  0.996131  0  0  0.091694  0  1.067342  0  0  0.094593  0  1.065967  0  0.098057  0  0.082942  0.089734  0  1.068163  0
H  H26  1  0.29350753  0.63165263  0.57668988  1  0  0.085773  0  0.996178  0  0  0.091724  0  1.06737  0  0  0.094623  0  1.065997  0  0.098081  0  0.08295  0.089765  0  1.068191  0
H  H27  1  0.79350476  0.36834939  0.92331088  1  0  0.085808  0  0.996089  0  0  0.091759  0  1.067291  0  0  0.094659  0  1.065916  0  0.098099  0  0.082968  0.089799  0  1.068112  0
H  H28  1  0.52218300  0.51055968  0.39573508  1  0  0.084905  0  0.988213  0  0  0.094099  0  1.054138  0  0  0.096789  0  1.053179  0  0.06759  0  0.089381  0.09216  0  1.054739  0
H  H29  1  0.02218265  0.48944135  0.10426398  1  0  0.084913  0  0.988194  0  0  0.0941  0  1.054126  0  0  0.096778  0  1.053181  0  0.067596  0  0.089387  0.09216  0  1.054728  0
H  H30  1  0.47781666  0.48944035  0.60426371  1  0  0.084874  0  0.988218  0  0  0.094057  0  1.054165  0  0  0.096748  0  1.053205  0  0.0679  0  0.089371  0.092119  0  1.054767  0
H  H31  1  0.97781909  0.51055968  0.89573508  1  0  0.084883  0  0.98822  0  0  0.094092  0  1.05414  0  0  0.096783  0  1.05318  0  0.06791  0  0.089385  0.092154  0  1.054741  0
H  H32  1  0.32328523  0.40913790  0.27538800  1  0  0.090299  0  0.957173  0  0  0.100653  0  1.018616  0  0  0.103338  0  1.017804  0  0.082223  0  0.092554  0.09848  0  1.019795  0
H  H33  1  0.82328558  0.59086213  0.22461079  1  0  0.090239  0  0.957125  0  0  0.100606  0  1.018566  0  0  0.103289  0  1.017759  0  0.082249  0  0.092515  0.098433  0  1.019746  0
H  H34  1  0.67671547  0.59086213  0.72461079  1  0  0.090274  0  0.95711  0  0  0.100632  0  1.018552  0  0  0.103314  0  1.017747  0  0.082228  0  0.092532  0.098458  0  1.019733  0
H  H35  1  0.17671512  0.40913790  0.77538728  1  0  0.090303  0  0.957157  0  0  0.10066  0  1.018599  0  0  0.103345  0  1.017785  0  0.082217  0  0.092557  0.098485  0  1.01978  0
H  H36  1  0.31614075  0.16798159  0.18451910  1  0  0.089075  0  0.964917  0  0  0.097262  0  1.031704  0  0  0.100489  0  1.030213  0  0.085131  0  0.090287  0.094841  0  1.032816  0
H  H37  1  0.81614214  0.83201845  0.31548112  1  0  0.089109  0  0.964935  0  0  0.097293  0  1.031723  0  0  0.100521  0  1.030231  0  0.085124  0  0.090297  0.094873  0  1.032833  0
H  H38  1  0.68385891  0.83201845  0.81548112  1  0  0.089083  0  0.96491  0  0  0.09727  0  1.031697  0  0  0.100498  0  1.030205  0  0.085129  0  0.090293  0.094849  0  1.03281  0
H  H39  1  0.18385856  0.16798159  0.68451910  1  0  0.089076  0  0.964939  0  0  0.097262  0  1.031724  0  0  0.100489  0  1.030233  0  0.085118  0  0.090289  0.09484  0  1.032835  0
H  H40  1  0.65080970  0.95245179  0.99213728  1  0  0.065422  0  0.95044  0  0  0.080205  0  1.019016  0  0  0.080496  0  1.018585  0  0.086839  0  0.097416  0.079837  0  1.019292  0
H  H41  1  0.15080831  0.04755023  0.50786348  1  0  0.065379  0  0.950468  0  0  0.080172  0  1.019037  0  0  0.080462  0  1.018607  0  0.086831  0  0.097424  0.079804  0  1.019312  0
H  H42  1  0.34918996  0.04754924  0.00786394  1  0  0.065408  0  0.950435  0  0  0.080198  0  1.018994  0  0  0.080488  0  1.018561  0  0.086831  0  0.097418  0.07983  0  1.01927  0
H  H43  1  0.84918927  0.95244980  0.49213602  1  0  0.0654  0  0.950461  0  0  0.080193  0  1.01903  0  0  0.080484  0  1.018599  0  0.086821  0  0.0974  0.079823  0  1.019304  0
H  H44  1  0.58646357  0.10671947  0.08080439  1  0  0.066795  0  0.945566  0  0  0.08093  0  1.010022  0  0  0.081202  0  1.011127  0  0.07955  0  0.099287  0.079598  0  1.010901  0
H  H45  1  0.08646426  0.89328156  0.41919610  1  0  0.066778  0  0.945581  0  0  0.080919  0  1.010032  0  0  0.081192  0  1.011137  0  0.079521  0  0.099291  0.079588  0  1.010909  0
H  H46  1  0.41353713  0.89328057  0.91919655  1  0  0.066799  0  0.945548  0  0  0.08094  0  1.009991  0  0  0.081213  0  1.011096  0  0.079547  0  0.099283  0.079607  0  1.010871  0
H  H47  1  0.91353644  0.10671847  0.58080413  1  0  0.066784  0  0.945578  0  0  0.08092  0  1.01004  0  0  0.081193  0  1.011145  0  0.079517  0  0.099284  0.079587  0  1.010915  0
C  C48  1  0.45658508  0.68304941  0.26427346  1  0  0.143106  0  3.667023  0  0  0.111539  0  3.915056  0  0  0.11853  0  3.933405  0  0.474158  0  0.05809  0.107545  0  3.901292  0
C  C49  1  0.95658543  0.31695261  0.23572730  1  0  0.143111  0  3.667119  0  0  0.11158  0  3.915131  0  0  0.118572  0  3.933478  0  0.474107  0  0.058105  0.107586  0  3.901368  0
C  C50  1  0.54341042  0.31694963  0.73572650  1  0  0.143129  0  3.667231  0  0  0.11156  0  3.915259  0  0  0.118554  0  3.933606  0  0.473829  0  0.058073  0.107564  0  3.901499  0
C  C51  1  0.04341527  0.68304842  0.76427391  1  0  0.143089  0  3.66712  0  0  0.111531  0  3.915124  0  0  0.118522  0  3.933472  0  0.473978  0  0.05809  0.107537  0  3.901363  0
C  C52  1  0.40132928  0.72975852  0.36328477  1  0  -0.078453  0  3.685659  0  0  -0.093377  0  3.934567  0  0  -0.098094  0  3.953435  0  0.031  0  -0.071255  -0.090653  0  3.921719  0
C  C53  1  0.90132859  0.27024251  0.13671716  1  0  -0.07844  0  3.68571  0  0  -0.093399  0  3.934619  0  0  -0.098117  0  3.953487  0  0.031128  0  -0.071267  -0.090676  0  3.921771  0
C  C54  1  0.59866934  0.27024052  0.63671662  1  0  -0.078465  0  3.685638  0  0  -0.093416  0  3.934574  0  0  -0.098133  0  3.95344  0  0.031155  0  -0.071271  -0.090693  0  3.921729  0
C  C55  1  0.09867107  0.72975852  0.86328477  1  0  -0.07842  0  3.685737  0  0  -0.093329  0  3.934641  0  0  -0.098046  0  3.953511  0  0.031161  0  -0.071233  -0.090606  0  3.921794  0
C  C56  1  0.38377192  0.86552252  0.41155677  1  0  0.007559  0  3.704052  0  0  -0.01078  0  3.954893  0  0  -0.007766  0  3.972667  0  -0.008103  0  -0.06097  -0.012109  0  3.942126  0
C  C57  1  0.88377331  0.13447851  0.08844301  1  0  0.007618  0  3.704008  0  0  -0.010684  0  3.954835  0  0  -0.007667  0  3.972605  0  -0.00819  0  -0.060954  -0.012015  0  3.942069  0
C  C58  1  0.61622566  0.13447553  0.58844364  1  0  0.007605  0  3.703993  0  0  -0.010682  0  3.954798  0  0  -0.007667  0  3.972569  0  -0.00824  0  -0.060927  -0.012011  0  3.942028  0
C  C59  1  0.11622739  0.86552252  0.91155749  1  0  0.007565  0  3.704057  0  0  -0.010748  0  3.95488  0  0  -0.007732  0  3.972654  0  -0.008084  0  -0.060971  -0.012078  0  3.942114  0
C  C60  1  0.41781383  0.95072392  0.35915722  1  0  -0.134112  0  3.688073  0  0  -0.1535  0  3.937307  0  0  -0.160164  0  3.95944  0  -0.022752  0  -0.07623  -0.149189  0  3.922424  0
C  C61  1  0.91781626  0.04927711  0.14084327  1  0  -0.134194  0  3.688014  0  0  -0.153567  0  3.937248  0  0  -0.160229  0  3.959379  0  -0.022719  0  -0.076227  -0.149255  0  3.922365  0
C  C62  1  0.58218271  0.04927612  0.64084228  1  0  -0.134204  0  3.688029  0  0  -0.153602  0  3.937266  0  0  -0.160261  0  3.959399  0  -0.022723  0  -0.076261  -0.149282  0  3.922391  0
C  C63  1  0.08218548  0.95072392  0.85915722  1  0  -0.134099  0  3.688025  0  0  -0.153489  0  3.937249  0  0  -0.160153  0  3.95938  0  -0.022742  0  -0.076207  -0.149177  0  3.922368  0
C  C64  1  0.47099059  0.89691982  0.25946284  1  0  0.150803  0  3.759062  0  0  0.146779  0  4.003378  0  0  0.15096  0  4.025572  0  0.419135  0  0.114456  0.144268  0  3.987996  0
C  C65  1  0.97099302  0.10308121  0.24053765  1  0  0.150834  0  3.75905  0  0  0.14689  0  4.003348  0  0  0.151067  0  4.02555  0  0.419122  0  0.11448  0.144378  0  3.987966  0
C  C66  1  0.52900491  0.10307824  0.74053613  1  0  0.150746  0  3.759087  0  0  0.146815  0  4.003297  0  0  0.150986  0  4.025509  0  0.419069  0  0.114438  0.144304  0  3.987914  0
C  C67  1  0.02900872  0.89691982  0.75946284  1  0  0.150834  0  3.759021  0  0  0.146838  0  4.003341  0  0  0.151018  0  4.025536  0  0.419139  0  0.114463  0.144326  0  3.98796  0
C  C68  1  0.50234577  0.98370526  0.19897625  1  0  0.191244  0  3.716034  0  0  0.174243  0  3.965607  0  0  0.186243  0  3.980227  0  0.659674  0  0.157596  0.166085  0  3.955575  0
C  C69  1  0.00234750  0.01629477  0.30102326  1  0  0.191249  0  3.71594  0  0  0.174119  0  3.965699  0  0  0.186119  0  3.980323  0  0.659687  0  0.157577  0.165963  0  3.955663  0
C  C70  1  0.49765285  0.01629477  0.80102398  1  0  0.19123  0  3.716103  0  0  0.174151  0  3.965752  0  0  0.186152  0  3.980376  0  0.659673  0  0.157596  0.165994  0  3.955718  0
C  C71  1  0.99765528  0.98370526  0.69897553  1  0  0.191248  0  3.716028  0  0  0.174163  0  3.96572  0  0  0.186162  0  3.980343  0  0.65962  0  0.157555  0.166007  0  3.955686  0
C  C72  1  0.50561001  0.12953294  0.25431576  1  0  -0.009398  0  3.82035  0  0  0.016462  0  4.04305  0  0  0.01378  0  4.066109  0  -0.054537  0  -0.020392  0.01844  0  4.027261  0
C  C73  1  0.00561278  0.87046511  0.24568321  1  0  -0.009374  0  3.820496  0  0  0.016534  0  4.043212  0  0  0.013854  0  4.066269  0  -0.054221  0  -0.020372  0.018512  0  4.02742  0
C  C74  1  0.49438757  0.87046610  0.74568564  1  0  -0.009317  0  3.820411  0  0  0.016557  0  4.043137  0  0  0.013878  0  4.066196  0  -0.054553  0  -0.020362  0.018534  0  4.027347  0
C  C75  1  0.99439000  0.12953294  0.75431576  1  0  -0.009405  0  3.820309  0  0  0.016479  0  4.043023  0  0  0.013797  0  4.066083  0  -0.054522  0  -0.020386  0.018457  0  4.027232  0
C  C76  1  0.61488646  0.18663607  0.32228590  1  0  -0.104979  0  3.74702  0  0  -0.125376  0  3.992938  0  0  -0.127353  0  4.014554  0  -0.106054  0  -0.094875  -0.124427  0  3.97856  0
C  C77  1  0.11488715  0.81336793  0.17771539  1  0  -0.105125  0  3.746973  0  0  -0.125539  0  3.992901  0  0  -0.127517  0  4.014517  0  -0.106054  0  -0.094963  -0.124588  0  3.978519  0
C  C78  1  0.38511424  0.81336595  0.67771557  1  0  -0.105078  0  3.747013  0  0  -0.125484  0  3.992936  0  0  -0.127464  0  4.014554  0  -0.106028  0  -0.094924  -0.124535  0  3.978557  0
C  C79  1  0.88511355  0.18663607  0.82228662  1  0  -0.104983  0  3.746979  0  0  -0.125376  0  3.992891  0  0  -0.127356  0  4.014514  0  -0.106053  0  -0.094865  -0.124426  0  3.978509  0
C  C80  1  0.62061994  0.32365382  0.37150152  1  0  -0.060487  0  3.761204  0  0  -0.070112  0  4.005586  0  0  -0.072514  0  4.027497  0  -0.011292  0  -0.094577  -0.068341  0  3.990428  0
C  C81  1  0.12062167  0.67634225  0.12849620  1  0  -0.06028  0  3.760904  0  0  -0.069899  0  4.005285  0  0  -0.0723  0  4.027192  0  -0.011211  0  -0.094487  -0.068128  0  3.990128  0
C  C82  1  0.37937660  0.67634324  0.62849575  1  0  -0.060441  0  3.760944  0  0  -0.070076  0  4.005339  0  0  -0.072479  0  4.027254  0  -0.011246  0  -0.094551  -0.068304  0  3.990186  0
C  C83  1  0.87938111  0.32365382  0.87150152  1  0  -0.060461  0  3.761137  0  0  -0.070093  0  4.005531  0  0  -0.072491  0  4.027438  0  -0.011274  0  -0.094585  -0.06832  0  3.990376  0
C  C84  1  0.51562019  0.40392750  0.35542252  1  0  -0.054289  0  3.741643  0  0  -0.070161  0  3.986799  0  0  -0.071703  0  4.008251  0  0.00269  0  -0.088244  -0.069006  0  3.972034  0
C  C85  1  0.01561880  0.59607352  0.14457725  1  0  -0.054375  0  3.741722  0  0  -0.070233  0  3.986869  0  0  -0.071773  0  4.008341  0  0.002609  0  -0.088299  -0.06908  0  3.972112  0
C  C86  1  0.48438259  0.59607154  0.64457744  1  0  -0.054209  0  3.741557  0  0  -0.070074  0  3.986716  0  0  -0.071612  0  4.008155  0  0.001983  0  -0.088235  -0.068912  0  3.971928  0
C  C87  1  0.98438086  0.40392850  0.85542279  1  0  -0.054286  0  3.741622  0  0  -0.070181  0  3.9868  0  0  -0.071715  0  4.008228  0  0.002005  0  -0.088256  -0.069021  0  3.972013  0
C  C88  1  0.40604718  0.34764963  0.28866210  1  0  -0.065114  0  3.774912  0  0  -0.078142  0  4.028344  0  0  -0.080802  0  4.050682  0  -0.07668  0  -0.093253  -0.076807  0  4.01333  0
C  C89  1  0.90604961  0.65235041  0.21133669  1  0  -0.065006  0  3.774873  0  0  -0.078052  0  4.02831  0  0  -0.080712  0  4.050645  0  -0.076652  0  -0.09316  -0.076719  0  4.013296  0
C  C90  1  0.59395248  0.65234941  0.71133642  1  0  -0.065125  0  3.774962  0  0  -0.078159  0  4.0284  0  0  -0.080819  0  4.050738  0  -0.07636  0  -0.093228  -0.076824  0  4.01339  0
C  C91  1  0.09395213  0.34764963  0.78866210  1  0  -0.065124  0  3.77492  0  0  -0.078156  0  4.028353  0  0  -0.080817  0  4.050699  0  -0.076336  0  -0.093257  -0.076821  0  4.013342  0
C  C92  1  0.40133865  0.21081340  0.23758538  1  0  -0.104564  0  3.743386  0  0  -0.126288  0  3.991094  0  0  -0.128538  0  4.01231  0  -0.024126  0  -0.094287  -0.124052  0  3.976133  0
C  C93  1  0.90134004  0.78918961  0.26241493  1  0  -0.10463  0  3.743469  0  0  -0.126351  0  3.991175  0  0  -0.128599  0  4.012386  0  -0.024462  0  -0.094331  -0.124116  0  3.976212  0
C  C94  1  0.59865997  0.78918664  0.76241484  1  0  -0.104567  0  3.743436  0  0  -0.126288  0  3.991134  0  0  -0.128537  0  4.012348  0  -0.024101  0  -0.094293  -0.124054  0  3.976175  0
C  C95  1  0.09866170  0.21081340  0.73758466  1  0  -0.104562  0  3.743382  0  0  -0.126279  0  3.991084  0  0  -0.128528  0  4.012298  0  -0.024123  0  -0.094289  -0.124043  0  3.976122  0
C  C96  1  0.55985542  0.00273266  0.03718206  1  0  0.002084  0  3.689714  0  0  -0.050562  0  3.948807  0  0  -0.047558  0  3.962126  0  0.259947  0  -0.068446  -0.052285  0  3.939851  0
C  C97  1  0.05985715  0.99726738  0.46281745  1  0  0.002138  0  3.689629  0  0  -0.050518  0  3.948782  0  0  -0.047511  0  3.962099  0  0.283826  0  -0.068475  -0.05225  0  3.939843  0
C  C98  1  0.44014424  0.99726738  0.96281745  1  0  0.002102  0  3.689682  0  0  -0.050527  0  3.948756  0  0  -0.047519  0  3.962072  0  0.283796  0  -0.068439  -0.052255  0  3.939814  0
C  C99  1  0.94014355  0.00273365  0.53718232  1  0  0.002189  0  3.689597  0  0  -0.050454  0  3.9487  0  0  -0.047447  0  3.962017  0  0.26  0  -0.068389  -0.052187  0  3.939774  0
N  N100  1  0.49145944  0.76482581  0.21462609  1  0  -0.299864  0  3.273749  0  0  -0.222517  0  3.530455  0  0  -0.243395  0  3.553499  0  -1.183521  0  -0.296713  -0.207431  0  3.512589  0
N  N101  1  0.99146187  0.23517422  0.28537485  1  0  -0.299911  0  3.273743  0  0  -0.222612  0  3.530449  0  0  -0.243488  0  3.553492  0  -1.183531  0  -0.296741  -0.207525  0  3.512583  0
N  N102  1  0.50853502  0.23517224  0.78537360  1  0  -0.299823  0  3.273771  0  0  -0.22248  0  3.530426  0  0  -0.243354  0  3.553473  0  -1.183229  0  -0.296673  -0.207394  0  3.512561  0
N  N103  1  0.00853987  0.76482581  0.71462609  1  0  -0.299922  0  3.273723  0  0  -0.222559  0  3.530391  0  0  -0.243435  0  3.553432  0  -1.183499  0  -0.296733  -0.207472  0  3.512526  0
N  N104  1  0.52308100  0.92783406  0.10193750  1  0  -0.311829  0  3.137067  0  0  -0.246955  0  3.408075  0  0  -0.266297  0  3.42598  0  -1.156293  0  -0.309949  -0.233748  0  3.395909  0
N  N105  1  0.02307961  0.07216597  0.39806272  1  0  -0.311781  0  3.13685  0  0  -0.246893  0  3.407943  0  0  -0.266234  0  3.425845  0  -1.156291  0  -0.309923  -0.233685  0  3.395775  0
N  N106  1  0.47691970  0.07216498  0.89806317  1  0  -0.311762  0  3.137021  0  0  -0.246891  0  3.408065  0  0  -0.266233  0  3.425968  0  -1.156308  0  -0.309935  -0.233685  0  3.395898  0
N  N107  1  0.97692109  0.92783406  0.60193822  1  0  -0.311899  0  3.137059  0  0  -0.247005  0  3.408123  0  0  -0.266346  0  3.426026  0  -1.156244  0  -0.309969  -0.2338  0  3.395953  0
Cl  Cl108  1  0.62017458  0.43587332  0.07287001  1  0  -0.492318  0  1.033431  0  0  -0.429276  0  1.321804  0  0  -0.449862  0  1.302904  0  -0.547362  0  -0.257716  -0.415575  0  1.336215  0
Cl  Cl109  1  0.12017319  0.56412771  0.42712976  1  0  -0.492315  0  1.033415  0  0  -0.429272  0  1.321788  0  0  -0.449863  0  1.302897  0  -0.547358  0  -0.257712  -0.415571  0  1.336198  0
Cl  Cl110  1  0.37982820  0.56412771  0.92713048  1  0  -0.492314  0  1.033435  0  0  -0.429269  0  1.321791  0  0  -0.449857  0  1.302896  0  -0.54737  0  -0.257713  -0.415569  0  1.336201  0
Cl  Cl111  1  0.87982751  0.43587431  0.57287172  1  0  -0.492315  0  1.033417  0  0  -0.42926  0  1.321766  0  0  -0.449859  0  1.302892  0  -0.547373  0  -0.257714  -0.415559  0  1.336175  0
Cl  Cl112  1  0.79528204  0.71937045  0.96481869  1  0  -0.490634  0  0.961027  0  0  -0.426813  0  1.226957  0  0  -0.445895  0  1.213743  0  -0.53641  0  -0.273572  -0.413135  0  1.23604  0
Cl  Cl113  1  0.29528273  0.28063057  0.53518180  1  0  -0.490626  0  0.96101  0  0  -0.426805  0  1.226945  0  0  -0.445885  0  1.21373  0  -0.536492  0  -0.273557  -0.413126  0  1.236028  0
Cl  Cl114  1  0.20472074  0.28062958  0.03518010  1  0  -0.490657  0  0.961026  0  0  -0.426834  0  1.226942  0  0  -0.445914  0  1.213725  0  -0.536464  0  -0.273588  -0.413155  0  1.236024  0
Cl  Cl115  1  0.70471901  0.71937145  0.46481752  1  0  -0.490646  0  0.961033  0  0  -0.426822  0  1.226959  0  0  -0.445901  0  1.213744  0  -0.536415  0  -0.273564  -0.413141  0  1.236039  0
