# generated using pymatgen
data_AgH9C14N3O2F3
_symmetry_space_group_name_H-M   'P 1'
_cell_length_a   10.74952508
_cell_length_b   11.41835558
_cell_length_c   14.17102776
_cell_angle_alpha   90.27509532
_cell_angle_beta   112.24766273
_cell_angle_gamma   118.09001667
_symmetry_Int_Tables_number   1
_chemical_formula_structural   AgH9C14N3O2F3
_chemical_formula_sum   'Ag4 H36 C56 N12 O8 F12'
_cell_volume   1384.10352990
_cell_formula_units_Z   4
loop_
 _symmetry_equiv_pos_site_id
 _symmetry_equiv_pos_as_xyz
  1  'x, y, z'
loop_
 _atom_site_type_symbol
 _atom_site_label
 _atom_site_symmetry_multiplicity
 _atom_site_fract_x
 _atom_site_fract_y
 _atom_site_fract_z
 _atom_site_occupancy
 _atom_site_hle17_bader_spin_density
 _atom_site_hle17_ddec_charge
 _atom_site_hle17_ddec_spin_density
 _atom_site_hle17_ddec_sum_bond_order
 _atom_site_hle17_magmom
 _atom_site_hse06_10hf_bader_spin_density
 _atom_site_hse06_10hf_ddec_charge
 _atom_site_hse06_10hf_ddec_spin_density
 _atom_site_hse06_10hf_ddec_sum_bond_order
 _atom_site_hse06_10hf_magmom
 _atom_site_hse06_bader_spin_density
 _atom_site_hse06_ddec_charge
 _atom_site_hse06_ddec_spin_density
 _atom_site_hse06_ddec_sum_bond_order
 _atom_site_hse06_magmom
 _atom_site_pbe_bader_charge
 _atom_site_pbe_bader_spin_density
 _atom_site_pbe_cm5_charge
 _atom_site_pbe_ddec_charge
 _atom_site_pbe_ddec_spin_density
 _atom_site_pbe_ddec_sum_bond_order
 _atom_site_pbe_magmom
Ag  Ag0  1  0.25957262  0.36374849  0.94448756  1  0  0.55783  0  1.412295  0  0  0.415848  0  1.8535  0  0  0.44483  0  1.80794  0  0.606103  0  0.472227  0.394907  0  1.885631  0
Ag  Ag1  1  0.45152132  0.13641854  0.55554962  1  0  0.558036  0  1.411664  0  0  0.41598  0  1.852676  0  0  0.444925  0  1.807229  0  0.607615  0  0.471681  0.394858  0  1.884636  0
Ag  Ag2  1  0.74042768  0.63625248  0.05551222  1  0  0.557774  0  1.412319  0  0  0.415794  0  1.853515  0  0  0.444779  0  1.807954  0  0.606108  0  0.472208  0.394853  0  1.885645  0
Ag  Ag3  1  0.54847719  0.86357937  0.44444963  1  0  0.558044  0  1.411665  0  0  0.415984  0  1.85269  0  0  0.444926  0  1.807245  0  0.607523  0  0.471684  0.394861  0  1.884651  0
H  H4  1  0.93056399  0.15187349  0.38946674  1  0  0.324873  0  0.925116  0  0  0.305033  0  0.99033  0  0  0.313706  0  0.98318  0  0.553411  0  0.306772  0.298185  0  0.996383  0
H  H5  1  0.88902361  0.34808472  0.11066354  1  0  0.325194  0  0.927343  0  0  0.305359  0  0.992312  0  0  0.314021  0  0.985205  0  0.570361  0  0.307053  0.298532  0  0.998326  0
H  H6  1  0.06943712  0.84812646  0.61053428  1  0  0.324885  0  0.92508  0  0  0.304997  0  0.990357  0  0  0.313671  0  0.983209  0  0.553274  0  0.306757  0.29815  0  0.996411  0
H  H7  1  0.11097681  0.65191523  0.88933578  1  0  0.3252  0  0.927345  0  0  0.305365  0  0.992314  0  0  0.314028  0  0.985206  0  0.570357  0  0.307048  0.298536  0  0.998331  0
H  H8  1  0.12955871  0.41874130  0.72309532  1  0  0.083232  0  0.952914  0  0  0.091873  0  1.017122  0  0  0.094281  0  1.014928  0  0.118341  0  0.112459  0.090139  0  1.018641  0
H  H9  1  0.48789078  0.08143185  0.77698819  1  0  0.083803  0  0.951482  0  0  0.091975  0  1.016471  0  0  0.094377  0  1.014288  0  0.12497  0  0.112398  0.090225  0  1.017998  0
H  H10  1  0.87043969  0.58125764  0.27690341  1  0  0.083215  0  0.952927  0  0  0.091859  0  1.017126  0  0  0.094266  0  1.014934  0  0.118334  0  0.112461  0.090125  0  1.018644  0
H  H11  1  0.51210951  0.91856912  0.22301259  1  0  0.083807  0  0.951497  0  0  0.091978  0  1.016481  0  0  0.094381  0  1.014298  0  0.124978  0  0.112392  0.090228  0  1.018008  0
H  H12  1  0.07384883  0.34041429  0.54035856  1  0  0.108292  0  0.954667  0  0  0.113981  0  1.022859  0  0  0.117775  0  1.02037  0  0.098573  0  0.103786  0.111385  0  1.024482  0
H  H13  1  0.69309577  0.15930861  0.95962746  1  0  0.108167  0  0.954306  0  0  0.114063  0  1.02245  0  0  0.117723  0  1.020292  0  0.086633  0  0.103503  0.111354  0  1.024332  0
H  H14  1  0.92615239  0.65958464  0.45964299  1  0  0.108269  0  0.954589  0  0  0.113949  0  1.0228  0  0  0.117743  0  1.020312  0  0.098502  0  0.103768  0.111348  0  1.024437  0
H  H15  1  0.30690593  0.84069235  0.04037373  1  0  0.108177  0  0.954297  0  0  0.114068  0  1.022451  0  0  0.117728  0  1.020292  0  0.086635  0  0.103506  0.11136  0  1.024333  0
H  H16  1  0.29766937  0.10698976  0.65709524  1  0  0.099844  0  1.017577  0  0  0.105395  0  1.09476  0  0  0.110186  0  1.089612  0  0.118882  0  0.097297  0.101889  0  1.098468  0
H  H17  1  0.03374014  0.39311513  0.84288938  1  0  0.09961  0  1.015943  0  0  0.104905  0  1.093751  0  0  0.109726  0  1.088524  0  0.146706  0  0.097058  0.101348  0  1.097588  0
H  H18  1  0.70233162  0.89301121  0.34290624  1  0  0.099867  0  1.017543  0  0  0.105401  0  1.094752  0  0  0.110194  0  1.089596  0  0.118903  0  0.097306  0.101892  0  1.098467  0
H  H19  1  0.96625946  0.60688584  0.15710970  1  0  0.099695  0  1.015826  0  0  0.104925  0  1.093713  0  0  0.109745  0  1.088486  0  0.146712  0  0.097078  0.101366  0  1.09755  0
H  H20  1  0.35087036  0.20106407  0.83673125  1  0  0.07787  0  0.953852  0  0  0.08395  0  1.022486  0  0  0.086324  0  1.020231  0  0.102344  0  0.110884  0.082034  0  1.024216  0
H  H21  1  0.81340751  0.29923335  0.66327872  1  0  0.077985  0  0.954093  0  0  0.083662  0  1.022934  0  0  0.086319  0  1.020403  0  0.094924  0  0.110652  0.081908  0  1.024466  0
H  H22  1  0.64912921  0.79893690  0.16326982  1  0  0.077877  0  0.953865  0  0  0.083955  0  1.022498  0  0  0.086329  0  1.020246  0  0.102332  0  0.110885  0.082039  0  1.024227  0
H  H23  1  0.18659005  0.70076660  0.33672076  1  0  0.077996  0  0.954073  0  0  0.083652  0  1.022935  0  0  0.086306  0  1.020407  0  0.094915  0  0.110647  0.081898  0  1.024466  0
H  H24  1  0.82924081  0.07049563  0.16858706  1  0  0.114975  0  0.950585  0  0  0.124763  0  1.010187  0  0  0.127635  0  1.008517  0  0.086002  0  0.099743  0.122483  0  1.011679  0
H  H25  1  0.09001779  0.42958787  0.33159895  1  0  0.11406  0  0.950766  0  0  0.12388  0  1.010664  0  0  0.126889  0  1.008719  0  0.082997  0  0.09923  0.121733  0  1.011979  0
H  H26  1  0.17075959  0.92950432  0.83141325  1  0  0.114964  0  0.950545  0  0  0.12475  0  1.010153  0  0  0.127621  0  1.008483  0  0.086  0  0.099732  0.122469  0  1.011645  0
H  H27  1  0.90998131  0.57041106  0.66840048  1  0  0.11409  0  0.950754  0  0  0.123916  0  1.010641  0  0  0.126928  0  1.008692  0  0.08296  0  0.099242  0.121769  0  1.011956  0
H  H28  1  0.90400386  0.98719451  0.04729564  1  0  0.084004  0  0.968925  0  0  0.094581  0  1.033797  0  0  0.097297  0  1.031987  0  0.093309  0  0.094481  0.092486  0  1.035466  0
H  H29  1  0.36923682  0.51284922  0.45266513  1  0  0.083815  0  0.968074  0  0  0.094051  0  1.033516  0  0  0.096803  0  1.031609  0  0.06897  0  0.094476  0.092097  0  1.034838  0
H  H30  1  0.09599785  0.01280646  0.95270555  1  0  0.084008  0  0.968907  0  0  0.094582  0  1.033781  0  0  0.0973  0  1.031971  0  0.093351  0  0.094488  0.092488  0  1.03545  0
H  H31  1  0.63076156  0.48714971  0.54733459  1  0  0.083857  0  0.96803  0  0  0.094082  0  1.033485  0  0  0.096835  0  1.031577  0  0.069021  0  0.094492  0.092129  0  1.034806  0
H  H32  1  0.14789792  0.98012203  0.11426606  1  0  0.077837  0  0.983313  0  0  0.08747  0  1.048766  0  0  0.08919  0  1.049232  0  0.068132  0  0.089442  0.086182  0  1.048548  0
H  H33  1  0.55303615  0.51969454  0.38543857  1  0  0.077858  0  0.98179  0  0  0.087486  0  1.047457  0  0  0.089119  0  1.048162  0  0.095303  0  0.089409  0.08627  0  1.047113  0
H  H34  1  0.85210308  0.01987894  0.88573443  1  0  0.07783  0  0.98332  0  0  0.087467  0  1.048767  0  0  0.089186  0  1.049233  0  0.068127  0  0.089435  0.086178  0  1.04855  0
H  H35  1  0.44696343  0.48030643  0.61456150  1  0  0.077874  0  0.981777  0  0  0.087503  0  1.047443  0  0  0.089135  0  1.048148  0  0.095446  0  0.089414  0.086294  0  1.047091  0
H  H36  1  0.32596574  0.05171174  0.30541673  1  0  0.113135  0  0.949885  0  0  0.121795  0  1.013423  0  0  0.124403  0  1.012383  0  0.100484  0  0.101985  0.119758  0  1.014399  0
H  H37  1  0.46825299  0.44804478  0.19421293  1  0  0.112536  0  0.951707  0  0  0.12131  0  1.015114  0  0  0.123985  0  1.013976  0  0.107936  0  0.101887  0.119236  0  1.0161  0
H  H38  1  0.67403455  0.94828923  0.69458404  1  0  0.113138  0  0.949875  0  0  0.121799  0  1.013413  0  0  0.124407  0  1.012374  0  0.100481  0  0.101991  0.119762  0  1.014389  0
H  H39  1  0.53174803  0.55195619  0.80578656  1  0  0.11253  0  0.951704  0  0  0.121304  0  1.015107  0  0  0.12398  0  1.013968  0  0.107936  0  0.101885  0.119231  0  1.016092  0
C  C40  1  0.16318532  0.34805925  0.70518522  1  0  0.118836  0  3.700884  0  0  0.08975  0  3.946524  0  0  0.096263  0  3.965083  0  0.487261  0  0.042807  0.085176  0  3.934486  0
C  C41  1  0.61010064  0.15202425  0.79484964  1  0  0.120518  0  3.699265  0  0  0.091121  0  3.945566  0  0  0.097655  0  3.964053  0  0.483315  0  0.043528  0.086604  0  3.933418  0
C  C42  1  0.83681307  0.65193968  0.29481450  1  0  0.118871  0  3.700862  0  0  0.089788  0  3.946506  0  0  0.096301  0  3.965065  0  0.48728  0  0.042819  0.085219  0  3.934459  0
C  C43  1  0.38989905  0.84797570  0.20515096  1  0  0.12053  0  3.699249  0  0  0.091138  0  3.945544  0  0  0.097671  0  3.964033  0  0.483318  0  0.043558  0.086622  0  3.933396  0
C  C44  1  0.13215371  0.30374698  0.60304606  1  0  -0.140062  0  3.690625  0  0  -0.159727  0  3.938806  0  0  -0.165393  0  3.957677  0  -0.017845  0  -0.083386  -0.156006  0  3.926378  0
C  C45  1  0.72542482  0.19609102  0.89693723  1  0  -0.140304  0  3.691901  0  0  -0.160646  0  3.94006  0  0  -0.166407  0  3.959144  0  -0.097572  0  -0.083424  -0.157047  0  3.927768  0
C  C46  1  0.86784408  0.69625093  0.39695348  1  0  -0.140121  0  3.690514  0  0  -0.159778  0  3.938717  0  0  -0.16544  0  3.957591  0  -0.017803  0  -0.083386  -0.156056  0  3.926285  0
C  C47  1  0.27457499  0.80390791  0.10306290  1  0  -0.140312  0  3.691881  0  0  -0.160658  0  3.940035  0  0  -0.16642  0  3.959117  0  -0.09767  0  -0.083438  -0.157058  0  3.92774  0
C  C48  1  0.18174196  0.21622972  0.58318912  1  0  0.046633  0  3.780397  0  0  0.061905  0  4.012717  0  0  0.064752  0  4.031854  0  -0.057703  0  0.012399  0.059824  0  3.999805  0
C  C49  1  0.88232115  0.28368570  0.91678276  1  0  0.045889  0  3.781465  0  0  0.061918  0  4.012974  0  0  0.064759  0  4.032119  0  0.064098  0  0.011838  0.059926  0  3.999875  0
C  C50  1  0.81825725  0.78376819  0.41681083  1  0  0.046662  0  3.780392  0  0  0.06193  0  4.012736  0  0  0.064769  0  4.031873  0  -0.057972  0  0.012406  0.059851  0  3.999824  0
C  C51  1  0.11767987  0.71631526  0.08321573  1  0  0.045836  0  3.781501  0  0  0.061879  0  4.012987  0  0  0.06472  0  4.032131  0  0.064178  0  0.011812  0.059888  0  3.999888  0
C  C52  1  0.26175325  0.17849589  0.66894360  1  0  -0.144793  0  3.710781  0  0  -0.16605  0  3.960479  0  0  -0.1721  0  3.979239  0  0.024393  0  -0.083569  -0.161934  0  3.947888  0
C  C53  1  0.91447071  0.32161104  0.83105420  1  0  -0.142949  0  3.706902  0  0  -0.164234  0  3.956095  0  0  -0.170273  0  3.97492  0  -0.052033  0  -0.082799  -0.159967  0  3.943205  0
C  C54  1  0.73824704  0.82150507  0.33105717  1  0  -0.144795  0  3.710762  0  0  -0.166038  0  3.960467  0  0  -0.172081  0  3.979223  0  0.024362  0  -0.0836  -0.161923  0  3.947875  0
C  C55  1  0.08552829  0.67838891  0.16894470  1  0  -0.142945  0  3.706815  0  0  -0.164175  0  3.955975  0  0  -0.170214  0  3.974801  0  -0.052003  0  -0.08277  -0.159906  0  3.943087  0
C  C56  1  0.28845128  0.22801346  0.76853263  1  0  0.130384  0  3.707076  0  0  0.102434  0  3.952297  0  0  0.109298  0  3.971031  0  0.458579  0  0.04683  0.097938  0  3.939492  0
C  C57  1  0.79215376  0.27219534  0.73147541  1  0  0.129944  0  3.708417  0  0  0.102253  0  3.953336  0  0  0.109056  0  3.971979  0  0.457561  0  0.047484  0.097947  0  3.940133  0
C  C58  1  0.71154771  0.77198649  0.23146726  1  0  0.130259  0  3.707126  0  0  0.102309  0  3.952354  0  0  0.109169  0  3.971089  0  0.458587  0  0.046783  0.097815  0  3.939546  0
C  C59  1  0.20784725  0.72780563  0.26852508  1  0  0.129883  0  3.708474  0  0  0.102221  0  3.953368  0  0  0.109023  0  3.972013  0  0.457587  0  0.047489  0.097915  0  3.940165  0
C  C60  1  0.15363137  0.16832366  0.47749508  1  0  0.339405  0  3.737961  0  0  0.305361  0  4.002904  0  0  0.321294  0  4.016985  0  1.015033  0  0.22478  0.294778  0  3.993128  0
C  C61  1  0.00757279  0.33156324  0.02249920  1  0  0.339288  0  3.739251  0  0  0.305061  0  4.003814  0  0  0.320981  0  4.017891  0  1.022851  0  0.225198  0.294582  0  3.993873  0
C  C62  1  0.84636844  0.83167527  0.52250506  1  0  0.339415  0  3.737956  0  0  0.305356  0  4.002913  0  0  0.321291  0  4.016991  0  1.015291  0  0.224776  0.294765  0  3.993146  0
C  C63  1  0.99242631  0.66843569  0.97750023  1  0  0.339331  0  3.739247  0  0  0.305088  0  4.003815  0  0  0.321009  0  4.017891  0  1.022842  0  0.225208  0.294608  0  3.993875  0
C  C64  1  0.03518388  0.10373416  0.30429730  1  0  0.165682  0  3.791099  0  0  0.158833  0  4.031913  0  0  0.162192  0  4.056222  0  0.338468  0  0.096215  0.156531  0  4.015342  0
C  C65  1  0.12683068  0.39623118  0.19569557  1  0  0.167718  0  3.7917  0  0  0.160474  0  4.032698  0  0  0.163859  0  4.056973  0  0.341348  0  0.096578  0.158098  0  4.016223  0
C  C66  1  0.96481533  0.89626375  0.69570266  1  0  0.16566  0  3.791236  0  0  0.158856  0  4.031986  0  0  0.162215  0  4.056297  0  0.338487  0  0.096213  0.156555  0  4.015414  0
C  C67  1  0.87316841  0.60376775  0.80430486  1  0  0.167704  0  3.791807  0  0  0.160457  0  4.032789  0  0  0.163842  0  4.057065  0  0.341341  0  0.096569  0.15808  0  4.016314  0
C  C68  1  0.93533045  0.06518643  0.19762140  1  0  -0.157173  0  3.760945  0  0  -0.177695  0  4.019296  0  0  -0.181161  0  4.04069  0  0.058305  0  -0.100809  -0.175318  0  4.004758  0
C  C69  1  0.17225741  0.43481355  0.30240248  1  0  -0.157597  0  3.761567  0  0  -0.1777  0  4.01951  0  0  -0.181028  0  4.040507  0  -0.004041  0  -0.100527  -0.175176  0  4.004652  0
C  C70  1  0.06466855  0.93481352  0.80237750  1  0  -0.15715  0  3.760953  0  0  -0.177681  0  4.019285  0  0  -0.181148  0  4.040681  0  0.058259  0  -0.1008  -0.175305  0  4.004749  0
C  C71  1  0.82774098  0.56518539  0.69759724  1  0  -0.157667  0  3.76154  0  0  -0.177776  0  4.019487  0  0  -0.181104  0  4.040479  0  -0.003977  0  -0.100554  -0.175251  0  4.004627  0
C  C72  1  0.97908794  0.02016620  0.13104707  1  0  -0.074043  0  3.790422  0  0  -0.094216  0  4.057803  0  0  -0.096014  0  4.079935  0  -0.072378  0  -0.099836  -0.092922  0  4.042942  0
C  C73  1  0.32760251  0.47989591  0.36888036  1  0  -0.073118  0  3.78956  0  0  -0.093097  0  4.056959  0  0  -0.094838  0  4.07895  0  -0.051568  0  -0.099383  -0.091559  0  4.04151  0
C  C74  1  0.02091176  0.97983375  0.86895254  1  0  -0.074034  0  3.790447  0  0  -0.094205  0  4.057831  0  0  -0.096004  0  4.079964  0  -0.07243  0  -0.099833  -0.092911  0  4.04297  0
C  C75  1  0.67239588  0.52010302  0.63111935  1  0  -0.073128  0  3.789527  0  0  -0.093098  0  4.056925  0  0  -0.094839  0  4.078916  0  -0.051625  0  -0.099371  -0.09156  0  4.041478  0
C  C76  1  0.11820617  0.01554051  0.16941620  1  0  -0.077913  0  3.793887  0  0  -0.095842  0  4.053504  0  0  -0.099304  0  4.078329  0  -0.030303  0  -0.101802  -0.093294  0  4.036482  0
C  C77  1  0.43286210  0.48441056  0.33038334  1  0  -0.077859  0  3.79209  0  0  -0.095854  0  4.052207  0  0  -0.099407  0  4.077272  0  -0.071412  0  -0.101521  -0.093354  0  4.034985  0
C  C78  1  0.88179554  0.98446045  0.83058499  1  0  -0.077937  0  3.793929  0  0  -0.095866  0  4.053538  0  0  -0.09933  0  4.078363  0  -0.030325  0  -0.101814  -0.093319  0  4.036517  0
C  C79  1  0.56713689  0.51558939  0.66961655  1  0  -0.077873  0  3.792076  0  0  -0.095875  0  4.052205  0  0  -0.099428  0  4.077271  0  -0.071572  0  -0.101543  -0.09338  0  4.034981  0
C  C80  1  0.21812903  0.05453441  0.27551769  1  0  -0.128386  0  3.71921  0  0  -0.146599  0  3.96497  0  0  -0.148717  0  3.985959  0  -0.021702  0  -0.092871  -0.145222  0  3.951037  0
C  C81  1  0.38763850  0.44535147  0.22426393  1  0  -0.127271  0  3.71847  0  0  -0.145686  0  3.964118  0  0  -0.14787  0  3.985135  0  -0.004734  0  -0.092431  -0.144115  0  3.950148  0
C  C82  1  0.78187149  0.94546452  0.72448315  1  0  -0.12835  0  3.719178  0  0  -0.146555  0  3.964947  0  0  -0.148673  0  3.985936  0  -0.021654  0  -0.092855  -0.145177  0  3.951013  0
C  C83  1  0.61236119  0.55464848  0.77573667  1  0  -0.12726  0  3.718486  0  0  -0.145679  0  3.964132  0  0  -0.147865  0  3.985147  0  -0.004742  0  -0.09243  -0.144109  0  3.950163  0
C  C84  1  0.17419692  0.09772820  0.34371718  1  0  0.149952  0  3.814326  0  0  0.149637  0  4.051155  0  0  0.152321  0  4.076022  0  0.384238  0  0.088077  0.147686  0  4.034675  0
C  C85  1  0.23240548  0.40221676  0.15620704  1  0  0.148657  0  3.813914  0  0  0.14885  0  4.05044  0  0  0.151527  0  4.075317  0  0.431271  0  0.087254  0.146723  0  4.034155  0
C  C86  1  0.82580480  0.90227277  0.65628301  1  0  0.149932  0  3.814298  0  0  0.149576  0  4.051171  0  0  0.152259  0  4.076039  0  0.384256  0  0.088065  0.147625  0  4.034691  0
C  C87  1  0.76759493  0.59778319  0.84379327  1  0  0.148687  0  3.814049  0  0  0.148899  0  4.050539  0  0  0.151577  0  4.075414  0  0.431271  0  0.087275  0.146772  0  4.034253  0
C  C88  1  0.61557741  0.33360054  0.08081999  1  0  0.493341  0  4.049638  0  0  0.443496  0  4.349972  0  0  0.471977  0  4.345828  0  1.680525  0  0.188125  0.424131  0  4.351963  0
C  C89  1  0.70148305  0.16644120  0.41948815  1  0  0.493847  0  4.050871  0  0  0.443687  0  4.351282  0  0  0.472449  0  4.34659  0  1.685835  0  0.187967  0.424435  0  4.352965  0
C  C90  1  0.38442157  0.66639941  0.91917990  1  0  0.493256  0  4.049755  0  0  0.443401  0  4.350121  0  0  0.471888  0  4.345968  0  1.68055  0  0.188057  0.424036  0  4.352111  0
C  C91  1  0.29851808  0.83355875  0.58051187  1  0  0.49379  0  4.050899  0  0  0.443638  0  4.351345  0  0  0.472403  0  4.346654  0  1.685824  0  0.187904  0.424385  0  4.353027  0
C  C92  1  0.52149262  0.18190735  0.08618221  1  0  0.664546  0  3.638484  0  0  0.590164  0  3.990681  0  0  0.618105  0  3.962701  0  1.662033  0  0.289686  0.569905  0  4.01117  0
C  C93  1  0.75347853  0.31802030  0.41387280  1  0  0.661585  0  3.641629  0  0  0.588763  0  3.991456  0  0  0.616828  0  3.963173  0  1.66655  0  0.289686  0.569101  0  4.010848  0
C  C94  1  0.47850696  0.81809362  0.91381786  1  0  0.66461  0  3.638339  0  0  0.590222  0  3.99055  0  0  0.618155  0  3.962582  0  1.661999  0  0.289763  0.569966  0  4.011036  0
C  C95  1  0.24652248  0.68198067  0.58612669  1  0  0.661627  0  3.641548  0  0  0.58871  0  3.991548  0  0  0.616747  0  3.963298  0  1.66656  0  0.289661  0.569049  0  4.010936  0
N  N96  1  0.23909861  0.31043849  0.78733391  1  0  -0.292287  0  3.305497  0  0  -0.207791  0  3.580072  0  0  -0.224761  0  3.595054  0  -1.189889  0  -0.338618  -0.196429  0  3.569885  0
N  N97  1  0.64158182  0.18979679  0.71271033  1  0  -0.293882  0  3.305397  0  0  -0.209276  0  3.579654  0  0  -0.226266  0  3.594688  0  -1.165457  0  -0.339177  -0.197814  0  3.569288  0
N  N98  1  0.76090169  0.68956248  0.21266587  1  0  -0.29213  0  3.305465  0  0  -0.207637  0  3.58003  0  0  -0.224606  0  3.595014  0  -1.189881  0  -0.33856  -0.196275  0  3.569845  0
N  N99  1  0.35841717  0.81020316  0.28728957  1  0  -0.293897  0  3.305515  0  0  -0.209299  0  3.579771  0  0  -0.226289  0  3.594806  0  -1.165403  0  -0.339214  -0.197838  0  3.569405  0
N  N100  1  0.24539604  0.13859132  0.45190633  1  0  -0.436964  0  3.229088  0  0  -0.365192  0  3.526743  0  0  -0.385869  0  3.537816  0  -1.182378  0  -0.359766  -0.350822  0  3.518963  0
N  N101  1  0.15463196  0.36138726  0.04803441  1  0  -0.436432  0  3.228954  0  0  -0.364698  0  3.526269  0  0  -0.385402  0  3.537406  0  -1.179646  0  -0.359877  -0.350268  0  3.518638  0
N  N102  1  0.75460437  0.86140863  0.54809398  1  0  -0.436927  0  3.229036  0  0  -0.365143  0  3.526707  0  0  -0.385819  0  3.537779  0  -1.182339  0  -0.359749  -0.350768  0  3.518925  0
N  N103  1  0.84536785  0.63861167  0.95196573  1  0  -0.43642  0  3.228967  0  0  -0.364685  0  3.526267  0  0  -0.385389  0  3.537403  0  -1.179656  0  -0.359869  -0.350255  0  3.518635  0
N  N104  1  0.02732684  0.15016522  0.39057408  1  0  -0.382201  0  3.356402  0  0  -0.321573  0  3.583649  0  0  -0.340622  0  3.598037  0  -1.284161  0  -0.371426  -0.308624  0  3.574494  0
N  N105  1  0.98633458  0.34981031  0.10945204  1  0  -0.384  0  3.359315  0  0  -0.323547  0  3.587635  0  0  -0.342562  0  3.601863  0  -1.302532  0  -0.371969  -0.310571  0  3.578447  0
N  N106  1  0.97267430  0.84983473  0.60942495  1  0  -0.38224  0  3.356441  0  0  -0.321583  0  3.583725  0  0  -0.34063  0  3.598102  0  -1.284178  0  -0.371421  -0.308631  0  3.574571  0
N  N107  1  0.01366512  0.65018964  0.89054757  1  0  -0.384045  0  3.359397  0  0  -0.323584  0  3.587709  0  0  -0.342602  0  3.601943  0  -1.302531  0  -0.371974  -0.310604  0  3.578522  0
O  O108  1  0.53264056  0.38343491  0.03610448  1  0  -0.569547  0  2.081447  0  0  -0.520927  0  2.353465  0  0  -0.544893  0  2.34046  0  -1.154066  0  -0.31799  -0.503301  0  2.361869  0
O  O109  1  0.61353263  0.11667508  0.46433567  1  0  -0.56921  0  2.082088  0  0  -0.520492  0  2.354548  0  0  -0.544421  0  2.341217  0  -1.132569  0  -0.317691  -0.50276  0  2.362817  0
O  O110  1  0.46735974  0.61656606  0.96389530  1  0  -0.569551  0  2.0815  0  0  -0.520918  0  2.353498  0  0  -0.544896  0  2.340512  0  -1.154042  0  -0.317981  -0.50329  0  2.361902  0
O  O111  1  0.38646920  0.88332487  0.53566506  1  0  -0.569198  0  2.08211  0  0  -0.52046  0  2.354543  0  0  -0.544391  0  2.341213  0  -1.132602  0  -0.317677  -0.502737  0  2.362832  0
O  O112  1  0.76231997  0.38931659  0.12179532  1  0  -0.583661  0  2.045895  0  0  -0.549397  0  2.281456  0  0  -0.571654  0  2.273296  0  -1.15885  0  -0.322076  -0.532902  0  2.286401  0
O  O113  1  0.75150974  0.11068542  0.37847128  1  0  -0.584917  0  2.045596  0  0  -0.550068  0  2.281287  0  0  -0.572372  0  2.272955  0  -1.183488  0  -0.322399  -0.533528  0  2.28621  0
O  O114  1  0.23767902  0.61068336  0.87820458  1  0  -0.583603  0  2.045999  0  0  -0.549339  0  2.281563  0  0  -0.571596  0  2.273401  0  -1.158872  0  -0.322026  -0.53285  0  2.286526  0
O  O115  1  0.24849138  0.88931453  0.62152874  1  0  -0.584896  0  2.045578  0  0  -0.550024  0  2.281269  0  0  -0.57233  0  2.272938  0  -1.183342  0  -0.322363  -0.533483  0  2.286192  0
F  F116  1  0.42181332  0.09985107  0.98725895  1  0  -0.268604  0  1.175791  0  0  -0.226098  0  1.348156  0  0  -0.236655  0  1.332778  0  -0.629729  0  -0.104782  -0.216402  0  1.356491  0
F  F117  1  0.83450916  0.40034245  0.51266178  1  0  -0.270036  0  1.178818  0  0  -0.223548  0  1.347265  0  0  -0.236822  0  1.334955  0  -0.628539  0  -0.10457  -0.216332  0  1.358354  0
F  F118  1  0.57818922  0.90014888  0.01274149  1  0  -0.268617  0  1.175819  0  0  -0.226083  0  1.348172  0  0  -0.236638  0  1.332796  0  -0.62973  0  -0.104781  -0.216403  0  1.35652  0
F  F119  1  0.16549102  0.59965954  0.48733846  1  0  -0.270022  0  1.178794  0  0  -0.223527  0  1.347292  0  0  -0.236755  0  1.334955  0  -0.628532  0  -0.104565  -0.216311  0  1.358381  0
F  F120  1  0.43181707  0.16591965  0.13734931  1  0  -0.245039  0  1.183648  0  0  -0.201817  0  1.349677  0  0  -0.212677  0  1.335957  0  -0.621153  0  -0.096333  -0.195049  0  1.360451  0
F  F121  1  0.62851972  0.33370343  0.36257649  1  0  -0.246503  0  1.183109  0  0  -0.20191  0  1.347844  0  0  -0.211061  0  1.33253  0  -0.623489  0  -0.096448  -0.194887  0  1.358337  0
F  F122  1  0.56818111  0.83408132  0.86264835  1  0  -0.245048  0  1.183546  0  0  -0.201846  0  1.349591  0  0  -0.212703  0  1.335878  0  -0.621145  0  -0.096357  -0.195074  0  1.360365  0
F  F123  1  0.37148022  0.66629449  0.63742219  1  0  -0.246542  0  1.183075  0  0  -0.201907  0  1.347832  0  0  -0.211058  0  1.332526  0  -0.623508  0  -0.096443  -0.194884  0  1.358325  0
F  F124  1  0.61402895  0.12997151  0.13500053  1  0  -0.251665  0  1.194963  0  0  -0.213571  0  1.367312  0  0  -0.222194  0  1.350436  0  -0.634878  0  -0.104663  -0.207481  0  1.379191  0
F  F125  1  0.84914406  0.36993067  0.36499535  1  0  -0.242775  0  1.184971  0  0  -0.213824  0  1.367117  0  0  -0.222101  0  1.350015  0  -0.641526  0  -0.10473  -0.207315  0  1.378659  0
F  F126  1  0.38597107  0.87003149  0.86500317  1  0  -0.251672  0  1.194908  0  0  -0.213582  0  1.367264  0  0  -0.222202  0  1.350392  0  -0.634852  0  -0.104711  -0.20749  0  1.379145  0
F  F127  1  0.15085848  0.63006928  0.63500508  1  0  -0.242761  0  1.184979  0  0  -0.213789  0  1.367162  0  0  -0.222065  0  1.350067  0  -0.641521  0  -0.104695  -0.207278  0  1.378703  0
