# generated using pymatgen
data_MnH22(C13N6)2
_symmetry_space_group_name_H-M   'P 1'
_cell_length_a   7.97622293
_cell_length_b   8.48921787
_cell_length_c   10.26273639
_cell_angle_alpha   68.58213868
_cell_angle_beta   84.00838263
_cell_angle_gamma   69.71790059
_symmetry_Int_Tables_number   1
_chemical_formula_structural   MnH22(C13N6)2
_chemical_formula_sum   'Mn1 H22 C26 N12'
_cell_volume   606.61334870
_cell_formula_units_Z   1
loop_
 _symmetry_equiv_pos_site_id
 _symmetry_equiv_pos_as_xyz
  1  'x, y, z'
loop_
 _atom_site_type_symbol
 _atom_site_label
 _atom_site_symmetry_multiplicity
 _atom_site_fract_x
 _atom_site_fract_y
 _atom_site_fract_z
 _atom_site_occupancy
 _atom_site_hle17_ddec_charge
 _atom_site_hle17_ddec_spin_density
 _atom_site_hle17_ddec_sum_bond_order
 _atom_site_hle17_magmom
 _atom_site_hse06_10hf_ddec_charge
 _atom_site_hse06_10hf_ddec_spin_density
 _atom_site_hse06_10hf_ddec_sum_bond_order
 _atom_site_hse06_10hf_magmom
 _atom_site_hse06_ddec_charge
 _atom_site_hse06_ddec_spin_density
 _atom_site_hse06_ddec_sum_bond_order
 _atom_site_hse06_magmom
 _atom_site_pbe_cm5_charge
 _atom_site_pbe_ddec_charge
 _atom_site_pbe_ddec_spin_density
 _atom_site_pbe_ddec_sum_bond_order
 _atom_site_pbe_magmom
Mn  Mn0  1  0.00001803  0.99998317  0.00000817  1  0.573717  -1.303243  2.874728  -1.238  0.476235  -1.137963  3.419913  -1.081  0.516105  -1.076581  3.366745  -1.016  0.640998  0.45191  -1.160057  3.448222  -1.101
H  H1  1  0.85301007  0.36639463  0.08116556  1  0.089579  0.000707  0.999687  0.0  0.094302  0.000553  1.073047  0.0  0.097671  0.000486  1.067796  0.0  0.133347  0.09151  0.000607  1.077064  0.0
H  H2  1  0.14700414  0.63360004  0.91883403  1  0.089636  0.000707  0.999698  0.0  0.094343  0.000554  1.073063  0.0  0.097715  0.000486  1.067808  0.0  0.133374  0.091549  0.000607  1.077082  0.0
H  H3  1  0.70170463  0.11829041  0.58655194  1  0.093002  0.000299  0.988309  0.0  0.10147  0.000278  1.055608  0.0  0.103721  8.2e-05  1.055056  0.0  0.097263  0.099643  0.000458  1.056264  0.0
H  H4  1  0.29828513  0.88171364  0.41344256  1  0.09298  0.000299  0.988338  0.0  0.101435  0.000279  1.055658  0.0  0.103687  8.2e-05  1.055104  0.0  0.097233  0.099607  0.000459  1.056314  0.0
H  H5  1  0.75204660  0.79101226  0.69883105  1  0.087174  0.000917  0.985679  0.0  0.093682  0.000359  1.056687  0.0  0.096589  0.000486  1.055572  0.0  0.093286  0.092078  0.000348  1.056769  0.0
H  H6  1  0.24794764  0.20899321  0.30116758  1  0.087179  0.000916  0.98566  0.0  0.093687  0.000359  1.056666  0.0  0.096592  0.000486  1.055555  0.0  0.09329  0.092083  0.000348  1.056743  0.0
H  H7  1  0.86923571  0.58827696  0.56317912  1  0.077061  9.3e-05  0.978462  0.0  0.088858  0.000148  1.042473  0.0  0.090728  4.2e-05  1.0427  0.0  0.091203  0.08741  0.000246  1.042701  0.0
H  H8  1  0.13075978  0.41172453  0.43682357  1  0.077156  9.3e-05  0.978361  0.0  0.088925  0.000148  1.042399  0.0  0.090795  4.2e-05  1.042626  0.0  0.091227  0.087475  0.000247  1.042628  0.0
H  H9  1  0.95070160  0.70582459  0.31159801  1  0.098922  0.000259  0.995371  0.0  0.104049  0.000282  1.06975  0.0  0.107317  0.000144  1.067192  0.0  0.100811  0.102118  0.000365  1.070781  0.0
H  H10  1  0.04930785  0.29416884  0.68840813  1  0.098946  0.000259  0.995395  0.0  0.104088  0.000281  1.069749  0.0  0.107356  0.000145  1.067193  0.0  0.100797  0.102156  0.000365  1.07078  0.0
H  H11  1  0.26606647  0.61001528  0.55876137  1  0.094103  0.001597  0.907349  0.001  0.112685  0.001067  0.963921  0.001  0.11442  0.000416  0.963175  0.0  0.120697  0.111481  0.001362  0.964407  0.001
H  H12  1  0.73393471  0.38998473  0.44123358  1  0.094083  0.001601  0.907317  0.001  0.112636  0.001069  0.963918  0.001  0.114375  0.000416  0.963169  0.0  0.120681  0.111402  0.001364  0.964435  0.001
H  H13  1  0.16258634  0.50866030  0.71050037  1  0.091088  0.000858  0.919508  0.001  0.105608  0.000579  0.984088  0.0  0.107437  0.000309  0.983163  0.0  0.117527  0.103976  0.00077  0.985137  0.0
H  H14  1  0.83740644  0.49134238  0.28949240  1  0.091053  0.00086  0.919573  0.001  0.105604  0.00058  0.984088  0.0  0.107434  0.00031  0.983163  0.0  0.117534  0.103973  0.000771  0.985129  0.0
H  H15  1  0.39076877  0.20623929  0.74191356  1  0.110251  0.000521  0.966996  0.001  0.119378  -4e-06  1.028238  0.0  0.122396  0.000107  1.028231  0.0  0.105337  0.117031  -2e-05  1.028882  0.0
H  H16  1  0.60922244  0.79376358  0.25809094  1  0.110245  0.000522  0.967042  0.001  0.119371  -4e-06  1.028278  0.0  0.12239  0.000107  1.028269  0.0  0.105363  0.117022  -2e-05  1.028922  0.0
H  H17  1  0.67572107  0.99529995  0.85880156  1  0.07925  -0.000159  0.979498  -0.001  0.087117  0.000344  1.042817  0.0  0.089635  0.00018  1.040248  0.0  0.122502  0.085193  0.000433  1.044892  0.0
H  H18  1  0.32427262  0.00470295  0.14120471  1  0.079234  -0.00016  0.979592  -0.001  0.087137  0.000345  1.042854  0.0  0.089658  0.000181  1.040278  0.0  0.122503  0.085211  0.000434  1.04493  0.0
H  H19  1  0.83341869  0.40868293  0.86967372  1  0.073748  -0.000474  0.994199  -0.001  0.077928  9.1e-05  1.066083  0.0  0.081371  -6e-06  1.061705  0.0  0.112924  0.075434  0.000102  1.069178  0.0
H  H20  1  0.16657835  0.59131838  0.13031819  1  0.073714  -0.000474  0.994331  -0.001  0.077917  9.2e-05  1.066209  0.0  0.081361  -6e-06  1.06183  0.0  0.112945  0.075437  0.000102  1.069287  0.0
H  H21  1  0.55121379  0.63573713  0.75834811  1  0.113022  0.000318  0.954957  0.001  0.121127  -0.000121  1.017587  0.0  0.124892  -0.000107  1.015969  0.0  0.108181  0.118534  -0.000132  1.018749  0.0
H  H22  1  0.44877773  0.36426555  0.24164474  1  0.113061  0.000319  0.954945  0.001  0.121132  -0.000121  1.017605  0.0  0.124904  -0.000107  1.015971  0.0  0.108178  0.118538  -0.000132  1.018766  0.0
C  C23  1  0.85035096  0.24836368  0.17011616  1  0.196381  0.016599  3.602453  0.011  0.131031  0.008773  3.877257  0.005  0.15274  0.001682  3.883532  0.001  0.156651  0.117131  0.010881  3.873336  0.006
C  C24  1  0.14966081  0.75162696  0.82988386  1  0.196481  0.0166  3.602624  0.011  0.131119  0.008775  3.87738  0.005  0.152828  0.001679  3.883647  0.001  0.156687  0.117219  0.010882  3.873458  0.006
C  C25  1  0.86830391  0.97780678  0.30804432  1  0.145662  0.000429  3.774204  0.0  0.146531  0.00068  4.015811  0.0  0.149842  0.000315  4.03856  0.0  0.091425  0.144416  0.000654  4.001108  0.0
C  C26  1  0.13170512  0.02218798  0.69196047  1  0.14585  0.00043  3.774142  0.0  0.146617  0.000684  4.015782  0.0  0.149931  0.000314  4.038527  0.0  0.091474  0.1445  0.000654  4.001085  0.0
C  C27  1  0.79824172  0.09224354  0.38687084  1  0.097  -0.000843  3.799994  -0.001  0.086953  7.2e-05  4.040436  0.0  0.090183  0.000168  4.064138  0.0  0.093038  0.084608  0.000199  4.024454  0.0
C  C28  1  0.20175854  0.90775519  0.61312847  1  0.097054  -0.000843  3.799993  -0.001  0.08707  7.2e-05  4.040376  0.0  0.090303  0.000168  4.064073  0.0  0.093058  0.084723  0.000199  4.024399  0.0
C  C29  1  0.75417398  0.02918386  0.52707193  1  -0.13917  0.001857  3.771724  0.001  -0.158206  0.000976  4.025314  0.001  -0.160966  0.000131  4.046275  0.0  -0.099263  -0.15599  0.001472  4.011354  0.001
C  C30  1  0.24582537  0.97081757  0.47292759  1  -0.139146  0.001857  3.771752  0.001  -0.158192  0.000976  4.025327  0.001  -0.160955  0.00013  4.046292  0.0  -0.099199  -0.155973  0.001472  4.011362  0.001
C  C31  1  0.78162796  0.84614431  0.58854214  1  -0.071262  -0.001368  3.779773  -0.001  -0.088958  -0.000369  4.037326  0.0  -0.090906  0.000186  4.059641  0.0  -0.102474  -0.087818  -0.000436  4.022082  0.0
C  C32  1  0.21836671  0.15385983  0.41145784  1  -0.071262  -0.001368  3.779722  -0.001  -0.088948  -0.000369  4.037256  0.0  -0.090901  0.000189  4.059583  0.0  -0.102484  -0.087806  -0.000436  4.022005  0.0
C  C33  1  0.85131458  0.73065383  0.51167625  1  -0.09844  0.001696  3.807231  0.001  -0.113283  0.00088  4.062432  0.001  -0.116513  -8.3e-05  4.086347  0.0  -0.109243  -0.111449  0.001498  4.04684  0.001
C  C34  1  0.14867965  0.26934766  0.48832652  1  -0.098521  0.001696  3.807253  0.001  -0.113343  0.000877  4.062461  0.001  -0.116573  -8.6e-05  4.086377  0.0  -0.109267  -0.111505  0.001499  4.046867  0.001
C  C35  1  0.89698060  0.79371024  0.37184660  1  -0.146777  -0.001444  3.764959  -0.001  -0.167706  -0.000235  4.018745  0.0  -0.169257  0.000126  4.037586  0.0  -0.09627  -0.16689  -0.000141  4.00608  0.0
C  C36  1  0.10302589  0.20628455  0.62815934  1  -0.146927  -0.001445  3.765049  -0.001  -0.167845  -0.000235  4.018846  0.0  -0.169393  0.000128  4.037681  0.0  -0.09632  -0.16703  -0.000141  4.006184  0.0
C  C37  1  0.26539843  0.57287946  0.67329899  1  -0.027361  -0.000505  3.643952  -0.002  -0.093486  0.000587  3.893327  -0.001  -0.08984  0.000311  3.899658  0.0  -0.037921  -0.095884  0.00085  3.889217  -0.001
C  C38  1  0.73459433  0.42712323  0.32669475  1  -0.027322  -0.000507  3.643914  -0.002  -0.093399  0.000587  3.893235  -0.001  -0.089753  0.000311  3.899562  0.0  -0.037916  -0.095774  0.000851  3.889128  -0.001
C  C39  1  0.48550459  0.25802569  0.76745228  1  -0.169307  -0.012536  3.731827  -0.012  -0.1864  -0.002145  3.978863  -0.003  -0.193322  -0.001503  3.993932  -0.002  -0.091262  -0.182715  -0.000577  3.970083  -0.002
C  C40  1  0.51448797  0.74197713  0.23254923  1  -0.169186  -0.012568  3.731965  -0.012  -0.186288  -0.00215  3.979003  -0.003  -0.193207  -0.001506  3.994056  -0.002  -0.09124  -0.182601  -0.00058  3.970226  -0.002
C  C41  1  0.64598301  0.13775791  0.83509498  1  0.119696  0.028017  3.671872  0.017  0.090049  0.013072  3.923749  0.007  0.101853  0.007468  3.934206  0.004  0.041282  0.081472  0.013647  3.918073  0.007
C  C42  1  0.35400519  0.86224634  0.16491126  1  0.11962  0.028081  3.671968  0.017  0.090002  0.013096  3.923816  0.007  0.101834  0.00748  3.934268  0.004  0.041273  0.081413  0.013671  3.918156  0.007
C  C43  1  0.73219134  0.36724448  0.84154885  1  0.109806  0.026132  3.689272  0.016  0.081248  0.012214  3.942115  0.007  0.093143  0.005341  3.95293  0.003  0.037064  0.072299  0.014192  3.93689  0.007
C  C44  1  0.26780651  0.63275816  0.15844260  1  0.109729  0.026191  3.689346  0.016  0.08116  0.012235  3.942193  0.007  0.093078  0.005347  3.953009  0.003  0.037022  0.0722  0.014213  3.936957  0.007
C  C45  1  0.57337397  0.49531444  0.77620867  1  -0.165386  -0.012922  3.726933  -0.012  -0.185411  -0.002424  3.977298  -0.003  -0.192961  -0.00204  3.992436  -0.002  -0.089857  -0.180954  -0.00079  3.967666  -0.003
C  C46  1  0.42661871  0.50468830  0.22378798  1  -0.1655  -0.012953  3.727089  -0.012  -0.185476  -0.002429  3.977458  -0.003  -0.193018  -0.002044  3.992578  -0.002  -0.089895  -0.181019  -0.000793  3.967838  -0.003
C  C47  1  0.44408283  0.44190791  0.73898270  1  0.109401  0.038001  3.737795  0.025  0.121636  0.019812  3.982807  0.012  0.131821  0.008487  3.999575  0.005  -0.003693  0.115065  0.024102  3.971525  0.015
C  C48  1  0.55590810  0.55809620  0.26101559  1  0.109428  0.038085  3.737875  0.025  0.121613  0.019852  3.98292  0.012  0.131811  0.008505  3.999675  0.005  -0.003694  0.115036  0.02414  3.971635  0.015
N  N49  1  0.89889364  0.08072962  0.17192005  1  -0.334174  0.013676  3.217382  0.013  -0.282739  0.007857  3.507477  0.008  -0.305929  0.007853  3.520879  0.008  -0.332808  -0.268278  0.009434  3.498007  0.01
N  N50  1  0.10112352  0.91925972  0.82808389  1  -0.334421  0.013677  3.2175  0.013  -0.282857  0.007855  3.507468  0.008  -0.306054  0.007852  3.520875  0.008  -0.332843  -0.268395  0.009434  3.498002  0.01
N  N51  1  0.79011013  0.26221628  0.29632565  1  -0.123122  0.001733  3.54204  0.001  -0.034696  0.001794  3.765214  0.001  -0.051681  8.6e-05  3.787597  0.0  -0.244361  -0.023302  0.002552  3.749627  0.002
N  N52  1  0.20988898  0.73778238  0.70366986  1  -0.123174  0.001732  3.542189  0.001  -0.034764  0.001792  3.765374  0.001  -0.05174  8.6e-05  3.787737  0.0  -0.24439  -0.023369  0.002551  3.749794  0.002
N  N53  1  0.77040307  0.18815755  0.87506180  1  -0.247495  0.018246  3.26391  0.015  -0.185337  0.014007  3.534749  0.012  -0.203257  0.007256  3.548919  0.007  -0.316519  -0.172928  0.019612  3.522613  0.017
N  N54  1  0.22959125  0.81184787  0.12493392  1  -0.247334  0.018254  3.263962  0.015  -0.18527  0.014019  3.534918  0.012  -0.203241  0.007261  3.549137  0.007  -0.316597  -0.172857  0.019629  3.522781  0.017
N  N55  1  0.11892122  0.19257912  0.93410870  1  -0.466907  -0.006517  2.793066  0.0  -0.462351  0.00027  3.119172  0.005  -0.490116  0.000115  3.131671  0.004  -0.280665  -0.441653  -0.003086  3.107546  0.002
N  N56  1  0.88108700  0.80741431  0.06589656  1  -0.466949  -0.006526  2.793385  0.0  -0.462343  0.00027  3.119456  0.005  -0.490093  0.000113  3.131939  0.004  -0.280683  -0.441659  -0.003084  3.107843  0.002
N  N57  1  0.17092182  0.26677881  0.99247006  1  0.353725  4.3e-05  4.246965  -0.003  0.394622  -0.000465  4.543237  -0.001  0.409682  0.000713  4.581747  -0.001  0.074282  0.383934  -0.001  4.515978  -0.001
N  N58  1  0.82908786  0.73322537  0.00753375  1  0.353716  4.4e-05  4.246905  -0.003  0.3946  -0.000463  4.543164  -0.001  0.409658  0.000716  4.581676  -0.001  0.074269  0.383911  -0.000997  4.515906  -0.001
N  N59  1  0.22564823  0.34263482  0.04439822  1  -0.436289  0.036305  2.434682  0.024  -0.437816  -0.009999  2.679838  -0.011  -0.458772  -0.000482  2.696876  -0.004  -0.212924  -0.421413  -0.017627  2.666652  -0.017
N  N60  1  0.77435444  0.65736795  0.95560163  1  -0.43632  0.036325  2.434409  0.024  -0.43785  -0.009997  2.679547  -0.011  -0.45881  -0.000477  2.696584  -0.004  -0.212938  -0.421438  -0.017628  2.666359  -0.017
