# generated using pymatgen
data_FeH24Pd(C19N3)2
_symmetry_space_group_name_H-M   'P 1'
_cell_length_a   7.26778974
_cell_length_b   14.08158232
_cell_length_c   16.08023399
_cell_angle_alpha   101.76730468
_cell_angle_beta   95.39964073
_cell_angle_gamma   90.00557234
_symmetry_Int_Tables_number   1
_chemical_formula_structural   FeH24Pd(C19N3)2
_chemical_formula_sum   'Fe2 H48 Pd2 C76 N12'
_cell_volume   1603.63389987
_cell_formula_units_Z   2
loop_
 _symmetry_equiv_pos_site_id
 _symmetry_equiv_pos_as_xyz
  1  'x, y, z'
loop_
 _atom_site_type_symbol
 _atom_site_label
 _atom_site_symmetry_multiplicity
 _atom_site_fract_x
 _atom_site_fract_y
 _atom_site_fract_z
 _atom_site_occupancy
 _atom_site_pbe_bader_charge
 _atom_site_pbe_bader_spin_density
 _atom_site_pbe_cm5_charge
 _atom_site_pbe_ddec_charge
 _atom_site_pbe_ddec_spin_density
 _atom_site_pbe_ddec_sum_bond_order
 _atom_site_pbe_magmom
Fe  Fe0  1  0.50103615  0.99991575  0.50094945  1  1.451682  3.633887  0.804562  0.827317  3.895261  2.919766  3.608
Fe  Fe1  1  0.49896448  0.49874221  0.48753770  1  1.238519  0.004198  0.805292  0.562224  0.004443  3.740217  0.004
H  H2  1  0.55844890  0.99035675  0.68522421  1  0.117931  0.002104  0.114686  0.081384  0.000651  1.041603  0.001
H  H3  1  0.44224989  0.01020154  0.31621634  1  0.106649  0.002065  0.114064  0.080902  0.000629  1.04175  0.001
H  H4  1  0.56579323  0.09462611  0.82993348  1  0.099242  0.00089  0.108556  0.116623  0.000391  1.006082  0.0
H  H5  1  0.43366482  0.90568266  0.17148494  1  0.103256  0.000896  0.108802  0.116748  0.000396  1.006342  0.0
H  H6  1  0.48468131  0.34076927  0.70802468  1  0.069956  0.000932  0.10309  0.110193  0.000402  1.038757  0.0
H  H7  1  0.51541148  0.65962222  0.29342647  1  0.073707  0.000928  0.10336  0.110352  0.000403  1.036497  0.0
H  H8  1  0.48304951  0.22571769  0.56819828  1  0.099623  0.001588  0.116542  0.091102  0.000307  0.999796  0.001
H  H9  1  0.51784548  0.77472684  0.43327900  1  0.089358  0.001592  0.117201  0.093115  0.000322  1.00248  0.001
H  H10  1  0.77004664  0.52251197  0.36626108  1  0.131969  -3.2e-05  0.126839  0.104679  -2.6e-05  0.995598  0.0
H  H11  1  0.23145883  0.47575697  0.63572480  1  0.111361  -3.8e-05  0.122219  0.096354  -3.1e-05  0.991094  0.0
H  H12  1  0.78053758  0.49331667  0.20907927  1  0.105492  -1.9e-05  0.111417  0.121725  -3.1e-05  1.015842  0.0
H  H13  1  0.22075851  0.50606193  0.79438248  1  0.09994  -2.3e-05  0.10884  0.118172  -3.5e-05  1.020149  0.0
H  H14  1  0.20526957  0.40327065  0.18217534  1  0.063104  -3.5e-05  0.113078  0.121555  -4.5e-05  1.001088  0.0
H  H15  1  0.79370728  0.59887698  0.82090780  1  0.072051  -4.1e-05  0.112066  0.120402  -5e-05  1.003103  0.0
H  H16  1  0.21651048  0.44009678  0.34075862  1  0.129104  -3e-05  0.126119  0.100034  -2.2e-05  0.998471  0.0
H  H17  1  0.78083121  0.56336797  0.66085825  1  0.096505  -3.2e-05  0.121145  0.092212  -2.4e-05  0.996245  0.0
H  H18  1  0.47267870  0.20385196  0.32240165  1  0.067619  0.000104  0.103134  0.114116  2.2e-05  0.99526  0.0
H  H19  1  0.52732193  0.79625745  0.67767265  1  0.068059  0.000108  0.102949  0.113579  2.2e-05  0.995927  0.0
H  H20  1  0.19153612  0.11140298  0.24979467  1  0.062964  -4.5e-05  0.097225  0.095018  -5.9e-05  1.031252  0.0
H  H21  1  0.80830720  0.88870707  0.75034964  1  0.064999  -3.9e-05  0.097424  0.095482  -5.4e-05  1.031751  0.0
H  H22  1  0.16149686  0.05101270  0.09271602  1  0.054397  2e-06  0.095532  0.091867  3e-06  1.024682  0.0
H  H23  1  0.83824133  0.94905640  0.90744547  1  0.055379  2e-06  0.095713  0.092282  3e-06  1.0247  0.0
H  H24  1  0.41077670  0.08454710  0.00604729  1  0.04238  1.2e-05  0.097478  0.099007  8e-06  1.026694  0.0
H  H25  1  0.58885283  0.91539650  0.99402152  1  0.041546  1.2e-05  0.097564  0.098719  8e-06  1.026788  0.0
H  H26  1  0.78397024  0.27059590  0.31492393  1  0.047103  -6.8e-05  0.081947  0.078046  -8.7e-05  1.079754  0.0
H  H27  1  0.21606604  0.72915336  0.68498135  1  0.044379  -6.8e-05  0.082061  0.077457  -8.7e-05  1.075382  0.0
H  H28  1  0.03948493  0.29678663  0.23055866  1  0.059636  -1.2e-05  0.092992  0.085637  -1.1e-05  1.039983  0.0
H  H29  1  0.96052086  0.70299004  0.76942945  1  0.049129  -1.2e-05  0.093094  0.085189  -1e-05  1.040771  0.0
H  H30  1  0.00524988  0.24347479  0.07196371  1  0.046601  -5e-06  0.094842  0.08825  -3e-06  1.030335  0.0
H  H31  1  0.99455516  0.75647984  0.92796837  1  0.044458  -5e-06  0.094609  0.087778  -3e-06  1.030919  0.0
H  H32  1  0.71892541  0.15754999  0.99828756  1  0.051384  3e-05  0.09903  0.100152  2.2e-05  1.012985  0.0
H  H33  1  0.28087202  0.84234348  0.00171736  1  0.051074  3e-05  0.099266  0.100437  2.2e-05  1.012549  0.0
H  H34  1  0.11729570  0.15454277  0.95065621  1  0.060141  -0.0  0.094108  0.092228  -1e-06  1.03897  0.0
H  H35  1  0.88247667  0.84552034  0.04945646  1  0.062105  0.0  0.094176  0.092086  -1e-06  1.039253  0.0
H  H36  1  0.16512834  0.98535336  0.87516892  1  0.087899  0.0  0.092099  0.088535  3e-06  1.039961  0.0
H  H37  1  0.83459857  0.01471332  0.12494872  1  0.089553  0.0  0.092157  0.088625  3e-06  1.0401  0.0
H  H38  1  0.12509347  0.94157441  0.71657512  1  0.092657  -6.2e-05  0.091801  0.087489  -9.1e-05  1.043086  0.0
H  H39  1  0.87462145  0.05850470  0.28353626  1  0.090363  -6.9e-05  0.091772  0.087187  -0.0001  1.043731  0.0
H  H40  1  0.03678432  0.06603848  0.63219556  1  0.078454  6e-05  0.103931  0.116858  -0.000101  0.990434  0.0
H  H41  1  0.96297509  0.93404458  0.36795325  1  0.075616  5.8e-05  0.104077  0.117076  -0.0001  0.989467  0.0
H  H42  1  0.96316411  0.23656785  0.62690908  1  0.043785  -2.8e-05  0.075033  0.070111  -7.7e-05  1.09275  0.0
H  H43  1  0.03655377  0.76355178  0.37321870  1  0.041091  -2.5e-05  0.074619  0.070214  -7.3e-05  1.093154  0.0
H  H44  1  0.91388594  0.40490020  0.70082471  1  0.037854  1e-06  0.090362  0.084105  7e-06  1.033695  0.0
H  H45  1  0.08567784  0.59526292  0.29944155  1  0.036195  3e-06  0.089888  0.083211  8e-06  1.037682  0.0
H  H46  1  0.94815890  0.44927306  0.86089242  1  0.016914  -2.7e-05  0.093228  0.08769  -2.1e-05  1.015809  0.0
H  H47  1  0.05110049  0.55074041  0.13928898  1  0.015135  -2.6e-05  0.093162  0.087626  -2.1e-05  1.016552  0.0
H  H48  1  0.03574270  0.32500039  0.94507533  1  0.013718  -3.7e-05  0.096964  0.09593  -3.8e-05  1.009479  0.0
H  H49  1  0.96384694  0.67501334  0.05509260  1  0.015305  -3.5e-05  0.096909  0.095605  -3.7e-05  1.009704  0.0
Pd  Pd50  1  0.99546988  0.24524569  0.46576387  1  0.530409  0.011664  0.651484  0.151483  0.013071  4.163566  0.012
Pd  Pd51  1  0.00627697  0.75402145  0.53321945  1  0.540026  0.011871  0.651418  0.150428  0.013274  4.165091  0.012
C  C52  1  0.54325331  0.06846622  0.69317086  1  0.457798  -0.011035  0.050158  0.101808  -0.011466  3.94937  -0.007
C  C53  1  0.45723004  0.93208886  0.30835583  1  0.441056  -0.011229  0.048857  0.098128  -0.011636  3.949272  -0.007
C  C54  1  0.54727172  0.12687914  0.77375528  1  0.04627  0.004387  -0.070743  -0.15417  0.001252  3.897622  0.004
C  C55  1  0.45253576  0.87359939  0.22777107  1  0.064406  0.004525  -0.069464  -0.150681  0.001309  3.896221  0.004
C  C56  1  0.52377765  0.22756982  0.78135900  1  0.01484  -0.01829  0.016842  0.155884  -0.019138  4.09812  -0.012
C  C57  1  0.47596749  0.77289671  0.22026386  1  0.081589  -0.018302  0.016283  0.152842  -0.019245  4.104576  -0.012
C  C58  1  0.50163052  0.26363708  0.70562361  1  0.082787  0.007599  -0.074398  -0.154301  0.002893  3.907133  0.006
C  C59  1  0.49850652  0.73681592  0.29598517  1  0.013526  0.007545  -0.074157  -0.15157  0.002863  3.908758  0.006
C  C60  1  0.50019499  0.19962262  0.62772268  1  0.457644  -0.012208  0.048388  0.099913  -0.012799  3.936612  -0.007
C  C61  1  0.50049986  0.80089511  0.37383450  1  0.514113  -0.012183  0.047663  0.097381  -0.012773  3.936519  -0.007
C  C62  1  0.51985100  0.28832056  0.86232559  1  -0.145533  0.00253  0.000984  -0.038677  0.000345  3.974385  0.003
C  C63  1  0.47956842  0.71192543  0.13944206  1  -0.560505  0.00234  0.001477  -0.038312  0.000356  3.97596  0.003
C  C64  1  0.51188446  0.33579541  0.93486209  1  -0.047454  -0.01306  -0.029674  -0.038157  -0.013025  4.267053  -0.008
C  C65  1  0.48795372  0.66384023  0.06721337  1  0.372188  -0.013025  -0.028822  -0.035558  -0.01317  4.26468  -0.008
C  C66  1  0.79960490  0.14690882  0.45838608  1  0.849523  0.022403  -0.003249  0.064342  0.012163  3.809689  0.022
C  C67  1  0.20250953  0.85270958  0.54308255  1  0.855677  0.022726  -0.003995  0.062492  0.012332  3.810835  0.022
C  C68  1  0.19730461  0.34194698  0.47384014  1  0.814285  0.001404  -0.026116  0.001058  0.000753  3.804736  0.001
C  C69  1  0.80318596  0.65684339  0.51914245  1  0.785857  0.001483  -0.025803  0.001913  0.00078  3.803459  0.001
C  C70  1  0.80746467  0.34813637  0.48031637  1  0.80596  0.001469  -0.024306  0.010787  0.000793  3.781788  0.001
C  C71  1  0.19243784  0.65089086  0.51083065  1  0.8107  0.001545  -0.023513  0.014243  0.000821  3.778963  0.001
C  C72  1  0.17628008  0.14093936  0.45483136  1  0.811436  0.023373  -0.005153  0.059831  0.012438  3.817783  0.022
C  C73  1  0.82564151  0.85848889  0.54738723  1  0.849905  0.022875  -0.005525  0.059281  0.012413  3.812334  0.022
C  C74  1  0.64828023  0.49646352  0.32301185  1  0.419632  -2.9e-05  0.050692  0.078169  -3.4e-05  3.907352  0.0
C  C75  1  0.35261960  0.50286281  0.67938556  1  0.523797  -3.4e-05  0.054721  0.086374  -4.3e-05  3.96146  0.0
C  C76  1  0.65312432  0.47953902  0.23548669  1  0.037344  -0.000627  -0.071626  -0.161225  -0.000688  3.923101  -0.001
C  C77  1  0.34700296  0.51983800  0.76716828  1  -0.02154  -0.000666  -0.070542  -0.16283  -0.000725  3.91442  -0.001
C  C78  1  0.49381986  0.44338701  0.18136862  1  0.082807  2e-06  0.018177  0.16247  -0.000326  4.118548  0.0
C  C79  1  0.50669408  0.55642945  0.82074592  1  0.119209  6.9e-05  0.021922  0.170117  -0.000301  4.106128  0.0
C  C80  1  0.33273257  0.43070132  0.22066888  1  -0.013581  -0.000819  -0.072063  -0.165211  -0.000876  3.928661  -0.001
C  C81  1  0.66738152  0.57086705  0.78184316  1  0.036028  -0.000845  -0.073686  -0.170807  -0.000909  3.917152  -0.001
C  C82  1  0.33778664  0.45076869  0.30867604  1  0.464976  1.6e-05  0.050636  0.078394  -5e-06  3.927281  0.0
C  C83  1  0.66066692  0.55138783  0.69352610  1  0.463553  3.7e-05  0.054161  0.086015  8e-06  3.981366  0.0
C  C84  1  0.49725615  0.41557237  0.09258081  1  0.162392  -0.011038  -0.018056  -0.082813  -0.011304  4.007233  -0.007
C  C85  1  0.50364691  0.58366168  0.90974725  1  0.040904  -0.011267  -0.01554  -0.079238  -0.011439  3.999806  -0.007
C  C86  1  0.50300639  0.38112123  0.01638109  1  -0.313888  0.001859  -0.021078  -0.007273  0.000221  4.274241  0.002
C  C87  1  0.49728871  0.61819669  0.98584014  1  -0.263913  0.001932  -0.021134  -0.008962  0.00023  4.276573  0.002
C  C88  1  0.45844060  0.17787502  0.25326339  1  0.046812  0.000128  -0.089019  -0.13006  5.7e-05  3.955236  0.0
C  C89  1  0.54150986  0.82211288  0.74681907  1  0.046241  0.000135  -0.089108  -0.130097  6e-05  3.957303  0.0
C  C90  1  0.30230335  0.12657995  0.21285094  1  -0.136659  5.7e-05  -0.094532  -0.084559  -1e-05  4.021081  0.0
C  C91  1  0.69756875  0.87345178  0.78727622  1  -0.136941  6.3e-05  -0.094593  -0.084905  -8e-06  4.020658  0.0
C  C92  1  0.28549399  0.09216964  0.12323633  1  -0.077356  3.9e-05  -0.097486  -0.08833  1.6e-05  4.036662  0.0
C  C93  1  0.71436807  0.90781552  0.87689352  1  -0.07645  4.2e-05  -0.097276  -0.088473  1.7e-05  4.036554  0.0
C  C94  1  0.42392219  0.11050304  0.07514702  1  -0.025296  1.6e-05  -0.095228  -0.148223  8e-06  3.998125  0.0
C  C95  1  0.57591045  0.88940279  0.92492450  1  -0.025149  1.7e-05  -0.09585  -0.148238  8e-06  3.997795  0.0
C  C96  1  0.60482076  0.19643357  0.20575036  1  -0.040634  -2.1e-05  -0.009251  0.073703  -2e-05  3.979393  0.0
C  C97  1  0.39513896  0.80340248  0.79425810  1  -0.038289  -2e-05  -0.009321  0.073366  -2e-05  3.979511  0.0
C  C98  1  0.76994708  0.24585347  0.24572238  1  0.001603  -7.2e-05  -0.096772  -0.130819  -9.4e-05  3.999383  0.0
C  C99  1  0.23011682  0.75389172  0.75422311  1  0.003814  -6.7e-05  -0.095716  -0.129993  -8.8e-05  3.998256  0.0
C  C100  1  0.91129950  0.26149020  0.19838762  1  -0.029709  -1e-06  -0.101269  -0.093937  -1.1e-05  4.046893  0.0
C  C101  1  0.08871279  0.73831522  0.80156633  1  -0.02123  2e-06  -0.101063  -0.092748  -8e-06  4.045825  0.0
C  C102  1  0.89246630  0.23019231  0.10857665  1  -0.120242  -2e-06  -0.099401  -0.094586  -7e-06  4.048684  0.0
C  C103  1  0.10742821  0.76967775  0.89137946  1  -0.12001  -1e-06  -0.09914  -0.094594  -6e-06  4.048354  0.0
C  C104  1  0.73361975  0.18189388  0.06757169  1  -0.001899  -3e-06  -0.092625  -0.137781  1e-06  3.991833  0.0
C  C105  1  0.26624385  0.81795892  0.93243213  1  0.000192  -0.0  -0.092684  -0.137542  3e-06  3.991527  0.0
C  C106  1  0.58687140  0.16283723  0.11468956  1  -0.047635  -2e-06  -0.009249  0.071658  1e-06  3.996208  0.0
C  C107  1  0.41302605  0.83699577  0.88532940  1  -0.049518  0.0  -0.009161  0.071687  2e-06  3.995745  0.0
C  C108  1  0.04806741  0.20820039  0.83468625  1  0.038751  -2.2e-05  -0.010107  0.07099  -4.9e-05  4.001422  0.0
C  C109  1  0.95157248  0.79186526  0.16545617  1  -0.004568  -2.3e-05  -0.010133  0.071502  -4.9e-05  4.000035  0.0
C  C110  1  0.09818584  0.13496458  0.88108708  1  -0.072598  4.8e-05  -0.099115  -0.150273  3.6e-05  3.99918  0.0
C  C111  1  0.90157466  0.86511211  0.11904690  1  -0.069638  4.5e-05  -0.09919  -0.150882  3.5e-05  3.999899  0.0
C  C112  1  0.12473829  0.04099054  0.83912607  1  -0.123028  1e-06  -0.098152  -0.087454  8e-06  4.029428  0.0
C  C113  1  0.87503319  0.95908481  0.16099818  1  -0.124475  1e-06  -0.09841  -0.087496  9e-06  4.031019  0.0
C  C114  1  0.10187383  0.01588436  0.74882856  1  -0.043892  -0.000129  -0.096035  -0.083166  -0.000199  4.017896  0.0
C  C115  1  0.89785180  0.98418441  0.25129689  1  -0.044601  -0.000138  -0.095921  -0.082737  -0.000205  4.020487  0.0
C  C116  1  0.05373675  0.08520600  0.70176049  1  -0.108166  -0.000109  -0.086521  -0.116108  -0.000292  3.940076  0.0
C  C117  1  0.94596147  0.91486852  0.29837111  1  -0.107255  -0.000111  -0.086046  -0.116472  -0.000291  3.941245  0.0
C  C118  1  0.02667023  0.18268149  0.74303731  1  0.001804  -7.1e-05  -0.006688  0.073749  -0.000117  3.980454  0.0
C  C119  1  0.97293673  0.81739324  0.25707184  1  0.002027  -6.9e-05  -0.007582  0.073292  -0.000115  3.98044  0.0
C  C120  1  0.97939506  0.25605396  0.69656918  1  -0.111984  -9.3e-05  -0.095352  -0.120849  -0.000204  3.990892  0.0
C  C121  1  0.02015334  0.74404241  0.30355337  1  -0.113358  -9.6e-05  -0.095471  -0.120537  -0.000203  3.989478  0.0
C  C122  1  0.95280572  0.35008105  0.73800745  1  -0.034272  -1e-06  -0.103902  -0.09896  -1.4e-05  4.053347  0.0
C  C123  1  0.04658269  0.64998187  0.26217678  1  -0.034599  4e-06  -0.104347  -0.099223  -1e-05  4.055157  0.0
C  C124  1  0.97209244  0.37504077  0.82829739  1  0.055556  -0.000151  -0.103011  -0.099855  -0.000163  4.066969  0.0
C  C125  1  0.02722641  0.62497260  0.17189519  1  0.058954  -0.000159  -0.102979  -0.10052  -0.000173  4.069835  0.0
C  C126  1  0.01959613  0.30565835  0.87547242  1  -0.031111  -0.000158  -0.093076  -0.132405  -0.0002  4.00092  0.0
C  C127  1  0.97989596  0.69436900  0.12471014  1  0.013925  -0.000146  -0.092901  -0.131619  -0.000189  4.000197  0.0
N  N128  1  0.51892565  0.10312584  0.62085180  1  -1.21187  0.05741  -0.324367  -0.238071  0.026719  3.549236  0.046
N  N129  1  0.48210640  0.89739699  0.38064833  1  -1.220664  0.05751  -0.323344  -0.235495  0.026738  3.547542  0.046
N  N130  1  0.68625095  0.08749248  0.45712479  1  -1.353111  0.054648  -0.365339  -0.35051  0.024866  3.375146  0.028
N  N131  1  0.31577518  0.91231273  0.54480229  1  -1.358642  0.054662  -0.364877  -0.34897  0.024836  3.373637  0.028
N  N132  1  0.31633469  0.39935243  0.47800933  1  -1.323928  0.000321  -0.388592  -0.29126  2.2e-05  3.635104  0.0
N  N133  1  0.68240171  0.59904970  0.50681391  1  -1.29985  0.00039  -0.389236  -0.292272  6.3e-05  3.633124  0.0
N  N134  1  0.69052162  0.40567601  0.48600351  1  -1.303259  0.000173  -0.383939  -0.283338  -7e-05  3.60177  0.0
N  N135  1  0.30732329  0.59296630  0.49713561  1  -1.317647  0.000213  -0.382538  -0.286654  -4.6e-05  3.589211  0.0
N  N136  1  0.49356250  0.48189340  0.36033906  1  -1.157235  -0.000354  -0.310494  -0.136538  -0.000371  3.556718  0.0
N  N137  1  0.50614142  0.51877299  0.64344633  1  -1.219454  -0.00043  -0.276502  -0.176438  -0.00045  3.406723  0.0
N  N138  1  0.28428264  0.07924070  0.45449039  1  -1.320896  0.054447  -0.36524  -0.351797  0.024953  3.371388  0.028
N  N139  1  0.71740790  0.92010678  0.54772769  1  -1.364128  0.054396  -0.364093  -0.351425  0.024716  3.364745  0.028
