# generated using pymatgen
data_CdH17C23(NO3)2
_symmetry_space_group_name_H-M   'P 1'
_cell_length_a   7.26650430
_cell_length_b   10.48845094
_cell_length_c   14.39286247
_cell_angle_alpha   84.78799383
_cell_angle_beta   76.47714917
_cell_angle_gamma   77.32274706
_symmetry_Int_Tables_number   1
_chemical_formula_structural   CdH17C23(NO3)2
_chemical_formula_sum   'Cd2 H34 C46 N4 O12'
_cell_volume   1039.62831714
_cell_formula_units_Z   2
loop_
 _symmetry_equiv_pos_site_id
 _symmetry_equiv_pos_as_xyz
  1  'x, y, z'
loop_
 _atom_site_type_symbol
 _atom_site_label
 _atom_site_symmetry_multiplicity
 _atom_site_fract_x
 _atom_site_fract_y
 _atom_site_fract_z
 _atom_site_occupancy
 _atom_site_hle17_bader_spin_density
 _atom_site_hle17_ddec_charge
 _atom_site_hle17_ddec_spin_density
 _atom_site_hle17_ddec_sum_bond_order
 _atom_site_hle17_magmom
 _atom_site_hse06_10hf_bader_spin_density
 _atom_site_hse06_10hf_ddec_charge
 _atom_site_hse06_10hf_ddec_spin_density
 _atom_site_hse06_10hf_ddec_sum_bond_order
 _atom_site_hse06_10hf_magmom
 _atom_site_hse06_bader_spin_density
 _atom_site_hse06_ddec_charge
 _atom_site_hse06_ddec_spin_density
 _atom_site_hse06_ddec_sum_bond_order
 _atom_site_hse06_magmom
 _atom_site_pbe_bader_spin_density
 _atom_site_pbe_cm5_charge
 _atom_site_pbe_ddec_charge
 _atom_site_pbe_ddec_spin_density
 _atom_site_pbe_ddec_sum_bond_order
 _atom_site_pbe_magmom
Cd  Cd0  1  0.11591850  0.05203491  0.05897782  1  0  1.125677  0  1.763623  0  0  0.947678  0  2.226399  0  0  1.006927  0  2.16463  0  0  0.767055  0.905767  0  2.268457  0
Cd  Cd1  1  0.88407792  0.94796662  0.94102509  1  0  1.125695  0  1.763587  0  0  0.947649  0  2.226358  0  0  1.006903  0  2.16459  0  0  0.767051  0.905735  0  2.268415  0
H  H2  1  0.45840686  0.16525045  0.08905925  1  0  0.08173  0  0.971924  0  0  0.091037  0  1.036641  0  0  0.092536  0  1.035713  0  0  0.117146  0.089844  0  1.037397  0
H  H3  1  0.54159243  0.83475104  0.91094055  1  0  0.081691  0  0.971912  0  0  0.090997  0  1.036656  0  0  0.092496  0  1.035729  0  0  0.117123  0.089806  0  1.037411  0
H  H4  1  0.41630265  0.30121746  0.95189647  1  0  0.113006  0  0.972197  0  0  0.120011  0  1.03785  0  0  0.12413  0  1.03451  0  0  0.105163  0.116864  0  1.040617  0
H  H5  1  0.58371030  0.69879005  0.04811451  1  0  0.113157  0  0.971943  0  0  0.12001  0  1.037771  0  0  0.12412  0  1.03445  0  0  0.105156  0.116865  0  1.040536  0
H  H6  1  0.81020891  0.48186407  0.05025093  1  0  0.102088  0  0.950595  0  0  0.11211  0  1.010848  0  0  0.115604  0  1.008594  0  0  0.105144  0.10952  0  1.012669  0
H  H7  1  0.18980632  0.51814535  0.94975617  1  0  0.102144  0  0.950282  0  0  0.112079  0  1.010652  0  0  0.115604  0  1.008361  0  0  0.105125  0.109489  0  1.012472  0
H  H8  1  0.60573335  0.14728033  0.39741943  1  0  0.071856  0  0.912043  0  0  0.085434  0  0.977122  0  0  0.08591  0  0.975928  0  0  0.109449  0.085115  0  0.977951  0
H  H9  1  0.39426140  0.85272214  0.60258013  1  0  0.071841  0  0.912019  0  0  0.085409  0  0.977105  0  0  0.08589  0  0.975906  0  0  0.109434  0.085089  0  0.977934  0
H  H10  1  0.45454113  0.30420760  0.40776285  1  0  0.076373  0  0.927146  0  0  0.085418  0  0.997181  0  0  0.087013  0  0.99464  0  0  0.108494  0.084166  0  0.999206  0
H  H11  1  0.54545448  0.69579195  0.59223821  1  0  0.076358  0  0.92712  0  0  0.085384  0  0.997165  0  0  0.086982  0  0.994623  0  0  0.108479  0.084132  0  0.99919  0
H  H12  1  0.18880784  0.08592522  0.66780758  1  0  0.115142  0  0.955596  0  0  0.12367  0  1.021795  0  0  0.128286  0  1.017507  0  0  0.103508  0.120341  0  1.025042  0
H  H13  1  0.81118580  0.91407627  0.33219148  1  0  0.115203  0  0.955526  0  0  0.12374  0  1.021715  0  0  0.128356  0  1.017427  0  0  0.103532  0.120414  0  1.02496  0
H  H14  1  0.56196130  0.21428134  0.81585134  1  0  0.122453  0  0.989513  0  0  0.125569  0  1.067561  0  0  0.129666  0  1.06448  0  0  0.103034  0.122565  0  1.069937  0
H  H15  1  0.43802093  0.78572507  0.18415078  1  0  0.122422  0  0.989557  0  0  0.125535  0  1.067582  0  0  0.129629  0  1.064497  0  0  0.103041  0.122531  0  1.069959  0
H  H16  1  0.59416738  0.22550541  0.21903334  1  0  0.118438  0  0.938941  0  0  0.130675  0  0.994756  0  0  0.133303  0  0.994902  0  0  0.113305  0.128755  0  0.994839  0
H  H17  1  0.40582994  0.77449317  0.78096828  1  0  0.118424  0  0.938953  0  0  0.130657  0  0.99477  0  0  0.133285  0  0.994915  0  0  0.113312  0.128734  0  0.994853  0
H  H18  1  0.65068525  0.26963765  0.50841880  1  0  0.125831  0  0.983836  0  0  0.13144  0  1.055971  0  0  0.135556  0  1.052915  0  0  0.107469  0.128527  0  1.058213  0
H  H19  1  0.34931748  0.73035702  0.49158248  1  0  0.125809  0  0.983805  0  0  0.131393  0  1.055963  0  0  0.135507  0  1.05291  0  0  0.107453  0.128477  0  1.058202  0
H  H20  1  0.04978841  0.38693456  0.55781909  1  0  0.111408  0  0.958328  0  0  0.116775  0  1.024952  0  0  0.120844  0  1.022934  0  0  0.105171  0.113889  0  1.026456  0
H  H21  1  0.95022685  0.61305615  0.44217894  1  0  0.111382  0  0.958309  0  0  0.116737  0  1.024951  0  0  0.120805  0  1.022931  0  0  0.105184  0.113851  0  1.026456  0
H  H22  1  0.11640372  0.10703678  0.42249050  1  0  0.120454  0  0.93477  0  0  0.129142  0  0.992451  0  0  0.133427  0  0.990103  0  0  0.1129  0.126034  0  0.994346  0
H  H23  1  0.88359474  0.89296275  0.57750884  1  0  0.120496  0  0.934749  0  0  0.129182  0  0.992428  0  0  0.133466  0  0.990082  0  0  0.112922  0.126072  0  0.994323  0
H  H24  1  0.99605668  0.05593973  0.28250698  1  0  0.078806  0  0.951794  0  0  0.088936  0  1.014544  0  0  0.09165  0  1.011275  0  0  0.11561  0.086863  0  1.016999  0
H  H25  1  0.00393978  0.94406176  0.71749245  1  0  0.078916  0  0.951769  0  0  0.089033  0  1.014532  0  0  0.09175  0  1.011257  0  0  0.115628  0.086957  0  1.016992  0
H  H26  1  0.29200337  0.52894819  0.51923299  1  0  0.06506  0  0.940269  0  0  0.073048  0  1.005829  0  0  0.075762  0  1.003347  0  0  0.105571  0.071053  0  1.007681  0
H  H27  1  0.70800133  0.47104940  0.48076715  1  0  0.065127  0  0.940284  0  0  0.073069  0  1.005899  0  0  0.075782  0  1.003417  0  0  0.105574  0.071074  0  1.007751  0
H  H28  1  0.15280188  0.65185527  0.79770186  1  0  0.068635  0  0.962033  0  0  0.074402  0  1.03268  0  0  0.077306  0  1.029769  0  0  0.103014  0.072292  0  1.034745  0
H  H29  1  0.84718614  0.34814133  0.20229821  1  0  0.068594  0  0.962025  0  0  0.07446  0  1.032582  0  0  0.077366  0  1.029668  0  0  0.10304  0.072344  0  1.034658  0
H  H30  1  0.87191781  0.26359584  0.77571741  1  0  0.079133  0  0.912791  0  0  0.094079  0  0.972994  0  0  0.093961  0  0.973133  0  0  0.108279  0.094112  0  0.972956  0
H  H31  1  0.12808582  0.73639588  0.22428329  1  0  0.079134  0  0.912674  0  0  0.094084  0  0.972896  0  0  0.093966  0  0.973038  0  0  0.108251  0.094112  0  0.972857  0
H  H32  1  0.67971041  0.40328197  0.78167860  1  0  0.067363  0  0.924774  0  0  0.082307  0  0.985879  0  0  0.08218  0  0.986308  0  0  0.106418  0.082512  0  0.985405  0
H  H33  1  0.32029660  0.59671266  0.21832010  1  0  0.067376  0  0.924889  0  0  0.082403  0  0.985902  0  0  0.082277  0  0.986339  0  0  0.106436  0.082602  0  0.985424  0
H  H34  1  0.90585958  0.51508337  0.84729490  1  0  0.099468  0  0.964839  0  0  0.110859  0  1.025125  0  0  0.112984  0  1.026226  0  0  0.100343  0.109299  0  1.024517  0
H  H35  1  0.09413105  0.48490930  0.15270376  1  0  0.099481  0  0.964891  0  0  0.11087  0  1.02517  0  0  0.112994  0  1.026275  0  0  0.100323  0.10932  0  1.024545  0
C  C36  1  0.38517956  0.15687408  0.16381532  1  0  0.134402  0  3.710949  0  0  0.100836  0  3.96393  0  0  0.108173  0  3.984754  0  0  0.04532  0.096008  0  3.949911  0
C  C37  1  0.61481720  0.84312642  0.83618345  1  0  0.134263  0  3.711181  0  0  0.100665  0  3.964173  0  0  0.108  0  3.985003  0  0  0.045226  0.095838  0  3.950147  0
C  C38  1  0.62718617  0.37933816  0.00096267  1  0  -0.065179  0  3.764232  0  0  -0.042997  0  3.998744  0  0  -0.050169  0  4.021273  0  0  -0.018281  -0.038309  0  3.983485  0
C  C39  1  0.37283306  0.62066734  0.99904425  1  0  -0.065284  0  3.764355  0  0  -0.043058  0  3.998786  0  0  -0.050234  0  4.021328  0  0  -0.018349  -0.038369  0  3.983526  0
C  C40  1  0.45249530  0.38863911  0.97252843  1  0  -0.086074  0  3.736567  0  0  -0.109811  0  3.988379  0  0  -0.11046  0  4.007156  0  0  -0.086422  -0.109128  0  3.975703  0
C  C41  1  0.54752252  0.61137123  0.02747413  1  0  -0.086078  0  3.73619  0  0  -0.109722  0  3.988111  0  0  -0.110371  0  4.00688  0  0  -0.086367  -0.109039  0  3.975435  0
C  C42  1  0.76349026  0.24965158  0.00233374  1  0  0.649565  0  3.92354  0  0  0.59691  0  4.217854  0  0  0.6327  0  4.210355  0  0  0.207732  0.572669  0  4.222066  0
C  C43  1  0.23652469  0.75035398  0.99767715  1  0  0.649814  0  3.922968  0  0  0.59715  0  4.217309  0  0  0.632942  0  4.209814  0  0  0.207888  0.572908  0  4.221514  0
C  C44  1  0.36567300  0.14561072  0.75034336  1  0  -0.016246  0  3.794353  0  0  0.011633  0  4.025206  0  0  0.007411  0  4.048014  0  0  -0.020071  0.014471  0  4.009735  0
C  C45  1  0.63431867  0.85438784  0.24965684  1  0  -0.016231  0  3.794355  0  0  0.0117  0  4.02511  0  0  0.007455  0  4.047958  0  0  -0.019995  0.014537  0  4.009647  0
C  C46  1  0.67392918  0.49094946  0.02842817  1  0  -0.075476  0  3.742855  0  0  -0.097635  0  3.990995  0  0  -0.097856  0  4.009701  0  0  -0.085226  -0.09739  0  3.978383  0
C  C47  1  0.32609234  0.50905796  0.97157557  1  0  -0.07542  0  3.74274  0  0  -0.09752  0  3.990883  0  0  -0.097769  0  4.009589  0  0  -0.085184  -0.097275  0  3.978269  0
C  C48  1  0.45285380  0.19892064  0.40986881  1  0  0.044546  0  3.658505  0  0  -0.018284  0  3.920067  0  0  -0.010705  0  3.923211  0  0  -0.055604  -0.023419  0  3.917801  0
C  C49  1  0.54714264  0.80108087  0.59013201  1  0  0.044595  0  3.65853  0  0  -0.018177  0  3.92002  0  0  -0.010611  0  3.92318  0  0  -0.055518  -0.02331  0  3.917753  0
C  C50  1  0.31134362  0.13045900  0.66605934  1  0  -0.208747  0  3.73936  0  0  -0.24908  0  4.003763  0  0  -0.253339  0  4.021471  0  0  -0.111889  -0.246354  0  3.992141  0
C  C51  1  0.68864635  0.86954055  0.33394099  1  0  -0.208802  0  3.739377  0  0  -0.249181  0  4.003781  0  0  -0.253435  0  4.021498  0  0  -0.111952  -0.246457  0  3.992162  0
C  C52  1  0.61960371  0.25086404  0.66124805  1  0  0.301068  0  3.828379  0  0  0.294346  0  4.088554  0  0  0.30672  0  4.103576  0  0  0.082271  0.285846  0  4.07821  0
C  C53  1  0.38039136  0.74913260  0.33875467  1  0  0.300979  0  3.828305  0  0  0.294177  0  4.08855  0  0  0.30655  0  4.103571  0  0  0.082238  0.285676  0  4.07821  0
C  C54  1  0.95806209  0.43807340  0.70619265  1  0  0.113224  0  3.736426  0  0  0.129778  0  3.971485  0  0  0.132868  0  3.994194  0  0  0.004366  0.127914  0  3.956043  0
C  C55  1  0.04193787  0.56192121  0.29380479  1  0  0.113451  0  3.736152  0  0  0.129934  0  3.97131  0  0  0.133032  0  3.994009  0  0  0.00441  0.128063  0  3.955866  0
C  C56  1  0.41404534  0.17422545  0.57876556  1  0  0.291929  0  3.842639  0  0  0.284113  0  4.107743  0  0  0.296258  0  4.122977  0  0  0.078514  0.275741  0  4.097421  0
C  C57  1  0.58595200  0.82577312  0.42123468  1  0  0.291758  0  3.842606  0  0  0.283949  0  4.107715  0  0  0.296091  0  4.122951  0  0  0.07845  0.275578  0  4.097395  0
C  C58  1  0.52075265  0.20608931  0.74906167  1  0  -0.237943  0  3.729286  0  0  -0.274613  0  3.985757  0  0  -0.280429  0  4.006123  0  0  -0.11805  -0.270589  0  3.972093  0
C  C59  1  0.47923559  0.79391123  0.25094017  1  0  -0.237894  0  3.729413  0  0  -0.274548  0  3.985902  0  0  -0.280351  0  4.006272  0  0  -0.118086  -0.270525  0  3.97224  0
C  C60  1  0.45994978  0.18944954  0.23656992  1  0  -0.156713  0  3.690177  0  0  -0.174789  0  3.93698  0  0  -0.183696  0  3.959668  0  0  -0.078564  -0.169007  0  3.921815  0
C  C61  1  0.54004927  0.81054803  0.76342950  1  0  -0.156561  0  3.690076  0  0  -0.174611  0  3.936871  0  0  -0.183518  0  3.959562  0  0  -0.078467  -0.168827  0  3.921703  0
C  C62  1  0.56949894  0.23358675  0.57531502  1  0  -0.312595  0  3.719139  0  0  -0.345815  0  3.978928  0  0  -0.353157  0  3.995129  0  0  -0.121057  -0.34089  0  3.968043  0
C  C63  1  0.43049868  0.76641084  0.42468595  1  0  -0.312405  0  3.718896  0  0  -0.345576  0  3.978685  0  0  -0.352915  0  3.994887  0  0  -0.121019  -0.340645  0  3.967792  0
C  C64  1  0.36547234  0.17024915  0.33175938  1  0  0.131672  0  3.714829  0  0  0.146444  0  3.951684  0  0  0.151285  0  3.973416  0  0  0.018481  0.14333  0  3.937049  0
C  C65  1  0.63452755  0.82975037  0.66823910  1  0  0.131722  0  3.714792  0  0  0.146459  0  3.951674  0  0  0.151304  0  3.973408  0  0  0.018477  0.143339  0  3.937048  0
C  C66  1  0.25556630  0.09509943  0.84313825  1  0  0.656672  0  3.905456  0  0  0.604995  0  4.195471  0  0  0.640753  0  4.187836  0  0  0.207463  0.580803  0  4.199638  0
C  C67  1  0.74442382  0.90490896  0.15686490  1  0  0.656725  0  3.905347  0  0  0.605033  0  4.195369  0  0  0.640794  0  4.18774  0  0  0.207484  0.580843  0  4.199531  0
C  C68  1  0.06853096  0.44418999  0.61303112  1  0  -0.167627  0  3.724257  0  0  -0.189356  0  3.972854  0  0  -0.196621  0  3.994638  0  0  -0.092729  -0.18463  0  3.958269  0
C  C69  1  0.93147806  0.55580268  0.38696679  1  0  -0.167652  0  3.724234  0  0  -0.189346  0  3.972827  0  0  -0.196607  0  3.994608  0  0  -0.092725  -0.184623  0  3.958246  0
C  C70  1  0.19479100  0.12270966  0.34955044  1  0  -0.153332  0  3.695548  0  0  -0.175975  0  3.947167  0  0  -0.183767  0  3.967831  0  0  -0.081133  -0.171038  0  3.933376  0
C  C71  1  0.80520857  0.87729085  0.65044939  1  0  -0.153412  0  3.695593  0  0  -0.17605  0  3.947223  0  0  -0.183842  0  3.967887  0  0  -0.081165  -0.17111  0  3.93343  0
C  C72  1  0.12786601  0.09388882  0.27259478  1  0  0.138265  0  3.712851  0  0  0.106067  0  3.968525  0  0  0.113897  0  3.987765  0  0  0.049956  0.101081  0  3.955204  0
C  C73  1  0.87213073  0.90611171  0.72740607  1  0  0.138135  0  3.713036  0  0  0.10593  0  3.968676  0  0  0.113759  0  3.987918  0  0  0.049936  0.100944  0  3.955352  0
C  C74  1  0.20452895  0.52390044  0.59197646  1  0  0.118323  0  3.761261  0  0  0.095973  0  4.022862  0  0  0.10142  0  4.040988  0  0  0.035822  0.092487  0  4.010494  0
C  C75  1  0.79547409  0.47609323  0.40802416  1  0  0.118261  0  3.761311  0  0  0.095945  0  4.022886  0  0  0.101392  0  4.041014  0  0  0.035821  0.092459  0  4.010519  0
C  C76  1  0.12844997  0.59144730  0.74547131  1  0  0.110065  0  3.772318  0  0  0.086462  0  4.033811  0  0  0.091667  0  4.052672  0  0  0.029706  0.083302  0  4.020735  0
C  C77  1  0.87154085  0.40855418  0.25452739  1  0  0.110054  0  3.77217  0  0  0.086364  0  4.033696  0  0  0.091568  0  4.052557  0  0  0.029602  0.083203  0  4.020623  0
C  C78  1  0.81288909  0.35141712  0.73492927  1  0  0.0529  0  3.62659  0  0  -0.007998  0  3.881805  0  0  0.000123  0  3.885506  0  0  -0.054883  -0.013614  0  3.879184  0
C  C79  1  0.18711681  0.64857653  0.26506894  1  0  0.052737  0  3.626491  0  0  -0.008256  0  3.881783  0  0  -0.000149  0  3.885505  0  0  -0.054915  -0.013845  0  3.879121  0
C  C80  1  0.98942027  0.51446786  0.77361995  1  0  -0.174762  0  3.722141  0  0  -0.190069  0  3.95963  0  0  -0.19851  0  3.984108  0  0  -0.092247  -0.18454  0  3.943036  0
C  C81  1  0.01058028  0.48552480  0.22637756  1  0  -0.174765  0  3.722113  0  0  -0.190051  0  3.959656  0  0  -0.198491  0  3.984127  0  0  -0.092178  -0.184525  0  3.943051  0
N  N82  1  0.22197604  0.10938423  0.18132292  1  0  -0.340617  0  3.268243  0  0  -0.258861  0  3.538729  0  0  -0.281587  0  3.557968  0  0  -0.341746  -0.243445  0  3.525291  0
N  N83  1  0.77801699  0.89061923  0.81867746  1  0  -0.340569  0  3.268359  0  0  -0.258748  0  3.53878  0  0  -0.281472  0  3.558019  0  0  -0.341719  -0.243332  0  3.525339  0
N  N84  1  0.23647738  0.59723673  0.65600123  1  0  -0.344076  0  3.090393  0  0  -0.308317  0  3.362233  0  0  -0.32017  0  3.37794  0  0  -0.335406  -0.300185  0  3.351316  0
N  N85  1  0.76352135  0.40276185  0.34400024  1  0  -0.344105  0  3.090326  0  0  -0.308349  0  3.362205  0  0  -0.3202  0  3.377913  0  0  -0.33542  -0.300214  0  3.351287  0
O  O86  1  0.12583553  0.03353759  0.83772172  1  0  -0.674056  0  2.063642  0  0  -0.610296  0  2.326891  0  0  -0.640168  0  2.315096  0  0  -0.334081  -0.58948  0  2.334085  0
O  O87  1  0.87416375  0.96646392  0.16227877  1  0  -0.674081  0  2.063614  0  0  -0.610327  0  2.326856  0  0  -0.640192  0  2.315045  0  0  -0.334088  -0.589512  0  2.334052  0
O  O88  1  0.73114675  0.15916251  0.95881463  1  0  -0.639522  0  2.062235  0  0  -0.573459  0  2.326114  0  0  -0.602848  0  2.313068  0  0  -0.322282  -0.552816  0  2.334279  0
O  O89  1  0.26886428  0.84084203  0.04119331  1  0  -0.639429  0  2.062201  0  0  -0.573408  0  2.326152  0  0  -0.602768  0  2.313047  0  0  -0.322208  -0.552781  0  2.334349  0
O  O90  1  0.30043815  0.11645905  0.92008829  1  0  -0.625277  0  2.002831  0  0  -0.553387  0  2.247956  0  0  -0.583275  0  2.2365  0  0  -0.322101  -0.532438  0  2.255142  0
O  O91  1  0.69955340  0.88354932  0.07991400  1  0  -0.625303  0  2.002745  0  0  -0.553353  0  2.247765  0  0  -0.58324  0  2.236311  0  0  -0.32211  -0.532403  0  2.254945  0
O  O92  1  0.34826921  0.15731809  0.49984455  1  0  -0.282764  0  2.327589  0  0  -0.212415  0  2.560221  0  0  -0.229782  0  2.561661  0  0  -0.178239  -0.199958  0  2.558595  0
O  O93  1  0.65173042  0.84267753  0.50015563  1  0  -0.282709  0  2.32759  0  0  -0.212374  0  2.560211  0  0  -0.229734  0  2.561653  0  0  -0.178241  -0.199918  0  2.558586  0
O  O94  1  0.89724797  0.24057705  0.04746672  1  0  -0.636821  0  2.028181  0  0  -0.572066  0  2.280394  0  0  -0.601508  0  2.268321  0  0  -0.325548  -0.551395  0  2.287723  0
O  O95  1  0.10276505  0.75943038  0.95253800  1  0  -0.637108  0  2.027631  0  0  -0.572331  0  2.279857  0  0  -0.601775  0  2.267776  0  0  -0.325761  -0.551659  0  2.287187  0
O  O96  1  0.76996126  0.31405980  0.65037014  1  0  -0.287824  0  2.323833  0  0  -0.214995  0  2.554329  0  0  -0.232364  0  2.554855  0  0  -0.18116  -0.202611  0  2.553549  0
O  O97  1  0.23003471  0.68593388  0.34963061  1  0  -0.287837  0  2.323777  0  0  -0.214936  0  2.554274  0  0  -0.2323  0  2.554806  0  0  -0.181111  -0.202558  0  2.553487  0
