# generated using pymatgen
data_ZnH15C14N2O5
_symmetry_space_group_name_H-M   'P 1'
_cell_length_a   8.30313704
_cell_length_b   10.74890818
_cell_length_c   16.31850000
_cell_angle_alpha   90.00000000
_cell_angle_beta   90.00000000
_cell_angle_gamma   90.08681918
_symmetry_Int_Tables_number   1
_chemical_formula_structural   ZnH15C14N2O5
_chemical_formula_sum   'Zn4 H60 C56 N8 O20'
_cell_volume   1456.41886604
_cell_formula_units_Z   4
loop_
 _symmetry_equiv_pos_site_id
 _symmetry_equiv_pos_as_xyz
  1  'x, y, z'
loop_
 _atom_site_type_symbol
 _atom_site_label
 _atom_site_symmetry_multiplicity
 _atom_site_fract_x
 _atom_site_fract_y
 _atom_site_fract_z
 _atom_site_occupancy
 _atom_site_hle17_bader_spin_density
 _atom_site_hle17_ddec_charge
 _atom_site_hle17_ddec_spin_density
 _atom_site_hle17_ddec_sum_bond_order
 _atom_site_hle17_magmom
 _atom_site_hse06_10hf_bader_spin_density
 _atom_site_hse06_10hf_ddec_charge
 _atom_site_hse06_10hf_ddec_spin_density
 _atom_site_hse06_10hf_ddec_sum_bond_order
 _atom_site_hse06_10hf_magmom
 _atom_site_hse06_bader_spin_density
 _atom_site_hse06_ddec_charge
 _atom_site_hse06_ddec_spin_density
 _atom_site_hse06_ddec_sum_bond_order
 _atom_site_hse06_magmom
 _atom_site_pbe_bader_charge
 _atom_site_pbe_bader_spin_density
 _atom_site_pbe_cm5_charge
 _atom_site_pbe_ddec_charge
 _atom_site_pbe_ddec_spin_density
 _atom_site_pbe_ddec_sum_bond_order
 _atom_site_pbe_magmom
Zn  Zn0  1  0.53476069  0.39792738  0.08174710  1  0  1.121162  0  1.705615  0  0  0.943233  0  2.161903  0  0  0.992733  0  2.103757  0  1.305103  0  0.68741  0.90846  0  2.201926  0
Zn  Zn1  1  0.96523956  0.60207207  0.58174648  1  0  1.121127  0  1.705643  0  0  0.943207  0  2.161923  0  0  0.992706  0  2.103779  0  1.305087  0  0.687409  0.908435  0  2.201944  0
Zn  Zn2  1  0.46523817  0.60206928  0.91825229  1  0  1.121069  0  1.705711  0  0  0.94312  0  2.162005  0  0  0.99262  0  2.103861  0  1.305071  0  0.687345  0.908345  0  2.202028  0
Zn  Zn3  1  0.03476051  0.39792738  0.41825229  1  0  1.121108  0  1.70562  0  0  0.943161  0  2.161911  0  0  0.992661  0  2.103767  0  1.305111  0  0.687388  0.908388  0  2.201932  0
H  H4  1  0.15165525  0.29680909  0.94869443  1  0  0.148102  0  0.933606  0  0  0.165367  0  0.996907  0  0  0.1681  0  0.995533  0  0.084593  0  0.103772  0.163437  0  0.997847  0
H  H5  1  0.34834584  0.70318664  0.44869565  1  0  0.148099  0  0.93359  0  0  0.16538  0  0.996863  0  0  0.168113  0  0.995487  0  0.084579  0  0.103762  0.163451  0  0.997805  0
H  H6  1  0.84834361  0.70318851  0.05130496  1  0  0.14811  0  0.933594  0  0  0.165387  0  0.996873  0  0  0.16812  0  0.995498  0  0.084602  0  0.103775  0.163458  0  0.997816  0
H  H7  1  0.65165904  0.29681095  0.55130619  1  0  0.148104  0  0.93363  0  0  0.165349  0  0.996945  0  0  0.168081  0  0.995572  0  0.084489  0  0.103759  0.163419  0  0.997887  0
H  H8  1  0.27763077  0.21097981  0.88074823  1  0  0.128272  0  0.954545  0  0  0.146602  0  1.016937  0  0  0.148895  0  1.016198  0  0.079731  0  0.100133  0.144975  0  1.017488  0
H  H9  1  0.22236911  0.78901779  0.38074823  1  0  0.128282  0  0.95454  0  0  0.146607  0  1.016944  0  0  0.1489  0  1.016204  0  0.079872  0  0.10014  0.144981  0  1.017494  0
H  H10  1  0.72236929  0.78901779  0.11925300  1  0  0.128296  0  0.954517  0  0  0.14661  0  1.016928  0  0  0.148904  0  1.016189  0  0.07994  0  0.100148  0.144987  0  1.017476  0
H  H11  1  0.77763577  0.21097981  0.61925361  1  0  0.12824  0  0.954528  0  0  0.146572  0  1.016929  0  0  0.148865  0  1.016191  0  0.079344  0  0.100116  0.144948  0  1.017478  0
H  H12  1  0.35234401  0.34631278  0.92901737  1  0  0.149135  0  0.968273  0  0  0.167013  0  1.029065  0  0  0.169798  0  1.027395  0  0.101719  0  0.102912  0.164952  0  1.030359  0
H  H13  1  0.14765467  0.65368575  0.42901799  1  0  0.149178  0  0.968285  0  0  0.167062  0  1.029064  0  0  0.169845  0  1.027399  0  0.101676  0  0.102931  0.165001  0  1.030359  0
H  H14  1  0.64765605  0.65368575  0.07098385  1  0  0.149204  0  0.968285  0  0  0.167063  0  1.029074  0  0  0.169845  0  1.027415  0  0.10167  0  0.10293  0.165003  0  1.030369  0
H  H15  1  0.85234901  0.34631278  0.57098385  1  0  0.14913  0  0.96827  0  0  0.167014  0  1.029047  0  0  0.169796  0  1.027383  0  0.101154  0  0.102899  0.164953  0  1.030341  0
H  H16  1  0.31706928  0.82698913  0.09787542  1  0  0.114493  0  0.967938  0  0  0.12312  0  1.030338  0  0  0.12604  0  1.029333  0  0.07928  0  0.104547  0.121047  0  1.03103  0
H  H17  1  0.18292700  0.17301126  0.59787358  1  0  0.114528  0  0.967885  0  0  0.123154  0  1.030295  0  0  0.126072  0  1.029294  0  0.079204  0  0.10458  0.121128  0  1.030936  0
H  H18  1  0.68293079  0.17300940  0.90212642  1  0  0.114455  0  0.967921  0  0  0.123092  0  1.030324  0  0  0.126011  0  1.02932  0  0.079018  0  0.104548  0.121039  0  1.030993  0
H  H19  1  0.81707187  0.82698913  0.40212520  1  0  0.114509  0  0.967875  0  0  0.123118  0  1.0303  0  0  0.126042  0  1.02929  0  0.079288  0  0.104558  0.121037  0  1.031  0
H  H20  1  0.45985623  0.80977248  0.23193798  1  0  0.084773  0  0.957312  0  0  0.098128  0  1.013414  0  0  0.100338  0  1.012682  0  0.062921  0  0.097541  0.09656  0  1.013976  0
H  H21  1  0.04014487  0.19022605  0.73193737  1  0  0.084765  0  0.957332  0  0  0.098123  0  1.013427  0  0  0.100331  0  1.012695  0  0.062933  0  0.097549  0.096557  0  1.013984  0
H  H22  1  0.54014264  0.19022605  0.76806385  1  0  0.08478  0  0.957345  0  0  0.098141  0  1.013432  0  0  0.10035  0  1.012701  0  0.062949  0  0.097555  0.096576  0  1.013991  0
H  H23  1  0.95985641  0.80977341  0.26806263  1  0  0.084799  0  0.957312  0  0  0.098154  0  1.01341  0  0  0.100364  0  1.012677  0  0.062926  0  0.097549  0.096585  0  1.013973  0
H  H24  1  0.58590685  0.99492266  0.29645188  1  0  0.0846  0  0.973184  0  0  0.094658  0  1.035609  0  0  0.096704  0  1.036378  0  0.100011  0  0.093478  0.093207  0  1.03516  0
H  H25  1  0.91409339  0.00507773  0.79645127  1  0  0.084596  0  0.973167  0  0  0.094667  0  1.035582  0  0  0.096714  0  1.03635  0  0.100029  0  0.093478  0.093218  0  1.035132  0
H  H26  1  0.41408960  0.00507680  0.70355057  1  0  0.084623  0  0.973166  0  0  0.094695  0  1.035581  0  0  0.09674  0  1.036352  0  0.099843  0  0.093495  0.093246  0  1.035131  0
H  H27  1  0.08590909  0.99492266  0.20354873  1  0  0.084656  0  0.973155  0  0  0.094724  0  1.03558  0  0  0.09677  0  1.036348  0  0.100019  0  0.093505  0.093272  0  1.03513  0
H  H28  1  0.57368533  0.20247754  0.22999663  1  0  0.122901  0  0.947682  0  0  0.13521  0  1.000057  0  0  0.138306  0  0.998242  0  0.112399  0  0.109789  0.132995  0  1.001439  0
H  H29  1  0.92631372  0.79752192  0.72999663  1  0  0.122876  0  0.947697  0  0  0.135187  0  1.000063  0  0  0.138281  0  0.998251  0  0.112384  0  0.109788  0.132972  0  1.001446  0
H  H30  1  0.42631233  0.79752285  0.77000460  1  0  0.122831  0  0.947711  0  0  0.135143  0  1.000092  0  0  0.138239  0  0.998276  0  0.112388  0  0.109781  0.132927  0  1.001475  0
H  H31  1  0.07368876  0.20247754  0.27000460  1  0  0.12286  0  0.947702  0  0  0.135169  0  1.00008  0  0  0.138266  0  0.998264  0  0.112375  0  0.1098  0.132954  0  1.001463  0
H  H32  1  0.29366733  0.90130467  0.94801912  1  0  0.083676  0  0.952399  0  0  0.096294  0  1.019269  0  0  0.096955  0  1.019484  0  0.102933  0  0.110923  0.095741  0  1.019219  0
H  H33  1  0.20633255  0.09869293  0.44802035  1  0  0.083716  0  0.952391  0  0  0.096345  0  1.019236  0  0  0.097006  0  1.019452  0  0.102972  0  0.110898  0.095791  0  1.019187  0
H  H34  1  0.70633273  0.09869293  0.05197904  1  0  0.083701  0  0.952418  0  0  0.096325  0  1.019266  0  0  0.096987  0  1.019481  0  0.102972  0  0.110892  0.095771  0  1.019217  0
H  H35  1  0.79366631  0.90130560  0.55198088  1  0  0.083725  0  0.952404  0  0  0.096357  0  1.019254  0  0  0.097017  0  1.019471  0  0.102951  0  0.110926  0.095804  0  1.019204  0
H  H36  1  0.20796385  0.03207213  0.90013053  1  0  0.073089  0  0.935868  0  0  0.092419  0  0.99455  0  0  0.092305  0  0.995915  0  0.067011  0  0.112779  0.092398  0  0.993677  0
H  H37  1  0.29203845  0.96792826  0.40013175  1  0  0.073144  0  0.935844  0  0  0.092468  0  0.994521  0  0  0.092363  0  0.995874  0  0.06704  0  0.112783  0.092447  0  0.993649  0
H  H38  1  0.79204224  0.96792919  0.09986825  1  0  0.073162  0  0.935823  0  0  0.092489  0  0.994485  0  0  0.09238  0  0.995848  0  0.067047  0  0.112795  0.092467  0  0.993613  0
H  H39  1  0.70796283  0.03207213  0.59986947  1  0  0.073134  0  0.935835  0  0  0.092454  0  0.994526  0  0  0.092354  0  0.995865  0  0.067015  0  0.112788  0.092432  0  0.993654  0
H  H40  1  0.99946396  0.88449178  0.94382143  1  0  0.081857  0  0.920211  0  0  0.104549  0  0.971141  0  0  0.105145  0  0.971902  0  0.028816  0  0.099213  0.104006  0  0.9708  0
H  H41  1  0.50053387  0.11550675  0.44382694  1  0  0.081795  0  0.920301  0  0  0.104475  0  0.971248  0  0  0.105082  0  0.971998  0  0.02883  0  0.099128  0.103932  0  0.970907  0
H  H42  1  0.00053490  0.11550768  0.05616999  1  0  0.081592  0  0.920351  0  0  0.104288  0  0.971319  0  0  0.104873  0  0.972095  0  0.028898  0  0.099034  0.103751  0  0.970975  0
H  H43  1  0.49946379  0.88449364  0.55617734  1  0  0.081792  0  0.920243  0  0  0.104457  0  0.971202  0  0  0.105054  0  0.97196  0  0.028851  0  0.099144  0.103916  0  0.970861  0
H  H44  1  0.06796150  0.88617474  0.04558814  1  0  0.076333  0  0.946944  0  0  0.093702  0  1.010555  0  0  0.09455  0  1.010604  0  0.047939  0  0.093152  0.093066  0  1.010567  0
H  H45  1  0.43203237  0.11382658  0.54559243  1  0  0.076295  0  0.946886  0  0  0.093644  0  1.010521  0  0  0.094492  0  1.010574  0  0.04779  0  0.093147  0.093007  0  1.010535  0
H  H46  1  0.93203134  0.11382471  0.95440512  1  0  0.076309  0  0.946919  0  0  0.093673  0  1.010542  0  0  0.094521  0  1.010589  0  0.047822  0  0.093144  0.093039  0  1.01056  0
H  H47  1  0.56796288  0.88617474  0.45441125  1  0  0.076297  0  0.946975  0  0  0.093662  0  1.01058  0  0  0.094508  0  1.010629  0  0.0479  0  0.09315  0.093027  0  1.010592  0
H  H48  1  0.79080432  0.59534022  0.86244569  1  0  0.119975  0  0.963612  0  0  0.125908  0  1.028838  0  0  0.130524  0  1.026334  0  0.09003  0  0.104567  0.122551  0  1.030823  0
H  H49  1  0.70919351  0.40465924  0.36244446  1  0  0.11996  0  0.963592  0  0  0.125886  0  1.028834  0  0  0.130503  0  1.026327  0  0.090157  0  0.104565  0.122529  0  1.03082  0
H  H50  1  0.20919214  0.40466203  0.13755676  1  0  0.120026  0  0.963582  0  0  0.12594  0  1.028825  0  0  0.130555  0  1.026318  0  0.090086  0  0.104609  0.122583  0  1.03081  0
H  H51  1  0.29080896  0.59534115  0.63755308  1  0  0.119977  0  0.963603  0  0  0.125903  0  1.02884  0  0  0.13052  0  1.026337  0  0.089793  0  0.104552  0.122545  0  1.030826  0
H  H52  1  0.98638846  0.35784978  0.82637191  1  0  0.116678  0  0.940323  0  0  0.127703  0  0.99838  0  0  0.131564  0  0.995483  0  0.099772  0  0.111888  0.124911  0  1.000627  0
H  H53  1  0.51361420  0.64215061  0.32637252  1  0  0.116731  0  0.940287  0  0  0.127693  0  0.998404  0  0  0.131551  0  0.995513  0  0.099682  0  0.111881  0.124902  0  1.000651  0
H  H54  1  0.01361524  0.64215712  0.17362809  1  0  0.116733  0  0.940253  0  0  0.127661  0  0.998418  0  0  0.131517  0  0.995532  0  0.099859  0  0.111873  0.124873  0  1.00066  0
H  H55  1  0.48638225  0.35784513  0.67362564  1  0  0.116754  0  0.940244  0  0  0.127692  0  0.998395  0  0  0.131549  0  0.995508  0  0.099798  0  0.111879  0.124901  0  1.000641  0
H  H56  1  0.80964085  0.31182738  0.06271961  1  0  0.408172  0  0.908201  0  0  0.377126  0  0.972574  0  0  0.38834  0  0.956438  0  0.643616  0  0.284299  0.369229  0  0.983913  0
H  H57  1  0.69036181  0.68817487  0.56271594  1  0  0.4081  0  0.908299  0  0  0.377049  0  0.972676  0  0  0.388264  0  0.956541  0  0.643579  0  0.284252  0.369153  0  0.984014  0
H  H58  1  0.19036163  0.68817394  0.93728345  1  0  0.408118  0  0.908277  0  0  0.377065  0  0.972662  0  0  0.388279  0  0.956528  0  0.643587  0  0.284255  0.369169  0  0.984  0
H  H59  1  0.30963826  0.31182645  0.43728100  1  0  0.408174  0  0.908199  0  0  0.377128  0  0.972568  0  0  0.388342  0  0.956434  0  0.643519  0  0.284305  0.369233  0  0.983906  0
H  H60  1  0.81799003  0.34156811  0.16142292  1  0  0.429222  0  0.874512  0  0  0.39571  0  0.941711  0  0  0.407435  0  0.924966  0  0.657222  0  0.284541  0.387435  0  0.953497  0
H  H61  1  0.68201022  0.65843414  0.66141986  1  0  0.42926  0  0.874458  0  0  0.395794  0  0.941611  0  0  0.40752  0  0.924863  0  0.657288  0  0.284588  0.387513  0  0.953405  0
H  H62  1  0.18200763  0.65843414  0.83857953  1  0  0.429271  0  0.874448  0  0  0.3958  0  0.941602  0  0  0.407526  0  0.924854  0  0.657276  0  0.284582  0.387521  0  0.953396  0
H  H63  1  0.31798865  0.34156718  0.33857708  1  0  0.429238  0  0.874491  0  0  0.39572  0  0.941701  0  0  0.407445  0  0.924955  0  0.657259  0  0.284555  0.387445  0  0.953486  0
C  C64  1  0.27586825  0.26473510  0.93780801  1  0  -0.4084  0  3.69129  0  0  -0.488309  0  3.929895  0  0  -0.493537  0  3.934275  0  -0.064003  0  -0.235525  -0.484489  0  3.926667  0
C  C65  1  0.22413043  0.73526343  0.43780862  1  0  -0.408442  0  3.69132  0  0  -0.488392  0  3.929966  0  0  -0.493621  0  3.934344  0  -0.064096  0  -0.235544  -0.484576  0  3.926742  0
C  C66  1  0.72412940  0.73526250  0.06219260  1  0  -0.408523  0  3.691425  0  0  -0.488392  0  3.930003  0  0  -0.493615  0  3.934367  0  -0.064214  0  -0.23554  -0.48458  0  3.926782  0
C  C67  1  0.77587445  0.26473510  0.56219260  1  0  -0.408357  0  3.69134  0  0  -0.488261  0  3.929954  0  0  -0.493489  0  3.934334  0  -0.062963  0  -0.235455  -0.484445  0  3.926728  0
C  C68  1  0.33312276  0.18934410  0.00791556  1  0  0.421415  0  3.677948  0  0  0.392192  0  3.955129  0  0  0.412295  0  3.96707  0  1.013779  0  0.23861  0.378924  0  3.946464  0
C  C69  1  0.16687712  0.81065350  0.50791556  1  0  0.421461  0  3.67792  0  0  0.392242  0  3.955081  0  0  0.412344  0  3.967024  0  1.013747  0  0.238654  0.378975  0  3.946416  0
C  C70  1  0.66687489  0.81065350  0.99208628  1  0  0.42155  0  3.67791  0  0  0.39234  0  3.955071  0  0  0.412444  0  3.967011  0  1.013731  0  0.23867  0.379072  0  3.946408  0
C  C71  1  0.83312776  0.18934410  0.49208567  1  0  0.421549  0  3.677978  0  0  0.392329  0  3.955131  0  0  0.412432  0  3.967072  0  1.013757  0  0.238642  0.379062  0  3.946466  0
C  C72  1  0.43759443  0.13240151  0.12630328  1  0  0.152979  0  3.815835  0  0  0.148665  0  4.066661  0  0  0.152737  0  4.088698  0  0.337094  0  0.085479  0.145822  0  4.051893  0
C  C73  1  0.06240426  0.86759888  0.62630328  1  0  0.153034  0  3.815741  0  0  0.148722  0  4.066555  0  0  0.152796  0  4.088591  0  0.337104  0  0.085535  0.145879  0  4.051786  0
C  C74  1  0.56240684  0.86759795  0.87369734  1  0  0.152834  0  3.816051  0  0  0.148547  0  4.066828  0  0  0.152618  0  4.08887  0  0.337069  0  0.085434  0.145704  0  4.05206  0
C  C75  1  0.93759581  0.13240151  0.37369734  1  0  0.152881  0  3.815879  0  0  0.14853  0  4.066741  0  0  0.152598  0  4.088784  0  0.3371  0  0.085471  0.145688  0  4.051973  0
C  C76  1  0.36655683  0.02588545  0.09045194  1  0  0.097292  0  3.789318  0  0  0.083856  0  4.040869  0  0  0.08788  0  4.062838  0  0.290329  0  0.088758  0.081118  0  4.026102  0
C  C77  1  0.13343945  0.97411494  0.59045010  1  0  0.097289  0  3.78929  0  0  0.083859  0  4.040802  0  0  0.087882  0  4.062769  0  0.290333  0  0.088764  0.081121  0  4.026046  0
C  C78  1  0.63344203  0.97411215  0.90954928  1  0  0.097296  0  3.789325  0  0  0.08384  0  4.040874  0  0  0.087862  0  4.062842  0  0.290303  0  0.088789  0.081102  0  4.026112  0
C  C79  1  0.86655942  0.02588545  0.40954867  1  0  0.09727  0  3.789305  0  0  0.08384  0  4.040818  0  0  0.087864  0  4.062789  0  0.290329  0  0.088722  0.081103  0  4.026049  0
C  C80  1  0.37173198  0.90814909  0.12673162  1  0  -0.15681  0  3.758867  0  0  -0.174583  0  4.015795  0  0  -0.17805  0  4.03626  0  0.004515  0  -0.101063  -0.172144  0  4.001924  0
C  C81  1  0.12826309  0.09185223  0.62672917  1  0  -0.15686  0  3.758874  0  0  -0.174657  0  4.015851  0  0  -0.178122  0  4.03631  0  0.004717  0  -0.101142  -0.172257  0  4.001956  0
C  C82  1  0.62826688  0.09184943  0.87327021  1  0  -0.156653  0  3.758814  0  0  -0.174439  0  4.015752  0  0  -0.177907  0  4.036222  0  0.004918  0  -0.101052  -0.172016  0  4.001871  0
C  C83  1  0.87173336  0.90814909  0.37326838  1  0  -0.156812  0  3.758824  0  0  -0.174566  0  4.015732  0  0  -0.178034  0  4.036191  0  0.004511  0  -0.101097  -0.172119  0  4.001866  0
C  C84  1  0.45130039  0.90000779  0.20175629  1  0  -0.077637  0  3.807866  0  0  -0.0931  0  4.063333  0  0  -0.094983  0  4.0865  0  -0.055613  0  -0.099752  -0.091722  0  4.04758  0
C  C85  1  0.04869589  0.09999353  0.70175445  1  0  -0.077637  0  3.807881  0  0  -0.093092  0  4.063347  0  0  -0.094975  0  4.086513  0  -0.055758  0  -0.099755  -0.09172  0  4.047609  0
C  C86  1  0.54869848  0.09999260  0.79824555  1  0  -0.07771  0  3.807915  0  0  -0.093169  0  4.063387  0  0  -0.095051  0  4.086551  0  -0.055592  0  -0.099785  -0.091795  0  4.047643  0
C  C87  1  0.95130177  0.90000686  0.29824494  1  0  -0.077684  0  3.807871  0  0  -0.093143  0  4.063336  0  0  -0.095026  0  4.086503  0  -0.055609  0  -0.099752  -0.091766  0  4.047582  0
C  C88  1  0.52230824  0.00533636  0.23841836  1  0  -0.089978  0  3.795333  0  0  -0.10575  0  4.052569  0  0  -0.109052  0  4.076137  0  -0.072653  0  -0.102173  -0.10352  0  4.036623  0
C  C89  1  0.97769200  0.99466402  0.73841713  1  0  -0.089988  0  3.795313  0  0  -0.105777  0  4.052537  0  0  -0.10908  0  4.076108  0  -0.07264  0  -0.102174  -0.103549  0  4.036592  0
C  C90  1  0.47769062  0.99466402  0.76158348  1  0  -0.090034  0  3.795308  0  0  -0.105827  0  4.052551  0  0  -0.109129  0  4.07612  0  -0.072585  0  -0.102182  -0.103599  0  4.036607  0
C  C91  1  0.02231047  0.00533636  0.26158225  1  0  -0.090008  0  3.795301  0  0  -0.105806  0  4.052555  0  0  -0.109107  0  4.076124  0  -0.07265  0  -0.102173  -0.103574  0  4.036608  0
C  C92  1  0.51716615  0.12226744  0.20165456  1  0  -0.109598  0  3.708713  0  0  -0.130161  0  3.958182  0  0  -0.130848  0  3.975736  0  0.008969  0  -0.085244  -0.129676  0  3.946408  0
C  C93  1  0.98283168  0.87773201  0.70165456  1  0  -0.109557  0  3.708673  0  0  -0.130109  0  3.958124  0  0  -0.130798  0  3.975682  0  0.008958  0  -0.085241  -0.129623  0  3.946349  0
C  C94  1  0.48283271  0.87773201  0.79834666  1  0  -0.109483  0  3.708787  0  0  -0.130043  0  3.958233  0  0  -0.130732  0  3.975791  0  0.008989  0  -0.085265  -0.129558  0  3.946459  0
C  C95  1  0.01716959  0.12226744  0.29834605  1  0  -0.109506  0  3.708707  0  0  -0.130055  0  3.95819  0  0  -0.130742  0  3.975746  0  0.00898  0  -0.085265  -0.12957  0  3.946415  0
C  C96  1  0.21858925  0.98335403  0.95887796  1  0  0.015768  0  3.628527  0  0  -0.046387  0  3.886065  0  0  -0.041907  0  3.897595  0  0.301668  0  -0.052941  -0.0492  0  3.8781  0
C  C97  1  0.28140944  0.01664543  0.45887980  1  0  0.015554  0  3.628758  0  0  -0.046593  0  3.88623  0  0  -0.042118  0  3.897768  0  0.301648  0  -0.052935  -0.049404  0  3.878265  0
C  C98  1  0.78141202  0.01664543  0.04111959  1  0  0.01553  0  3.628656  0  0  -0.046617  0  3.886177  0  0  -0.042143  0  3.897703  0  0.301627  0  -0.052949  -0.049424  0  3.878216  0
C  C99  1  0.71858943  0.98335403  0.54112143  1  0  0.015598  0  3.628653  0  0  -0.046602  0  3.886193  0  0  -0.042127  0  3.897727  0  0.301665  0  -0.052958  -0.049412  0  3.878229  0
C  C100  1  0.05391781  0.94470168  0.99084536  1  0  -0.134876  0  3.696687  0  0  -0.179807  0  3.965006  0  0  -0.180919  0  3.977699  0  -0.002869  0  -0.168547  -0.17885  0  3.956104  0
C  C101  1  0.44608088  0.05529870  0.49084842  1  0  -0.134618  0  3.69667  0  0  -0.179519  0  3.964938  0  0  -0.180648  0  3.97766  0  -0.036917  0  -0.168434  -0.178562  0  3.956029  0
C  C102  1  0.94607985  0.05529777  0.00914913  1  0  -0.134325  0  3.696513  0  0  -0.179248  0  3.964797  0  0  -0.180355  0  3.9775  0  -0.036985  0  -0.168311  -0.17831  0  3.955905  0
C  C103  1  0.55391798  0.94470168  0.50915341  1  0  -0.134634  0  3.696704  0  0  -0.179518  0  3.964966  0  0  -0.180627  0  3.977668  0  -0.002865  0  -0.168447  -0.178571  0  3.956065  0
C  C104  1  0.77630937  0.42934922  0.94196280  1  0  0.703362  0  3.863149  0  0  0.65631  0  4.147787  0  0  0.691801  0  4.138911  0  1.535189  0  0.214624  0.632212  0  4.152951  0
C  C105  1  0.72369088  0.57064931  0.44196342  1  0  0.703292  0  3.863313  0  0  0.656255  0  4.14793  0  0  0.691742  0  4.139062  0  1.535382  0  0.214612  0.632159  0  4.153093  0
C  C106  1  0.22368950  0.57065210  0.05803781  1  0  0.703328  0  3.86333  0  0  0.656254  0  4.147996  0  0  0.691746  0  4.139123  0  1.535625  0  0.214604  0.632156  0  4.15316  0
C  C107  1  0.27630799  0.42934922  0.55803597  1  0  0.703345  0  3.863149  0  0  0.656289  0  4.147791  0  0  0.69178  0  4.138918  0  1.535204  0  0.214628  0.632192  0  4.152956  0
C  C108  1  0.83918756  0.50218088  0.87190244  1  0  -0.211445  0  3.697754  0  0  -0.229731  0  3.954835  0  0  -0.238224  0  3.969159  0  -0.011648  0  -0.102292  -0.224286  0  3.945503  0
C  C109  1  0.66081268  0.49781857  0.37190244  1  0  -0.211333  0  3.69766  0  0  -0.229619  0  3.954726  0  0  -0.238108  0  3.969048  0  -0.011806  0  -0.102254  -0.224174  0  3.945394  0
C  C110  1  0.16081010  0.49782230  0.12809878  1  0  -0.211419  0  3.697751  0  0  -0.229678  0  3.954817  0  0  -0.238164  0  3.969134  0  -0.01189  0  -0.102293  -0.224233  0  3.945487  0
C  C111  1  0.33918738  0.50217995  0.62809633  1  0  -0.211355  0  3.697697  0  0  -0.229621  0  3.954742  0  0  -0.238114  0  3.969069  0  -0.011492  0  -0.102219  -0.224175  0  3.94541  0
C  C112  1  0.94458705  0.45345402  0.81864387  1  0  -0.125123  0  3.627458  0  0  -0.146184  0  3.881833  0  0  -0.146714  0  3.892221  0  -0.074145  0  -0.070685  -0.146217  0  3.875328  0
C  C113  1  0.55541441  0.54654730  0.31864387  1  0  -0.125261  0  3.627472  0  0  -0.146264  0  3.88189  0  0  -0.146792  0  3.892274  0  -0.073975  0  -0.070695  -0.146297  0  3.875384  0
C  C114  1  0.05541183  0.54655288  0.18135736  1  0  -0.125244  0  3.62744  0  0  -0.146225  0  3.881866  0  0  -0.14675  0  3.892242  0  -0.074245  0  -0.070692  -0.146257  0  3.875355  0
C  C115  1  0.44458686  0.45345216  0.68135307  1  0  -0.125237  0  3.627605  0  0  -0.146267  0  3.881992  0  0  -0.146794  0  3.892373  0  -0.074054  0  -0.07072  -0.146299  0  3.875481  0
C  C116  1  0.00045278  0.52429199  0.74531483  1  0  0.696932  0  3.896706  0  0  0.648897  0  4.191036  0  0  0.68327  0  4.182289  0  1.592735  0  0.213951  0.625529  0  4.196228  0
C  C117  1  0.49954712  0.47571212  0.24531483  1  0  0.697054  0  3.896414  0  0  0.648976  0  4.190811  0  0  0.683349  0  4.18206  0  1.593304  0  0.213964  0.62561  0  4.196004  0
C  C118  1  0.99954972  0.47571677  0.25468640  1  0  0.69702  0  3.896493  0  0  0.648934  0  4.190894  0  0  0.683307  0  4.182143  0  1.593256  0  0.213942  0.625566  0  4.196087  0
C  C119  1  0.50045174  0.52428641  0.75468395  1  0  0.696889  0  3.896732  0  0  0.648933  0  4.19094  0  0  0.683307  0  4.182193  0  1.593326  0  0.213948  0.625566  0  4.19613  0
N  N120  1  0.30285656  0.06505133  0.01608297  1  0  -0.172037  0  3.482741  0  0  -0.087086  0  3.704639  0  0  -0.104688  0  3.728186  0  -1.235352  0  -0.241547  -0.075429  0  3.688571  0
N  N121  1  0.19714332  0.93494626  0.51608236  1  0  -0.172039  0  3.482929  0  0  -0.087054  0  3.704777  0  0  -0.104654  0  3.728325  0  -1.23535  0  -0.241578  -0.0754  0  3.688708  0
N  N122  1  0.69714350  0.93494533  0.98391764  1  0  -0.172088  0  3.482872  0  0  -0.087122  0  3.704741  0  0  -0.104721  0  3.728287  0  -1.235339  0  -0.241603  -0.075467  0  3.688672  0
N  N123  1  0.80285795  0.06505226  0.48391764  1  0  -0.172114  0  3.48287  0  0  -0.087118  0  3.704713  0  0  -0.104721  0  3.728262  0  -1.235346  0  -0.241575  -0.075463  0  3.688645  0
N  N124  1  0.41571678  0.23290299  0.07274259  1  0  -0.513269  0  3.166277  0  0  -0.445857  0  3.465114  0  0  -0.469764  0  3.473417  0  -1.215787  0  -0.353555  -0.42965  0  3.459197  0
N  N125  1  0.08428310  0.76709646  0.57274259  1  0  -0.513291  0  3.166205  0  0  -0.44589  0  3.465045  0  0  -0.469801  0  3.47335  0  -1.215807  0  -0.353582  -0.429684  0  3.459126  0
N  N126  1  0.58428087  0.76709646  0.92725802  1  0  -0.513245  0  3.166207  0  0  -0.445846  0  3.46502  0  0  -0.469757  0  3.473327  0  -1.215801  0  -0.353546  -0.429639  0  3.459099  0
N  N127  1  0.91572058  0.23290299  0.42725863  1  0  -0.513266  0  3.166256  0  0  -0.445838  0  3.465071  0  0  -0.469746  0  3.473377  0  -1.215823  0  -0.353557  -0.429632  0  3.459153  0
O  O128  1  0.64504121  0.47125026  0.97645862  1  0  -0.698339  0  2.110799  0  0  -0.606698  0  2.386957  0  0  -0.638664  0  2.369437  0  -1.183178  0  -0.318228  -0.584529  0  2.398283  0
O  O129  1  0.85495543  0.52874919  0.47645985  1  0  -0.698326  0  2.110814  0  0  -0.606686  0  2.386939  0  0  -0.63865  0  2.36942  0  -1.183365  0  -0.318239  -0.584518  0  2.398267  0
O  O130  1  0.35495645  0.52874733  0.02354077  1  0  -0.698345  0  2.110827  0  0  -0.606676  0  2.38697  0  0  -0.638643  0  2.369451  0  -1.183335  0  -0.31822  -0.584506  0  2.398296  0
O  O131  1  0.14504224  0.47125119  0.52353893  1  0  -0.698383  0  2.110786  0  0  -0.606743  0  2.386946  0  0  -0.638701  0  2.369408  0  -1.183221  0  -0.318262  -0.584574  0  2.398271  0
O  O132  1  0.84904941  0.33298769  0.96532892  1  0  -0.615445  0  1.968851  0  0  -0.562217  0  2.186619  0  0  -0.586275  0  2.176999  0  -1.18316  0  -0.307249  -0.545541  0  2.192585  0
O  O133  1  0.65095445  0.66701177  0.46532708  1  0  -0.615399  0  1.969003  0  0  -0.562165  0  2.186746  0  0  -0.586224  0  2.177129  0  -1.183149  0  -0.307238  -0.545488  0  2.192708  0
O  O134  1  0.15095428  0.66701549  0.03467353  1  0  -0.615408  0  1.968969  0  0  -0.562175  0  2.186746  0  0  -0.586231  0  2.177123  0  -1.183216  0  -0.307234  -0.545499  0  2.192711  0
O  O135  1  0.34904561  0.33298769  0.53467047  1  0  -0.615431  0  1.968923  0  0  -0.562186  0  2.186667  0  0  -0.586244  0  2.177048  0  -1.183209  0  -0.307241  -0.545513  0  2.192639  0
O  O136  1  0.08627271  0.61974179  0.75430156  1  0  -0.612602  0  1.972987  0  0  -0.554208  0  2.187953  0  0  -0.580399  0  2.179318  0  -1.183546  0  -0.295239  -0.535729  0  2.19325  0
O  O137  1  0.41372599  0.38026324  0.25429850  1  0  -0.612661  0  1.972821  0  0  -0.55422  0  2.187793  0  0  -0.580412  0  2.179163  0  -1.184228  0  -0.295236  -0.535743  0  2.193089  0
O  O138  1  0.91372978  0.38026510  0.24570150  1  0  -0.612639  0  1.97283  0  0  -0.554214  0  2.187815  0  0  -0.580408  0  2.179188  0  -1.184111  0  -0.29522  -0.535735  0  2.19311  0
O  O139  1  0.58627769  0.61973435  0.74569783  1  0  -0.612577  0  1.9728  0  0  -0.554228  0  2.187765  0  0  -0.580417  0  2.179121  0  -1.184202  0  -0.29521  -0.535747  0  2.193062  0
O  O140  1  0.95146460  0.48202067  0.67581640  1  0  -0.64893  0  2.013496  0  0  -0.577357  0  2.271856  0  0  -0.608751  0  2.259017  0  -1.156785  0  -0.324157  -0.555173  0  2.279836  0
O  O141  1  0.54853566  0.51798437  0.17581640  1  0  -0.648958  0  2.013333  0  0  -0.577381  0  2.27171  0  0  -0.608773  0  2.258869  0  -1.156781  0  -0.324171  -0.555197  0  2.279691  0
O  O142  1  0.04853910  0.51798902  0.32418482  1  0  -0.64895  0  2.013416  0  0  -0.577323  0  2.271733  0  0  -0.608717  0  2.258899  0  -1.156837  0  -0.324139  -0.555139  0  2.279713  0
O  O143  1  0.45146080  0.48201602  0.82418237  1  0  -0.648863  0  2.013546  0  0  -0.577282  0  2.27185  0  0  -0.608677  0  2.259014  0  -1.156737  0  -0.324127  -0.555098  0  2.279828  0
O  O144  1  0.74934589  0.30769393  0.11578331  1  0  -0.855769  0  1.923467  0  0  -0.789323  0  2.131394  0  0  -0.81304  0  2.096212  0  -1.291499  0  -0.584182  -0.772515  0  2.155595  0
O  O145  1  0.75065557  0.69230925  0.61577964  1  0  -0.855753  0  1.923474  0  0  -0.789354  0  2.131329  0  0  -0.813063  0  2.096123  0  -1.29153  0  -0.584205  -0.772544  0  2.15554  0
O  O146  1  0.25065418  0.69230646  0.88421914  1  0  -0.855747  0  1.923492  0  0  -0.789336  0  2.131349  0  0  -0.813046  0  2.096149  0  -1.291523  0  -0.584166  -0.77252  0  2.155545  0
O  O147  1  0.24934450  0.30769300  0.38421669  1  0  -0.855773  0  1.923451  0  0  -0.789327  0  2.13139  0  0  -0.813041  0  2.096203  0  -1.291404  0  -0.584203  -0.772518  0  2.155588  0
