# generated using pymatgen
data_AgH13C9S(NO)3
_symmetry_space_group_name_H-M   'P 1'
_cell_length_a   5.32239675
_cell_length_b   10.51155731
_cell_length_c   10.98137363
_cell_angle_alpha   70.37728339
_cell_angle_beta   83.32290286
_cell_angle_gamma   86.84422747
_symmetry_Int_Tables_number   1
_chemical_formula_structural   AgH13C9S(NO)3
_chemical_formula_sum   'Ag2 H26 C18 S2 N6 O6'
_cell_volume   574.68213849
_cell_formula_units_Z   2
loop_
 _symmetry_equiv_pos_site_id
 _symmetry_equiv_pos_as_xyz
  1  'x, y, z'
loop_
 _atom_site_type_symbol
 _atom_site_label
 _atom_site_symmetry_multiplicity
 _atom_site_fract_x
 _atom_site_fract_y
 _atom_site_fract_z
 _atom_site_occupancy
 _atom_site_hle17_bader_spin_density
 _atom_site_hle17_ddec_charge
 _atom_site_hle17_ddec_spin_density
 _atom_site_hle17_ddec_sum_bond_order
 _atom_site_hle17_magmom
 _atom_site_hse06_10hf_bader_spin_density
 _atom_site_hse06_10hf_ddec_charge
 _atom_site_hse06_10hf_ddec_spin_density
 _atom_site_hse06_10hf_ddec_sum_bond_order
 _atom_site_hse06_10hf_magmom
 _atom_site_hse06_bader_spin_density
 _atom_site_hse06_ddec_charge
 _atom_site_hse06_ddec_spin_density
 _atom_site_hse06_ddec_sum_bond_order
 _atom_site_hse06_magmom
 _atom_site_pbe_bader_spin_density
 _atom_site_pbe_cm5_charge
 _atom_site_pbe_ddec_charge
 _atom_site_pbe_ddec_spin_density
 _atom_site_pbe_ddec_sum_bond_order
 _atom_site_pbe_magmom
Ag  Ag0  1  0.69467184  0.59378134  0.51817658  1  0  0.50839  0  1.511948  0  0  0.391363  0  1.968496  0  0  0.420313  0  1.91581  0  0  0.426292  0.370195  0  2.00621  0
Ag  Ag1  1  0.30534177  0.40622676  0.48182618  1  0  0.508385  0  1.511964  0  0  0.391381  0  1.968518  0  0  0.420333  0  1.915833  0  0  0.426292  0.37022  0  2.006219  0
H  H2  1  0.47354468  0.89055104  0.74711708  1  0  0.145805  0  0.95633  0  0  0.15479  0  1.015932  0  0  0.159089  0  1.01429  0  0  0.114674  0.151307  0  1.018111  0
H  H3  1  0.52643724  0.10944493  0.25288926  1  0  0.145751  0  0.956547  0  0  0.154839  0  1.016016  0  0  0.159152  0  1.014366  0  0  0.114664  0.151355  0  1.018194  0
H  H4  1  0.88512718  0.51016551  0.80640945  1  0  0.100684  0  0.973367  0  0  0.114089  0  1.037705  0  0  0.115127  0  1.037924  0  0  0.100418  0.113276  0  1.037643  0
H  H5  1  0.11486766  0.48983651  0.19359797  1  0  0.100625  0  0.973381  0  0  0.113999  0  1.037724  0  0  0.115037  0  1.037944  0  0  0.100399  0.11319  0  1.037661  0
H  H6  1  0.98011200  0.34299982  0.81171660  1  0  0.097554  0  0.943643  0  0  0.105778  0  1.017868  0  0  0.107396  0  1.017123  0  0  0.09595  0.104605  0  1.018469  0
H  H7  1  0.01989674  0.65700026  0.18827255  1  0  0.097481  0  0.943634  0  0  0.105715  0  1.017832  0  0  0.107339  0  1.017074  0  0  0.095968  0.104544  0  1.01844  0
H  H8  1  0.69476533  0.24347852  0.00949344  1  0  0.066097  0  0.958438  0  0  0.081302  0  1.025467  0  0  0.082037  0  1.026297  0  0  0.086072  0.080636  0  1.025223  0
H  H9  1  0.30524909  0.75651345  0.99050621  1  0  0.066156  0  0.958311  0  0  0.081338  0  1.025368  0  0  0.082076  0  1.026192  0  0  0.086037  0.080672  0  1.025124  0
H  H10  1  0.88049477  0.36387615  0.03518190  1  0  0.076666  0  0.930745  0  0  0.096302  0  0.990113  0  0  0.09667  0  0.990975  0  0  0.093148  0.095938  0  0.989615  0
H  H11  1  0.11953728  0.63610778  0.96480944  1  0  0.076705  0  0.930693  0  0  0.096332  0  0.990073  0  0  0.09669  0  0.990957  0  0  0.093139  0.095978  0  0.989551  0
H  H12  1  0.44202871  0.37842724  0.12485152  1  0  0.075383  0  0.953315  0  0  0.093442  0  1.016786  0  0  0.094287  0  1.017016  0  0  0.087637  0.092737  0  1.016824  0
H  H13  1  0.55800809  0.62156673  0.87515370  1  0  0.075338  0  0.953334  0  0  0.093366  0  1.016885  0  0  0.094208  0  1.017129  0  0  0.087601  0.092658  0  1.016919  0
H  H14  1  0.32726474  0.40210552  0.97429158  1  0  0.051867  0  0.959445  0  0  0.070739  0  1.023938  0  0  0.070878  0  1.025345  0  0  0.078967  0.070573  0  1.023012  0
H  H15  1  0.67275078  0.59788940  0.02572803  1  0  0.051796  0  0.959466  0  0  0.070734  0  1.023931  0  0  0.070877  0  1.025333  0  0  0.078921  0.070568  0  1.023005  0
H  H16  1  0.26690098  0.12100603  0.47297244  1  0  0.143623  0  0.951303  0  0  0.163557  0  1.01359  0  0  0.165395  0  1.013131  0  0  0.102737  0.162124  0  1.014151  0
H  H17  1  0.73306761  0.87900209  0.52702066  1  0  0.14357  0  0.951594  0  0  0.163536  0  1.013799  0  0  0.165372  0  1.013342  0  0  0.102751  0.162106  0  1.014358  0
H  H18  1  0.16123708  0.96912247  0.59931021  1  0  0.132862  0  0.959066  0  0  0.151412  0  1.01992  0  0  0.153097  0  1.020153  0  0  0.097338  0.150058  0  1.019952  0
H  H19  1  0.83871980  0.03088256  0.40069901  1  0  0.132827  0  0.959219  0  0  0.151324  0  1.020143  0  0  0.15301  0  1.020374  0  0  0.097275  0.149969  0  1.02018  0
H  H20  1  0.01085353  0.12893966  0.58772949  1  0  0.130727  0  0.949504  0  0  0.151231  0  1.008995  0  0  0.152189  0  1.010408  0  0  0.096621  0.150443  0  1.008065  0
H  H21  1  0.98914092  0.87107449  0.41227318  1  0  0.130682  0  0.949434  0  0  0.151146  0  1.008992  0  0  0.152103  0  1.010405  0  0  0.096598  0.150362  0  1.008061  0
H  H22  1  0.77737676  0.91438989  0.00887411  1  0  0.12688  0  0.937813  0  0  0.148188  0  0.997369  0  0  0.149554  0  0.9976  0  0  0.098281  0.147185  0  0.997297  0
H  H23  1  0.22263419  0.08560109  0.99111783  1  0  0.126812  0  0.937947  0  0  0.14817  0  0.997432  0  0  0.149533  0  0.99767  0  0  0.098238  0.147167  0  0.997358  0
H  H24  1  0.79009400  0.81632124  0.90231618  1  0  0.12974  0  0.961206  0  0  0.148787  0  1.023799  0  0  0.150538  0  1.023416  0  0  0.099448  0.147503  0  1.024127  0
H  H25  1  0.20991135  0.18367786  0.09766252  1  0  0.129805  0  0.96109  0  0  0.148885  0  1.02365  0  0  0.150637  0  1.023264  0  0  0.099475  0.147604  0  1.023972  0
H  H26  1  0.02387398  0.93827606  0.88189654  1  0  0.123381  0  0.951975  0  0  0.144082  0  1.016374  0  0  0.145352  0  1.016644  0  0  0.09885  0.143154  0  1.016283  0
H  H27  1  0.97614077  0.06171594  0.11809306  1  0  0.123346  0  0.952057  0  0  0.144012  0  1.016497  0  0  0.145282  0  1.016767  0  0  0.098825  0.143085  0  1.016407  0
C  C28  1  0.37070552  0.10044020  0.66031990  1  0  0.394727  0  3.690113  0  0  0.393001  0  3.939721  0  0  0.408083  0  3.955351  0  0  0.141468  0.382854  0  3.929029  0
C  C29  1  0.62928386  0.89956590  0.33967556  1  0  0.394924  0  3.689501  0  0  0.39311  0  3.939276  0  0  0.408197  0  3.954907  0  0  0.141579  0.382956  0  3.928588  0
C  C30  1  0.50088577  0.99362729  0.74414090  1  0  -0.301819  0  3.620893  0  0  -0.322606  0  3.85763  0  0  -0.336338  0  3.876328  0  0  -0.091861  -0.314062  0  3.846179  0
C  C31  1  0.49909542  0.00639394  0.25585379  1  0  -0.301832  0  3.620795  0  0  -0.322654  0  3.857518  0  0  -0.336423  0  3.876208  0  0  -0.091906  -0.3141  0  3.846065  0
C  C32  1  0.66864726  0.02284616  0.81948939  1  0  0.376268  0  3.726098  0  0  0.382111  0  3.977268  0  0  0.396092  0  3.992414  0  0  0.14081  0.372875  0  3.966869  0
C  C33  1  0.33137025  0.97715891  0.18051322  1  0  0.37612  0  3.725718  0  0  0.381913  0  3.977002  0  0  0.395943  0  3.992084  0  0  0.140683  0.372681  0  3.966602  0
C  C34  1  0.56675482  0.24691700  0.73341749  1  0  0.359524  0  3.815941  0  0  0.339195  0  4.09691  0  0  0.357839  0  4.110076  0  0  0.242424  0.326367  0  4.087925  0
C  C35  1  0.43324212  0.75308403  0.26658469  1  0  0.359357  0  3.816248  0  0  0.339033  0  4.097208  0  0  0.357678  0  4.110385  0  0  0.242329  0.326201  0  4.088225  0
C  C36  1  0.82372012  0.40514228  0.83686239  1  0  -0.129646  0  3.609189  0  0  -0.167397  0  3.868787  0  0  -0.166264  0  3.879688  0  0  -0.148751  -0.168096  0  3.861234  0
C  C37  1  0.17627172  0.59485780  0.16312394  1  0  -0.129354  0  3.609449  0  0  -0.167166  0  3.869212  0  0  -0.166016  0  3.880103  0  0  -0.148734  -0.167893  0  3.861686  0
C  C38  1  0.72667401  0.35239732  0.98079576  1  0  -0.102535  0  3.686292  0  0  -0.141441  0  3.94393  0  0  -0.142544  0  3.958215  0  0  -0.169706  -0.140439  0  3.93405  0
C  C39  1  0.27330165  0.64760263  0.01922328  1  0  -0.102692  0  3.686443  0  0  -0.141588  0  3.944179  0  0  -0.142704  0  3.958478  0  0  -0.169649  -0.140571  0  3.934293  0
C  C40  1  0.48779913  0.42354792  0.01914895  1  0  -0.11901  0  3.693157  0  0  -0.157778  0  3.949863  0  0  -0.159248  0  3.965476  0  0  -0.176947  -0.156587  0  3.938967  0
C  C41  1  0.51221375  0.57642481  0.98086600  1  0  -0.118931  0  3.692678  0  0  -0.157787  0  3.949487  0  0  -0.159271  0  3.965121  0  0  -0.176843  -0.156591  0  3.938581  0
C  C42  1  0.19204521  0.07719214  0.57562708  1  0  -0.39574  0  3.661672  0  0  -0.474358  0  3.889673  0  0  -0.478999  0  3.896274  0  0  -0.246137  -0.47069  0  3.885111  0
C  C43  1  0.80792651  0.92282402  0.42437515  1  0  -0.395613  0  3.661881  0  0  -0.474172  0  3.889958  0  0  -0.478811  0  3.896558  0  0  -0.246036  -0.470499  0  3.885398  0
C  C44  1  0.82167037  0.91589332  0.90814146  1  0  -0.372187  0  3.667634  0  0  -0.455424  0  3.900776  0  0  -0.458557  0  3.906149  0  0  -0.234959  -0.453036  0  3.897023  0
C  C45  1  0.17832166  0.08410678  0.09183939  1  0  -0.372039  0  3.667393  0  0  -0.45534  0  3.900608  0  0  -0.458486  0  3.905959  0  0  -0.234868  -0.452956  0  3.896862  0
S  S46  1  0.58153701  0.41523795  0.73002373  1  0  0.004264  0  2.719231  0  0  0.027909  0  3.131537  0  0  0.020163  0  3.120392  0  0  0.029109  0.03345  0  3.139683  0
S  S47  1  0.41846170  0.58476205  0.26998323  1  0  0.004223  0  2.718912  0  0  0.027896  0  3.131179  0  0  0.020139  0  3.12004  0  0  0.029108  0.033451  0  3.139321  0
N  N48  1  0.40713226  0.22911157  0.65377432  1  0  -0.437778  0  3.203258  0  0  -0.365865  0  3.477207  0  0  -0.389682  0  3.488189  0  0  -0.341962  -0.349531  0  3.469597  0
N  N49  1  0.59286668  0.77088542  0.34622995  1  0  -0.437796  0  3.20325  0  0  -0.365823  0  3.477176  0  0  -0.389633  0  3.488137  0  0  -0.34196  -0.349482  0  3.469561  0
N  N50  1  0.69884941  0.15141772  0.81457173  1  0  -0.427983  0  3.010787  0  0  -0.391272  0  3.269536  0  0  -0.409243  0  3.282559  0  0  -0.316027  -0.379063  0  3.260629  0
N  N51  1  0.30114620  0.84857627  0.18542273  1  0  -0.42793  0  3.010461  0  0  -0.391183  0  3.269214  0  0  -0.409175  0  3.282227  0  0  -0.315959  -0.378978  0  3.260313  0
N  N52  1  0.15345638  0.69780418  0.64139047  1  0  0.687999  0  4.131599  0  0  0.732936  0  4.404507  0  0  0.748762  0  4.429984  0  0  0.091211  0.713423  0  4.399612  0
N  N53  1  0.84654800  0.30219684  0.35861499  1  0  0.687942  0  4.131655  0  0  0.733164  0  4.404156  0  0  0.748883  0  4.429792  0  0  0.091356  0.713653  0  4.399262  0
O  O54  1  0.37470748  0.73091251  0.64904146  1  0  -0.461639  0  1.793025  0  0  -0.450992  0  2.016606  0  0  -0.463154  0  2.015407  0  0  -0.187566  -0.439128  0  2.02151  0
O  O55  1  0.62530842  0.26907029  0.35098290  1  0  -0.461625  0  1.79292  0  0  -0.451104  0  2.016459  0  0  -0.463227  0  2.015308  0  0  -0.187743  -0.439243  0  2.021362  0
O  O56  1  0.12304065  0.63388894  0.56247091  1  0  -0.534836  0  1.892406  0  0  -0.520535  0  2.170616  0  0  -0.537075  0  2.164372  0  0  -0.224565  -0.505249  0  2.178145  0
O  O57  1  0.87697339  0.36611616  0.43752276  1  0  -0.534872  0  1.892535  0  0  -0.520689  0  2.170699  0  0  -0.537192  0  2.164494  0  0  -0.224567  -0.505399  0  2.178212  0
O  O58  1  0.96536380  0.72641924  0.70871754  1  0  -0.449239  0  1.751044  0  0  -0.442459  0  1.959191  0  0  -0.451651  0  1.958785  0  0  -0.182973  -0.432754  0  1.963107  0
O  O59  1  0.03462730  0.27359191  0.29127624  1  0  -0.449191  0  1.751115  0  0  -0.442476  0  1.959143  0  0  -0.451658  0  1.958819  0  0  -0.182976  -0.432774  0  1.963062  0
