# generated using pymatgen
data_ZnH10(C2O)4
_symmetry_space_group_name_H-M   'P 1'
_cell_length_a   4.84543681
_cell_length_b   6.62225879
_cell_length_c   26.00395322
_cell_angle_alpha   90.00006452
_cell_angle_beta   90.00048672
_cell_angle_gamma   89.99957730
_symmetry_Int_Tables_number   1
_chemical_formula_structural   ZnH10(C2O)4
_chemical_formula_sum   'Zn4 H40 C32 O16'
_cell_volume   834.40799833
_cell_formula_units_Z   4
loop_
 _symmetry_equiv_pos_site_id
 _symmetry_equiv_pos_as_xyz
  1  'x, y, z'
loop_
 _atom_site_type_symbol
 _atom_site_label
 _atom_site_symmetry_multiplicity
 _atom_site_fract_x
 _atom_site_fract_y
 _atom_site_fract_z
 _atom_site_occupancy
 _atom_site_hle17_bader_spin_density
 _atom_site_hle17_ddec_charge
 _atom_site_hle17_ddec_spin_density
 _atom_site_hle17_ddec_sum_bond_order
 _atom_site_hle17_magmom
 _atom_site_hse06_10hf_bader_spin_density
 _atom_site_hse06_10hf_ddec_charge
 _atom_site_hse06_10hf_ddec_spin_density
 _atom_site_hse06_10hf_ddec_sum_bond_order
 _atom_site_hse06_10hf_magmom
 _atom_site_hse06_bader_spin_density
 _atom_site_hse06_ddec_charge
 _atom_site_hse06_ddec_spin_density
 _atom_site_hse06_ddec_sum_bond_order
 _atom_site_hse06_magmom
 _atom_site_pbe_bader_spin_density
 _atom_site_pbe_cm5_charge
 _atom_site_pbe_ddec_charge
 _atom_site_pbe_ddec_spin_density
 _atom_site_pbe_ddec_sum_bond_order
 _atom_site_pbe_magmom
Zn  Zn0  1  0.05063767  0.91214643  0.03967722  1  0  1.204374  0  1.721921  0  0  1.027938  0  2.213694  0  0  1.079411  0  2.144497  0  0  0.714159  0.99133  0  2.261968  0
Zn  Zn1  1  0.44936248  0.08786428  0.53967600  1  0  1.204266  0  1.721964  0  0  1.027825  0  2.21367  0  0  1.079302  0  2.144476  0  0  0.714079  0.991216  0  2.261937  0
Zn  Zn2  1  0.94935933  0.41213733  0.46032390  1  0  1.204289  0  1.721958  0  0  1.02788  0  2.213711  0  0  1.079357  0  2.14451  0  0  0.714118  0.991276  0  2.261983  0
Zn  Zn3  1  0.55064830  0.58785898  0.96032374  1  0  1.204263  0  1.721985  0  0  1.027836  0  2.213805  0  0  1.07931  0  2.144609  0  0  0.714074  0.991223  0  2.262081  0
H  H4  1  0.77548075  0.09532230  0.86227529  1  0  0.075681  0  0.94935  0  0  0.087461  0  1.010911  0  0  0.089103  0  1.010621  0  0  0.10217  0.086292  0  1.011186  0
H  H5  1  0.72451208  0.90467962  0.36227754  1  0  0.075691  0  0.94935  0  0  0.087424  0  1.010947  0  0  0.089063  0  1.010657  0  0  0.102165  0.086254  0  1.011226  0
H  H6  1  0.22453201  0.59532336  0.63772676  1  0  0.075664  0  0.94945  0  0  0.087451  0  1.011015  0  0  0.089092  0  1.010727  0  0  0.102163  0.086277  0  1.011293  0
H  H7  1  0.27547055  0.40468627  0.13772510  1  0  0.075643  0  0.94952  0  0  0.087468  0  1.011067  0  0  0.08911  0  1.010779  0  0  0.102192  0.08629  0  1.011353  0
H  H8  1  0.29712158  0.83676996  0.85637630  1  0  0.0773  0  0.936691  0  0  0.095263  0  0.999067  0  0  0.096614  0  0.998926  0  0  0.090406  0.094217  0  0.999302  0
H  H9  1  0.20286826  0.16322552  0.35637408  1  0  0.077275  0  0.936628  0  0  0.095264  0  0.999002  0  0  0.096624  0  0.998855  0  0  0.090378  0.094182  0  0.999273  0
H  H10  1  0.70288870  0.33677739  0.64362159  1  0  0.077215  0  0.93678  0  0  0.095223  0  0.999126  0  0  0.096579  0  0.998976  0  0  0.09038  0.094141  0  0.999403  0
H  H11  1  0.79712098  0.66322357  0.14362543  1  0  0.077259  0  0.936617  0  0  0.095247  0  0.99898  0  0  0.096612  0  0.998828  0  0  0.090379  0.094165  0  0.999256  0
H  H12  1  0.96119583  0.76021121  0.83752814  1  0  0.069538  0  0.935098  0  0  0.086764  0  0.997524  0  0  0.087827  0  0.997759  0  0  0.089189  0.085943  0  0.997455  0
H  H13  1  0.53879793  0.23978155  0.33752722  1  0  0.069505  0  0.935014  0  0  0.086733  0  0.997468  0  0  0.087798  0  0.997707  0  0  0.089169  0.085915  0  0.99739  0
H  H14  1  0.03881111  0.26021619  0.66247165  1  0  0.069513  0  0.935118  0  0  0.086751  0  0.997543  0  0  0.087813  0  0.99778  0  0  0.08919  0.08593  0  0.997467  0
H  H15  1  0.46119878  0.73979203  0.16247423  1  0  0.069432  0  0.935107  0  0  0.086673  0  0.997538  0  0  0.08774  0  0.997775  0  0  0.08914  0.085853  0  0.997464  0
H  H16  1  0.23440037  0.88169266  0.76140493  1  0  0.058187  0  0.958447  0  0  0.076842  0  1.02186  0  0  0.077375  0  1.022462  0  0  0.08681  0.076392  0  1.021514  0
H  H17  1  0.26559338  0.11829335  0.26140317  1  0  0.058223  0  0.958412  0  0  0.076889  0  1.021787  0  0  0.077431  0  1.022377  0  0  0.086817  0.076433  0  1.021451  0
H  H18  1  0.76559086  0.38170320  0.73859298  1  0  0.058145  0  0.958425  0  0  0.076794  0  1.021894  0  0  0.077355  0  1.022463  0  0  0.086796  0.076332  0  1.021557  0
H  H19  1  0.73440870  0.61829970  0.23859632  1  0  0.058238  0  0.958474  0  0  0.076882  0  1.021935  0  0  0.077423  0  1.022526  0  0  0.086843  0.076421  0  1.021597  0
H  H20  1  0.94133196  0.03388946  0.77215681  1  0  0.05405  0  0.951588  0  0  0.073405  0  1.015378  0  0  0.07366  0  1.016344  0  0  0.085576  0.073149  0  1.014795  0
H  H21  1  0.55865882  0.96610150  0.27215651  1  0  0.054101  0  0.951542  0  0  0.073399  0  1.01539  0  0  0.073656  0  1.016353  0  0  0.085588  0.073147  0  1.014802  0
H  H22  1  0.05866492  0.53388574  0.72784369  1  0  0.054052  0  0.951571  0  0  0.073437  0  1.015348  0  0  0.073695  0  1.016312  0  0  0.085578  0.07318  0  1.014767  0
H  H23  1  0.44133969  0.46611220  0.22784539  1  0  0.054022  0  0.951559  0  0  0.073418  0  1.015341  0  0  0.073678  0  1.016298  0  0  0.085551  0.073159  0  1.014765  0
H  H24  1  0.34166727  0.25322251  0.75511972  1  0  0.060838  0  0.946447  0  0  0.082477  0  1.003374  0  0  0.082882  0  1.004217  0  0  0.088456  0.082118  0  1.002868  0
H  H25  1  0.15831588  0.74676951  0.25511952  1  0  0.060875  0  0.946322  0  0  0.08248  0  1.003323  0  0  0.082889  0  1.00416  0  0  0.08843  0.082119  0  1.002816  0
H  H26  1  0.65833767  0.75323231  0.74487930  1  0  0.060952  0  0.946322  0  0  0.08255  0  1.003301  0  0  0.082962  0  1.00413  0  0  0.08846  0.08219  0  1.002795  0
H  H27  1  0.84167250  0.24677061  0.24488116  1  0  0.060898  0  0.946319  0  0  0.082507  0  1.003277  0  0  0.082921  0  1.004106  0  0  0.088429  0.082149  0  1.00277  0
H  H28  1  0.53574025  0.13106137  0.80328407  1  0  0.054933  0  0.969659  0  0  0.074918  0  1.031977  0  0  0.075712  0  1.032081  0  0  0.08523  0.074267  0  1.03203  0
H  H29  1  0.96425607  0.86892822  0.30328439  1  0  0.054996  0  0.969573  0  0  0.075016  0  1.03186  0  0  0.075812  0  1.031962  0  0  0.085272  0.074367  0  1.031913  0
H  H30  1  0.46427007  0.63108558  0.69671337  1  0  0.054989  0  0.969521  0  0  0.074906  0  1.03192  0  0  0.075698  0  1.032023  0  0  0.085259  0.074267  0  1.031966  0
H  H31  1  0.03573931  0.36892431  0.19671671  1  0  0.055003  0  0.96957  0  0  0.074913  0  1.031965  0  0  0.075704  0  1.03207  0  0  0.085246  0.074279  0  1.03201  0
H  H32  1  0.02271635  0.39479603  0.81836411  1  0  0.059463  0  0.944594  0  0  0.077601  0  1.009912  0  0  0.078131  0  1.010557  0  0  0.087872  0.077112  0  1.009608  0
H  H33  1  0.47728620  0.60519777  0.31836360  1  0  0.059459  0  0.944515  0  0  0.07761  0  1.009824  0  0  0.078122  0  1.010491  0  0  0.087885  0.077123  0  1.009518  0
H  H34  1  0.97730777  0.89480085  0.68163611  1  0  0.059389  0  0.944424  0  0  0.077543  0  1.009765  0  0  0.078096  0  1.010381  0  0  0.087878  0.077062  0  1.009453  0
H  H35  1  0.52270570  0.10520481  0.18163666  1  0  0.059407  0  0.944548  0  0  0.077564  0  1.009874  0  0  0.07808  0  1.010532  0  0  0.087871  0.07708  0  1.009571  0
H  H36  1  0.36363725  0.45356817  0.83762261  1  0  0.071424  0  0.932744  0  0  0.08993  0  0.993366  0  0  0.091143  0  0.993279  0  0  0.091759  0.088977  0  0.993568  0
H  H37  1  0.13637237  0.54641817  0.33762116  1  0  0.071392  0  0.932689  0  0  0.089896  0  0.99332  0  0  0.091121  0  0.993216  0  0  0.091746  0.088945  0  0.993521  0
H  H38  1  0.63639040  0.95358830  0.66237724  1  0  0.071383  0  0.932725  0  0  0.089914  0  0.993341  0  0  0.091133  0  0.993249  0  0  0.091762  0.088964  0  0.993542  0
H  H39  1  0.86362426  0.04642483  0.16237792  1  0  0.071432  0  0.93272  0  0  0.089922  0  0.993373  0  0  0.091139  0  0.993278  0  0  0.091747  0.088972  0  0.993577  0
H  H40  1  0.35673879  0.18342939  0.90288610  1  0  0.105731  0  0.929222  0  0  0.11396  0  0.990675  0  0  0.11659  0  0.989644  0  0  0.107566  0.112112  0  0.991412  0
H  H41  1  0.14325730  0.81655875  0.40288474  1  0  0.1057  0  0.929278  0  0  0.113932  0  0.990736  0  0  0.116564  0  0.989705  0  0  0.107549  0.112089  0  0.991466  0
H  H42  1  0.64327513  0.68344315  0.59711443  1  0  0.105731  0  0.929175  0  0  0.1139  0  0.990636  0  0  0.116532  0  0.989607  0  0  0.107554  0.112056  0  0.991371  0
H  H43  1  0.85672830  0.31656969  0.09711557  1  0  0.105698  0  0.929214  0  0  0.1139  0  0.99071  0  0  0.11653  0  0.98968  0  0  0.107557  0.112055  0  0.991442  0
C  C44  1  0.97282582  0.04463368  0.87855604  1  0  -0.128163  0  3.635512  0  0  -0.134178  0  3.869119  0  0  -0.140254  0  3.883571  0  0  -0.090923  -0.1301  0  3.859416  0
C  C45  1  0.52716363  0.95536228  0.37855530  1  0  -0.128383  0  3.635686  0  0  -0.134231  0  3.869173  0  0  -0.140296  0  3.883626  0  0  -0.090911  -0.130166  0  3.85949  0
C  C46  1  0.02719159  0.54463872  0.62144446  1  0  -0.128316  0  3.635854  0  0  -0.134366  0  3.869429  0  0  -0.140443  0  3.883876  0  0  -0.090936  -0.130285  0  3.859721  0
C  C47  1  0.47281848  0.45536630  0.12144582  1  0  -0.128271  0  3.635812  0  0  -0.134426  0  3.869609  0  0  -0.140503  0  3.88407  0  0  -0.090991  -0.130341  0  3.859903  0
C  C48  1  0.09921309  0.89139683  0.84082736  1  0  -0.113985  0  3.645658  0  0  -0.158816  0  3.905001  0  0  -0.159746  0  3.919168  0  0  -0.164262  -0.157953  0  3.895108  0
C  C49  1  0.40077810  0.10859557  0.34082620  1  0  -0.113736  0  3.645512  0  0  -0.158663  0  3.904886  0  0  -0.159613  0  3.919078  0  0  -0.164144  -0.157781  0  3.895019  0
C  C50  1  0.90079456  0.39140479  0.65917170  1  0  -0.113882  0  3.645673  0  0  -0.158743  0  3.905057  0  0  -0.159678  0  3.919238  0  0  -0.164243  -0.157859  0  3.895178  0
C  C51  1  0.59920964  0.60860228  0.15917405  1  0  -0.113779  0  3.645404  0  0  -0.158587  0  3.904768  0  0  -0.159543  0  3.918965  0  0  -0.164149  -0.157694  0  3.894873  0
C  C52  1  0.14305469  0.99052592  0.78841884  1  0  -0.105148  0  3.695362  0  0  -0.145658  0  3.959765  0  0  -0.146487  0  3.974533  0  0  -0.168243  -0.144897  0  3.949442  0
C  C53  1  0.35693823  0.00946323  0.28841758  1  0  -0.105326  0  3.695371  0  0  -0.145734  0  3.959751  0  0  -0.146563  0  3.974524  0  0  -0.16827  -0.144969  0  3.949413  0
C  C54  1  0.85694574  0.49053283  0.71158063  1  0  -0.104948  0  3.695161  0  0  -0.145525  0  3.959652  0  0  -0.146369  0  3.97442  0  0  -0.168191  -0.144756  0  3.949313  0
C  C55  1  0.64306085  0.50946843  0.21158303  1  0  -0.10513  0  3.695356  0  0  -0.145707  0  3.959852  0  0  -0.146536  0  3.974626  0  0  -0.168263  -0.144938  0  3.949517  0
C  C56  1  0.32524069  0.17797792  0.79274167  1  0  -0.104654  0  3.68692  0  0  -0.145749  0  3.951846  0  0  -0.14651  0  3.965799  0  0  -0.167275  -0.145023  0  3.94206  0
C  C57  1  0.17475243  0.82201276  0.29274152  1  0  -0.104782  0  3.686821  0  0  -0.145939  0  3.951811  0  0  -0.146702  0  3.965761  0  0  -0.167321  -0.145209  0  3.942013  0
C  C58  1  0.67476915  0.67799351  0.70725694  1  0  -0.104921  0  3.68676  0  0  -0.145939  0  3.951758  0  0  -0.146705  0  3.965721  0  0  -0.167303  -0.145218  0  3.941978  0
C  C59  1  0.82523724  0.32201378  0.20725919  1  0  -0.104879  0  3.686901  0  0  -0.145877  0  3.951846  0  0  -0.14664  0  3.965795  0  0  -0.167277  -0.145159  0  3.942072  0
C  C60  1  0.21691003  0.32844206  0.83259632  1  0  -0.107588  0  3.64726  0  0  -0.15433  0  3.911154  0  0  -0.154829  0  3.925044  0  0  -0.160306  -0.153772  0  3.901444  0
C  C61  1  0.28309316  0.67154879  0.33259552  1  0  -0.107499  0  3.647088  0  0  -0.154226  0  3.910937  0  0  -0.15472  0  3.924828  0  0  -0.160308  -0.153663  0  3.901212  0
C  C62  1  0.78311477  0.82845388  0.66740311  1  0  -0.107422  0  3.647147  0  0  -0.154274  0  3.910996  0  0  -0.154789  0  3.924879  0  0  -0.160366  -0.153719  0  3.901297  0
C  C63  1  0.71690012  0.17155323  0.16740437  1  0  -0.107522  0  3.647205  0  0  -0.154297  0  3.911072  0  0  -0.154783  0  3.924956  0  0  -0.160334  -0.153747  0  3.901378  0
C  C64  1  0.16006239  0.22903365  0.88534785  1  0  -0.149051  0  3.627345  0  0  -0.153397  0  3.858474  0  0  -0.159561  0  3.872464  0  0  -0.092071  -0.149127  0  3.848817  0
C  C65  1  0.33993496  0.77095744  0.38534640  1  0  -0.149132  0  3.627518  0  0  -0.153444  0  3.858617  0  0  -0.159629  0  3.872601  0  0  -0.092086  -0.149166  0  3.848937  0
C  C66  1  0.83995519  0.72904343  0.61465270  1  0  -0.148998  0  3.627507  0  0  -0.153127  0  3.858237  0  0  -0.159291  0  3.872244  0  0  -0.092053  -0.148866  0  3.8486  0
C  C67  1  0.66005317  0.27096345  0.11465390  1  0  -0.148879  0  3.627267  0  0  -0.153151  0  3.858344  0  0  -0.159325  0  3.87233  0  0  -0.092031  -0.148882  0  3.84868  0
C  C68  1  0.89864328  0.94152584  0.92884116  1  0  0.734161  0  3.780611  0  0  0.678013  0  4.079753  0  0  0.714371  0  4.070553  0  0  0.235869  0.653075  0  4.085448  0
C  C69  1  0.60134433  0.05847789  0.42883990  1  0  0.734555  0  3.780212  0  0  0.678206  0  4.079625  0  0  0.714567  0  4.070409  0  0  0.235936  0.653269  0  4.085315  0
C  C70  1  0.10138036  0.44152254  0.57116022  1  0  0.734235  0  3.780725  0  0  0.677947  0  4.080081  0  0  0.714317  0  4.070847  0  0  0.235837  0.653014  0  4.085775  0
C  C71  1  0.39862122  0.55848075  0.07116227  1  0  0.73417  0  3.780652  0  0  0.678012  0  4.079821  0  0  0.714378  0  4.070606  0  0  0.235894  0.653066  0  4.085525  0
C  C72  1  0.02608270  0.38608472  0.91997212  1  0  0.714561  0  3.776775  0  0  0.664431  0  4.067596  0  0  0.69956  0  4.060202  0  0  0.232646  0.640367  0  4.071946  0
C  C73  1  0.47392035  0.61390953  0.41997045  1  0  0.7148  0  3.776471  0  0  0.664501  0  4.067513  0  0  0.69968  0  4.060057  0  0  0.232677  0.64044  0  4.071852  0
C  C74  1  0.97393326  0.88609213  0.58002732  1  0  0.714451  0  3.77698  0  0  0.664352  0  4.067614  0  0  0.699459  0  4.06025  0  0  0.232704  0.64029  0  4.071962  0
C  C75  1  0.52606733  0.11391913  0.08002826  1  0  0.714415  0  3.776727  0  0  0.664212  0  4.067597  0  0  0.699365  0  4.060181  0  0  0.232601  0.64016  0  4.071927  0
O  O76  1  0.67658126  0.83826257  0.92844949  1  0  -0.668355  0  2.086238  0  0  -0.598915  0  2.382993  0  0  -0.627807  0  2.362384  0  0  -0.319631  -0.578841  0  2.396802  0
O  O77  1  0.82339188  0.16173663  0.42845168  1  0  -0.668467  0  2.08635  0  0  -0.598931  0  2.383164  0  0  -0.627819  0  2.362544  0  0  -0.319623  -0.578852  0  2.396957  0
O  O78  1  0.32343931  0.33827320  0.57155148  1  0  -0.668352  0  2.086501  0  0  -0.598828  0  2.383265  0  0  -0.627718  0  2.362647  0  0  -0.31958  -0.578755  0  2.397068  0
O  O79  1  0.17657880  0.66173312  0.07154936  1  0  -0.668304  0  2.086534  0  0  -0.598841  0  2.383285  0  0  -0.627732  0  2.362671  0  0  -0.319609  -0.578768  0  2.397092  0
O  O80  1  0.06445297  0.96483891  0.96624366  1  0  -0.649686  0  2.098311  0  0  -0.573779  0  2.384943  0  0  -0.602959  0  2.364552  0  0  -0.308203  -0.55348  0  2.398489  0
O  O81  1  0.43551712  0.03515555  0.46624330  1  0  -0.649809  0  2.0979  0  0  -0.573884  0  2.384695  0  0  -0.603078  0  2.364325  0  0  -0.308247  -0.553565  0  2.398206  0
O  O82  1  0.93557044  0.46485217  0.53375465  1  0  -0.649687  0  2.098122  0  0  -0.573746  0  2.384803  0  0  -0.602959  0  2.364462  0  0  -0.308204  -0.553437  0  2.39833  0
O  O83  1  0.56445280  0.53516039  0.03375616  1  0  -0.649752  0  2.097949  0  0  -0.573806  0  2.384566  0  0  -0.602985  0  2.364153  0  0  -0.308243  -0.553494  0  2.398105  0
O  O84  1  0.76367993  0.37576304  0.92442010  1  0  -0.644329  0  2.062783  0  0  -0.567433  0  2.331017  0  0  -0.598025  0  2.315809  0  0  -0.308393  -0.546033  0  2.340817  0
O  O85  1  0.73631986  0.62423614  0.42441960  1  0  -0.64437  0  2.062591  0  0  -0.567434  0  2.330914  0  0  -0.598041  0  2.315684  0  0  -0.308369  -0.546031  0  2.340702  0
O  O86  1  0.23633407  0.87576678  0.57557972  1  0  -0.644287  0  2.062775  0  0  -0.567361  0  2.330908  0  0  -0.597946  0  2.315716  0  0  -0.308353  -0.545959  0  2.340699  0
O  O87  1  0.26366772  0.12423653  0.07558143  1  0  -0.644336  0  2.062791  0  0  -0.56734  0  2.330984  0  0  -0.597944  0  2.315772  0  0  -0.308368  -0.545936  0  2.340754  0
O  O88  1  0.16372536  0.52712691  0.94107866  1  0  -0.669199  0  2.087971  0  0  -0.596678  0  2.373962  0  0  -0.626143  0  2.355585  0  0  -0.318357  -0.576067  0  2.386072  0
O  O89  1  0.33628072  0.47286442  0.44107827  1  0  -0.669333  0  2.08785  0  0  -0.596734  0  2.373873  0  0  -0.62621  0  2.355465  0  0  -0.318419  -0.576136  0  2.386015  0
O  O90  1  0.83629016  0.02712873  0.55891799  1  0  -0.669185  0  2.088051  0  0  -0.596692  0  2.373985  0  0  -0.62614  0  2.355606  0  0  -0.318435  -0.576082  0  2.386095  0
O  O91  1  0.66371359  0.97287488  0.05892209  1  0  -0.669119  0  2.08795  0  0  -0.596593  0  2.373967  0  0  -0.626066  0  2.355581  0  0  -0.318307  -0.575975  0  2.386053  0
