# generated using pymatgen
data_Zr3H14C25O26F
_symmetry_space_group_name_H-M   'P 1'
_cell_length_a   14.85081021
_cell_length_b   14.85105432
_cell_length_c   14.84998058
_cell_angle_alpha   59.97854641
_cell_angle_beta   59.99299833
_cell_angle_gamma   59.99050999
_symmetry_Int_Tables_number   1
_chemical_formula_structural   Zr3H14C25O26F
_chemical_formula_sum   'Zr6 H28 C50 O52 F2'
_cell_volume   2315.22783745
_cell_formula_units_Z   2
loop_
 _symmetry_equiv_pos_site_id
 _symmetry_equiv_pos_as_xyz
  1  'x, y, z'
loop_
 _atom_site_type_symbol
 _atom_site_label
 _atom_site_symmetry_multiplicity
 _atom_site_fract_x
 _atom_site_fract_y
 _atom_site_fract_z
 _atom_site_occupancy
 _atom_site_pbe_bader_charge
 _atom_site_pbe_bader_spin_density
 _atom_site_pbe_cm5_charge
 _atom_site_pbe_ddec_charge
 _atom_site_pbe_ddec_spin_density
 _atom_site_pbe_ddec_sum_bond_order
 _atom_site_pbe_magmom
Zr  Zr0  1  0.88139642  0.88129186  0.61869883  1  2.631333  0  1.636961  2.366414  0  2.757955  0
Zr  Zr1  1  0.11863964  0.11932393  0.38060509  1  2.631963  0  1.641442  2.372321  0  2.760526  0
Zr  Zr2  1  0.11874782  0.88136516  0.61859004  1  2.634421  0  1.641532  2.372527  0  2.761394  0
Zr  Zr3  1  0.88126516  0.11950774  0.38050539  1  2.635625  0  1.637498  2.366669  0  2.758533  0
Zr  Zr4  1  0.11810588  0.88214948  0.38141382  1  2.630443  0  1.635496  2.36699  0  2.766114  0
Zr  Zr5  1  0.88183630  0.11856774  0.61782152  1  2.628667  0  1.635421  2.365252  0  2.770032  0
H  H6  1  0.09377364  0.71958340  0.59310459  1  0.618699  0  0.33635  0.431132  0  0.846254  0
H  H7  1  0.09367436  0.09375772  0.21881765  1  0.627884  0  0.336297  0.430467  0  0.846535  0
H  H8  1  0.09352407  0.09408419  0.59328264  1  0.610926  0  0.335108  0.430803  0  0.845868  0
H  H9  1  0.71877129  0.09408817  0.59343410  1  0.611697  0  0.335427  0.430568  0  0.845734  0
H  H10  1  0.74489897  0.62873847  0.95931839  1  0.098445  0  0.104108  0.124569  0  0.989404  0
H  H11  1  0.83169463  0.54376314  0.87405546  1  0.088004  0  0.103351  0.122268  0  0.986058  0
H  H12  1  0.83150491  0.37531203  0.04256169  1  0.087605  0  0.103451  0.122473  0  0.985726  0
H  H13  1  0.74464465  0.46059458  0.12749208  1  0.0999  0  0.104379  0.125431  0  0.988509  0
H  H14  1  0.14519599  0.35507004  0.33862151  1  0.635238  0  0.312061  0.34799  0  0.970344  0
H  H15  1  0.84954328  0.65225422  0.65349698  1  0.645036  0  0.309718  0.345633  0  0.978767  0
H  H16  1  0.14879984  0.65715280  0.34196010  1  0.635315  0  0.309702  0.342533  0  0.978445  0
H  H17  1  0.84687711  0.34754716  0.65360166  1  0.633976  0  0.309114  0.342868  0  0.977999  0
H  H18  1  0.34525129  0.15505476  0.15106812  1  0.622812  0  0.311691  0.347594  0  0.97245  0
H  H19  1  0.66152790  0.84077879  0.85338367  1  0.636084  0  0.310143  0.347221  0  0.976078  0
H  H20  1  0.65366011  0.15261145  0.84833306  1  0.631304  0  0.310293  0.343601  0  0.977779  0
H  H21  1  0.35327308  0.84145649  0.15737337  1  0.628054  0  0.309405  0.343488  0  0.978001  0
H  H22  1  0.84649144  0.15432681  0.84703186  1  0.633949  0  0.30949  0.343252  0  0.977934  0
H  H23  1  0.14836696  0.84254490  0.15670872  1  0.635526  0  0.309861  0.342522  0  0.978808  0
H  H24  1  0.84908629  0.15409581  0.15184073  1  0.62028  0  0.309715  0.342834  0  0.983527  0
H  H25  1  0.14492332  0.83938500  0.85443269  1  0.627415  0  0.312066  0.348272  0  0.970412  0
H  H26  1  0.35329596  0.65819912  0.34065662  1  0.623281  0  0.309707  0.344084  0  0.977087  0
H  H27  1  0.65339021  0.34878922  0.65217204  1  0.634521  0  0.309809  0.342887  0  0.978538  0
H  H28  1  0.66142411  0.35410959  0.34007818  1  0.62264  0  0.310232  0.344926  0  0.981025  0
H  H29  1  0.34520933  0.65177373  0.65439648  1  0.618065  0  0.311073  0.345571  0  0.975065  0
H  H30  1  0.35016270  0.84424434  0.65004812  1  0.623056  0  0.310689  0.345084  0  0.976808  0
H  H31  1  0.65568770  0.15073827  0.34377915  1  0.623713  0  0.309471  0.342823  0  0.98006  0
H  H32  1  0.65571547  0.84445033  0.64985333  1  0.62039  0  0.309332  0.342877  0  0.980259  0
H  H33  1  0.35019038  0.15109837  0.34327320  1  0.63587  0  0.310428  0.344795  0  0.976311  0
C  C34  1  0.99796768  0.69646555  0.49671008  1  1.44538  0  0.233304  0.666202  0  4.046179  0
C  C35  1  0.30918562  0.99699339  0.19607922  1  1.414632  0  0.233762  0.665333  0  4.047636  0
C  C36  1  0.99649116  0.30951770  0.49734893  1  1.444863  0  0.233314  0.665467  0  4.049147  0
C  C37  1  0.69729597  0.99744963  0.80932864  1  1.429423  0  0.233807  0.665374  0  4.048448  0
C  C38  1  0.99683312  0.70174244  0.80467511  1  1.523198  0  0.243232  0.677243  0  4.071463  0
C  C39  1  0.69673789  0.99744732  0.49671757  1  1.426199  0  0.233789  0.665971  0  4.043844  0
C  C40  1  0.99656344  0.30541850  0.20098659  1  1.530025  0  0.24283  0.677468  0  4.069266  0
C  C41  1  0.30929412  0.99749039  0.49649321  1  1.424963  0  0.233819  0.666581  0  4.045058  0
C  C42  1  0.30920906  0.69688237  0.49624914  1  1.430695  0  0.233678  0.665974  0  4.047784  0
C  C43  1  0.99630922  0.99822257  0.80879367  1  1.457797  0  0.233256  0.665512  0  4.049222  0
C  C44  1  0.69719741  0.30999459  0.49680978  1  1.43339  0  0.233902  0.665687  0  4.048626  0
C  C45  1  0.99770434  0.99732409  0.19592940  1  1.439095  0  0.233408  0.665219  0  4.046973  0
C  C46  1  0.99686710  0.40759552  0.49738026  1  0.046409  0  -0.049869  -0.30564  0  4.020591  0
C  C47  1  0.99837486  0.59753952  0.49764852  1  0.027105  0  -0.049918  -0.305668  0  4.02533  0
C  C48  1  0.07845802  0.45726718  0.41212196  1  0.632741  0  0.076601  0.202182  0  4.05516  0
C  C49  1  0.91746879  0.54713174  0.58348193  1  0.61612  0  0.072241  0.196486  0  4.060478  0
C  C50  1  0.07949108  0.55113299  0.41264652  1  0.535105  0  0.075215  0.199706  0  4.055551  0
C  C51  1  0.91648874  0.45335526  0.58319188  1  0.53308  0  0.073236  0.197133  0  4.060104  0
C  C52  1  0.40779589  0.99692269  0.09809235  1  0.036673  0  -0.049747  -0.305939  0  4.020286  0
C  C53  1  0.59961911  0.99660694  0.90818204  1  0.011618  0  -0.048968  -0.303527  0  4.02389  0
C  C54  1  0.45359860  0.08235970  0.04818367  1  0.592182  0  0.076403  0.202202  0  4.055301  0
C  C55  1  0.55370566  0.91122121  0.95810302  1  0.580806  0  0.071401  0.195125  0  4.060792  0
C  C56  1  0.54890554  0.08198397  0.95419140  1  0.64428  0  0.075006  0.199566  0  4.057381  0
C  C57  1  0.45848725  0.91165321  0.05174186  1  0.539685  0  0.073514  0.198501  0  4.059202  0
C  C58  1  0.99651656  0.99808033  0.90704337  1  0.017763  0  -0.049415  -0.304004  0  4.021418  0
C  C59  1  0.99798759  0.99824392  0.09707367  1  0.021013  0  -0.050223  -0.305216  0  4.024327  0
C  C60  1  0.91606050  0.08379863  0.95292150  1  0.518392  0  0.072364  0.195035  0  4.063136  0
C  C61  1  0.07908105  0.91325794  0.05064711  1  0.543697  0  0.075581  0.1995  0  4.055827  0
C  C62  1  0.91702956  0.08405855  0.04672161  1  0.635503  0  0.071838  0.195724  0  4.060894  0
C  C63  1  0.07807630  0.91279132  0.95673398  1  0.627317  0  0.076723  0.20271  0  4.056839  0
C  C64  1  0.40773962  0.59882198  0.49625292  1  0.020214  0  -0.050284  -0.305936  0  4.021378  0
C  C65  1  0.59949980  0.40882882  0.49599249  1  0.010455  0  -0.049867  -0.304319  0  4.022271  0
C  C66  1  0.45845908  0.55253874  0.41092637  1  0.531904  0  0.073402  0.198142  0  4.062116  0
C  C67  1  0.54871903  0.45475980  0.58145060  1  0.571125  0  0.07553  0.199766  0  4.055972  0
C  C68  1  0.55364797  0.45885723  0.41053917  1  0.608915  0  0.071815  0.19582  0  4.058979  0
C  C69  1  0.45345892  0.54879975  0.58178888  1  0.64576  0  0.076612  0.202305  0  4.056528  0
C  C70  1  0.99746715  0.60208740  0.90472413  1  -0.030604  0  -0.018249  -0.181109  0  3.976044  0
C  C71  1  0.99724264  0.40550309  0.10136112  1  0.034198  0  -0.018191  -0.1819  0  3.976436  0
C  C72  1  0.91878487  0.55025588  0.95526770  1  0.06314  0  -0.002829  0.068608  0  3.89419  0
C  C73  1  0.07758603  0.45665899  0.05061153  1  0.545027  0  0.105381  0.164032  0  4.035972  0
C  C74  1  0.91865342  0.45622947  0.04934462  1  -0.05663  0  -0.002378  0.06979  0  3.893528  0
C  C75  1  0.07767526  0.55118338  0.95609863  1  0.621967  0  0.105812  0.164979  0  4.034387  0
C  C76  1  0.81786556  0.55554501  0.94794810  1  -0.026085  0  -0.145128  -0.190405  0  3.825843  0
C  C77  1  0.81771830  0.44916114  0.05438659  1  -0.045216  0  -0.145363  -0.192119  0  3.826526  0
C  C78  1  0.40749142  0.99755019  0.49657746  1  0.073024  0  -0.048999  -0.30486  0  4.019041  0
C  C79  1  0.59848856  0.99751461  0.49669183  1  0.074105  0  -0.04909  -0.304932  0  4.021551  0
C  C80  1  0.45548228  0.91444140  0.58013996  1  0.571047  0  0.074415  0.198784  0  4.057488  0
C  C81  1  0.55000019  0.08110672  0.41363318  1  0.561097  0  0.073935  0.198195  0  4.055895  0
C  C82  1  0.55002798  0.91442302  0.58017877  1  0.565433  0  0.074669  0.199199  0  4.055874  0
C  C83  1  0.45545845  0.08114657  0.41355575  1  0.566116  0  0.074579  0.198973  0  4.056261  0
O  O84  1  0.92197142  0.73934299  0.57278887  1  -1.185505  0  -0.354221  -0.630872  0  2.321482  0
O  O85  1  0.26560586  0.07368971  0.23826593  1  -1.182145  0  -0.35364  -0.628453  0  2.314392  0
O  O86  1  0.07251315  0.26660548  0.42146488  1  -1.1998  0  -0.352769  -0.626726  0  2.317729  0
O  O87  1  0.73971367  0.92189108  0.76598510  1  -1.187154  0  -0.35454  -0.630941  0  2.323634  0
O  O88  1  0.07237488  0.74336325  0.76279617  1  -1.168766  0  -0.364265  -0.628607  0  2.313489  0
O  O89  1  0.73924457  0.07400469  0.42091948  1  -1.19121  0  -0.356502  -0.632306  0  2.313768  0
O  O90  1  0.92019603  0.26580429  0.23885773  1  -1.172473  0  -0.353881  -0.616178  0  2.24598  0
O  O91  1  0.26609326  0.92165467  0.57301076  1  -1.186825  0  -0.356451  -0.634405  0  2.312969  0
O  O92  1  0.26620101  0.73934357  0.42028119  1  -1.193829  0  -0.35634  -0.633922  0  2.313448  0
O  O93  1  0.92065238  0.07512023  0.76539196  1  -1.19504  0  -0.358085  -0.635634  0  2.314778  0
O  O94  1  0.73904557  0.26632750  0.57388021  1  -1.190528  0  -0.355678  -0.632182  0  2.31707  0
O  O95  1  0.07386171  0.92108116  0.23871511  1  -1.187433  0  -0.355413  -0.631595  0  2.315032  0
O  O96  1  0.07240868  0.92243413  0.76579757  1  -1.197694  0  -0.352188  -0.626589  0  2.318778  0
O  O97  1  0.73961185  0.26670748  0.42120206  1  -1.185195  0  -0.354722  -0.630037  0  2.324087  0
O  O98  1  0.92174507  0.07343511  0.23876122  1  -1.184983  0  -0.354472  -0.62946  0  2.322699  0
O  O99  1  0.26571050  0.73916463  0.57285158  1  -1.184579  0  -0.35385  -0.628692  0  2.316304  0
O  O100  1  0.92045488  0.73965913  0.76504917  1  -1.169466  0  -0.353981  -0.616208  0  2.246559  0
O  O101  1  0.26612549  0.07396596  0.42062579  1  -1.195663  0  -0.355914  -0.633642  0  2.310521  0
O  O102  1  0.07211681  0.26348454  0.24261412  1  -1.164157  0  -0.363939  -0.628393  0  2.312282  0
O  O103  1  0.73928794  0.92158584  0.57321849  1  -1.189156  0  -0.356861  -0.633011  0  2.313857  0
O  O104  1  0.73912238  0.07453975  0.76568080  1  -1.192116  0  -0.355973  -0.632595  0  2.316654  0
O  O105  1  0.07409776  0.73927509  0.42045174  1  -1.194312  0  -0.355923  -0.63273  0  2.314498  0
O  O106  1  0.26617744  0.92101460  0.23857516  1  -1.188189  0  -0.356132  -0.633049  0  2.313096  0
O  O107  1  0.92074543  0.26621301  0.57414788  1  -1.193934  0  -0.357096  -0.634728  0  2.314763  0
O  O108  1  0.79878391  0.06740242  0.56667952  1  -1.236912  0  -0.696357  -1.066441  0  2.351552  0
O  O109  1  0.06700916  0.06734995  0.56652857  1  -1.236376  0  -0.696678  -1.068047  0  2.355694  0
O  O110  1  0.06690203  0.06670279  0.29883018  1  -1.251692  0  -0.698041  -1.069277  0  2.368259  0
O  O111  1  0.06701116  0.79959708  0.56602375  1  -1.242634  0  -0.697706  -1.069396  0  2.368499  0
O  O112  1  0.14800453  0.95097816  0.45024806  1  -1.190545  0  -0.794337  -1.144254  0  2.137173  0
O  O113  1  0.95038419  0.95112096  0.45036323  1  -1.194431  0  -0.793554  -1.141261  0  2.135469  0
O  O114  1  0.95053183  0.14806412  0.45034714  1  -1.186171  0  -0.795574  -1.144437  0  2.151354  0
O  O115  1  0.95063262  0.95112944  0.64728759  1  -1.189863  0  -0.794843  -1.143658  0  2.151399  0
O  O116  1  0.15705440  0.42015278  0.32780343  1  -1.11435  0  -0.339113  -0.389044  0  2.288711  0
O  O117  1  0.83953869  0.58444625  0.66830957  1  -1.134777  0  -0.343267  -0.402975  0  2.298022  0
O  O118  1  0.15962128  0.59247826  0.32944378  1  -1.121158  0  -0.338782  -0.385736  0  2.291794  0
O  O119  1  0.83717570  0.41102343  0.66726091  1  -1.1207  0  -0.343333  -0.391483  0  2.287857  0
O  O120  1  0.41049915  0.16685206  0.08513753  1  -1.103868  0  -0.338957  -0.389539  0  2.28778  0
O  O121  1  0.59736415  0.82693655  0.92018861  1  -1.127331  0  -0.341692  -0.402998  0  2.300028  0
O  O122  1  0.58664320  0.16568031  0.91235190  1  -1.11286  0  -0.339766  -0.387134  0  2.292585  0
O  O123  1  0.42009653  0.82839625  0.09320374  1  -1.110302  0  -0.343427  -0.392777  0  2.28976  0
O  O124  1  0.83670206  0.16782719  0.91064307  1  -1.110652  0  -0.342975  -0.390732  0  2.29037  0
O  O125  1  0.15919367  0.83003762  0.09201867  1  -1.115226  0  -0.339565  -0.385966  0  2.291219  0
O  O126  1  0.83902787  0.16884256  0.08408526  1  -1.110167  0  -0.343067  -0.400878  0  2.302918  0
O  O127  1  0.15669612  0.82849472  0.91960234  1  -1.106966  0  -0.338878  -0.389501  0  2.289009  0
O  O128  1  0.42011934  0.59401955  0.32763557  1  -1.108292  0  -0.342931  -0.392409  0  2.291802  0
O  O129  1  0.58635606  0.41279438  0.66525831  1  -1.115732  0  -0.339037  -0.386369  0  2.292228  0
O  O130  1  0.59730630  0.42096166  0.32623249  1  -1.112727  0  -0.34217  -0.402263  0  2.303711  0
O  O131  1  0.41031481  0.58569422  0.66633758  1  -1.097679  0  -0.338362  -0.387689  0  2.290198  0
O  O132  1  0.41528952  0.83301527  0.66206374  1  -1.105985  0  -0.3403  -0.388547  0  2.288596  0
O  O133  1  0.58977235  0.16307246  0.33230780  1  -1.108184  0  -0.341443  -0.389632  0  2.289168  0
O  O134  1  0.58981893  0.83299978  0.66211374  1  -1.107675  0  -0.341551  -0.389783  0  2.288157  0
O  O135  1  0.41525190  0.16314003  0.33215882  1  -1.118883  0  -0.339797  -0.387965  0  2.288671  0
F  F136  1  0.15911746  0.41695885  0.09025140  1  -0.608217  0  -0.076195  -0.088101  0  1.403908  0
F  F137  1  0.15922581  0.59071461  0.91659006  1  -0.605769  0  -0.07614  -0.088411  0  1.402743  0
