# generated using pymatgen
data_CuH12C13N6ClOF2
_symmetry_space_group_name_H-M   'P 1'
_cell_length_a   7.50322367
_cell_length_b   14.23775961
_cell_length_c   14.47301110
_cell_angle_alpha   104.35279829
_cell_angle_beta   90.00000220
_cell_angle_gamma   89.99990282
_symmetry_Int_Tables_number   1
_chemical_formula_structural   CuH12C13N6ClOF2
_chemical_formula_sum   'Cu4 H48 C52 N24 Cl4 O4 F8'
_cell_volume   1497.88014658
_cell_formula_units_Z   4
loop_
 _symmetry_equiv_pos_site_id
 _symmetry_equiv_pos_as_xyz
  1  'x, y, z'
loop_
 _atom_site_type_symbol
 _atom_site_label
 _atom_site_symmetry_multiplicity
 _atom_site_fract_x
 _atom_site_fract_y
 _atom_site_fract_z
 _atom_site_occupancy
 _atom_site_hle17_bader_spin_density
 _atom_site_hle17_ddec_charge
 _atom_site_hle17_ddec_spin_density
 _atom_site_hle17_ddec_sum_bond_order
 _atom_site_hle17_magmom
 _atom_site_hse06_10hf_bader_spin_density
 _atom_site_hse06_10hf_ddec_charge
 _atom_site_hse06_10hf_ddec_spin_density
 _atom_site_hse06_10hf_ddec_sum_bond_order
 _atom_site_hse06_10hf_magmom
 _atom_site_hse06_bader_spin_density
 _atom_site_hse06_ddec_charge
 _atom_site_hse06_ddec_spin_density
 _atom_site_hse06_ddec_sum_bond_order
 _atom_site_hse06_magmom
 _atom_site_pbe_bader_spin_density
 _atom_site_pbe_cm5_charge
 _atom_site_pbe_ddec_charge
 _atom_site_pbe_ddec_spin_density
 _atom_site_pbe_ddec_sum_bond_order
 _atom_site_pbe_magmom
Cu  Cu0  1  0.16867928  0.99748996  0.88857524  1  0  0.46316  0  1.81231  0  0  0.337215  0  2.302074  0  0  0.348317  0  2.252393  0  0  0.43099  0.332156  0  2.334304  0
Cu  Cu1  1  0.66867979  0.50250959  0.11142311  1  0  0.463093  0  1.8124  0  0  0.337185  0  2.302205  0  0  0.348297  0  2.252567  0  0  0.430987  0.332114  0  2.334478  0
Cu  Cu2  1  0.83132268  0.00250955  0.11142430  1  0  0.463134  0  1.812326  0  0  0.337213  0  2.302087  0  0  0.348296  0  2.252382  0  0  0.431007  0.332148  0  2.334371  0
Cu  Cu3  1  0.33131818  0.49748921  0.88857557  1  0  0.463094  0  1.812327  0  0  0.337182  0  2.302116  0  0  0.348272  0  2.252463  0  0  0.430982  0.332114  0  2.334373  0
H  H4  1  0.12176634  0.82779272  0.17748735  1  0  0.359467  0  0.928018  0  0  0.333996  0  1.009602  0  0  0.34362  0  0.999156  0  0  0.263998  0.327156  0  1.016969  0
H  H5  1  0.62176506  0.67220687  0.82251239  1  0  0.359445  0  0.928068  0  0  0.333991  0  1.009613  0  0  0.343603  0  0.999214  0  0  0.264009  0.32715  0  1.016985  0
H  H6  1  0.87823429  0.17220753  0.82251168  1  0  0.359465  0  0.928  0  0  0.333993  0  1.009586  0  0  0.343608  0  0.999182  0  0  0.264021  0.327149  0  1.016957  0
H  H7  1  0.37823691  0.32779264  0.17748854  1  0  0.359449  0  0.928065  0  0  0.333993  0  1.009616  0  0  0.343604  0  0.999214  0  0  0.263998  0.32715  0  1.01699  0
H  H8  1  0.27957027  0.14445872  0.07972101  1  0  0.100696  0  0.942639  0  0  0.106265  0  1.008492  0  0  0.108911  0  1.005798  0  0  0.1269  0.1042  0  1.01069  0
H  H9  1  0.77957241  0.35554082  0.92027767  1  0  0.100717  0  0.942679  0  0  0.106283  0  1.00852  0  0  0.108929  0  1.005836  0  0  0.126883  0.104211  0  1.010715  0
H  H10  1  0.72043036  0.85554152  0.92027941  1  0  0.100697  0  0.942676  0  0  0.106266  0  1.008521  0  0  0.108913  0  1.005837  0  0  0.126895  0.104195  0  1.010723  0
H  H11  1  0.22042823  0.64445797  0.07972100  1  0  0.100695  0  0.942708  0  0  0.106261  0  1.008546  0  0  0.108909  0  1.00586  0  0  0.126886  0.104191  0  1.010748  0
H  H12  1  0.33159079  0.84031352  0.01159297  1  0  0.117523  0  0.932988  0  0  0.124139  0  0.999509  0  0  0.127233  0  0.99609  0  0  0.132043  0.121673  0  1.002236  0
H  H13  1  0.83158690  0.65968587  0.98840811  1  0  0.11752  0  0.93299  0  0  0.124155  0  0.999492  0  0  0.127249  0  0.996081  0  0  0.132052  0.121737  0  1.00217  0
H  H14  1  0.66841384  0.15968745  0.98840763  1  0  0.117499  0  0.932973  0  0  0.124128  0  0.999489  0  0  0.127221  0  0.996073  0  0  0.13205  0.121713  0  1.002161  0
H  H15  1  0.16841107  0.34031293  0.01159126  1  0  0.117524  0  0.933015  0  0  0.124134  0  0.999548  0  0  0.127227  0  0.996137  0  0  0.132041  0.12167  0  1.00227  0
H  H16  1  0.92381252  0.67530110  0.23296834  1  0  0.100924  0  0.960021  0  0  0.1033  0  1.032061  0  0  0.106595  0  1.027937  0  0  0.129063  0.100687  0  1.035267  0
H  H17  1  0.42381389  0.82469748  0.76702977  1  0  0.100948  0  0.96  0  0  0.103321  0  1.032041  0  0  0.106625  0  1.027914  0  0  0.129069  0.100709  0  1.035241  0
H  H18  1  0.07618411  0.32469843  0.76702844  1  0  0.100918  0  0.960038  0  0  0.103291  0  1.032082  0  0  0.106588  0  1.027963  0  0  0.129059  0.100676  0  1.035289  0
H  H19  1  0.57618541  0.17530348  0.23297151  1  0  0.10095  0  0.960002  0  0  0.10332  0  1.032048  0  0  0.106544  0  1.028149  0  0  0.129074  0.100705  0  1.035258  0
H  H20  1  0.36782756  0.63308952  0.23589165  1  0  0.103306  0  0.981116  0  0  0.107629  0  1.053962  0  0  0.110103  0  1.050463  0  0  0.135576  0.105482  0  1.056307  0
H  H21  1  0.86782964  0.86690984  0.76410734  1  0  0.103358  0  0.981084  0  0  0.107679  0  1.053926  0  0  0.110153  0  1.050429  0  0  0.135594  0.105532  0  1.056265  0
H  H22  1  0.63216907  0.36690927  0.76410909  1  0  0.103328  0  0.981071  0  0  0.107629  0  1.053928  0  0  0.110092  0  1.050466  0  0  0.135537  0.105477  0  1.056259  0
H  H23  1  0.13217099  0.13309041  0.23589169  1  0  0.103356  0  0.981109  0  0  0.107668  0  1.05396  0  0  0.110129  0  1.050476  0  0  0.135579  0.105517  0  1.056316  0
H  H24  1  0.56658563  0.94814037  0.24531373  1  0  0.108068  0  0.930252  0  0  0.115296  0  1.006123  0  0  0.118592  0  1.001371  0  0  0.115232  0.112762  0  1.009787  0
H  H25  1  0.06658521  0.55186144  0.75468725  1  0  0.108009  0  0.93031  0  0  0.115219  0  1.006203  0  0  0.11902  0  1.000766  0  0  0.115196  0.112685  0  1.009865  0
H  H26  1  0.43341367  0.05186059  0.75468755  1  0  0.107998  0  0.930331  0  0  0.115217  0  1.0062  0  0  0.119022  0  1.00075  0  0  0.11519  0.112687  0  1.009852  0
H  H27  1  0.93341543  0.44813807  0.24531299  1  0  0.108014  0  0.930297  0  0  0.115225  0  1.006162  0  0  0.119025  0  1.000729  0  0  0.115192  0.112691  0  1.00982  0
H  H28  1  0.52348833  0.83538579  0.16352948  1  0  0.112449  0  0.921135  0  0  0.123402  0  0.986001  0  0  0.124884  0  0.985204  0  0  0.119474  0.122319  0  0.986418  0
H  H29  1  0.02348622  0.66461534  0.83647202  1  0  0.11246  0  0.921072  0  0  0.123412  0  0.98595  0  0  0.124895  0  0.98517  0  0  0.119487  0.122333  0  0.986362  0
H  H30  1  0.47651230  0.16461590  0.83647198  1  0  0.11251  0  0.92109  0  0  0.123474  0  0.98592  0  0  0.124945  0  0.985163  0  0  0.119507  0.122394  0  0.986335  0
H  H31  1  0.97651441  0.33538345  0.16352872  1  0  0.112453  0  0.921069  0  0  0.123429  0  0.985893  0  0  0.124904  0  0.985125  0  0  0.11949  0.122346  0  0.986304  0
H  H32  1  0.49050245  0.88198097  0.39689801  1  0  0.10809  0  0.928135  0  0  0.115185  0  0.999035  0  0  0.117519  0  0.995237  0  0  0.11775  0.113507  0  1.000825  0
H  H33  1  0.99050130  0.61801754  0.60310216  1  0  0.108109  0  0.928115  0  0  0.115204  0  0.999016  0  0  0.117992  0  0.994652  0  0  0.117765  0.11353  0  1.000804  0
H  H34  1  0.50949819  0.11801782  0.60310205  1  0  0.108095  0  0.928099  0  0  0.115196  0  0.999011  0  0  0.117777  0  0.995131  0  0  0.117766  0.11352  0  1.000798  0
H  H35  1  0.00950066  0.38198125  0.39689858  1  0  0.10808  0  0.928085  0  0  0.11518  0  0.998994  0  0  0.117947  0  0.994666  0  0  0.117745  0.113501  0  1.00078  0
H  H36  1  0.31049995  0.79732554  0.38199811  1  0  0.113038  0  0.924622  0  0  0.122099  0  0.991546  0  0  0.123809  0  0.98924  0  0  0.116649  0.120766  0  0.992533  0
H  H37  1  0.81049987  0.70267459  0.61800107  1  0  0.113054  0  0.924599  0  0  0.122109  0  0.991531  0  0  0.124168  0  0.988792  0  0  0.116644  0.120779  0  0.992514  0
H  H38  1  0.68949935  0.20267470  0.61800230  1  0  0.113063  0  0.924572  0  0  0.122134  0  0.991498  0  0  0.124172  0  0.988803  0  0  0.11666  0.120802  0  0.992477  0
H  H39  1  0.18950076  0.29732420  0.38199829  1  0  0.113035  0  0.924619  0  0  0.122094  0  0.991554  0  0  0.124151  0  0.988811  0  0  0.116632  0.120749  0  0.992551  0
H  H40  1  0.27656887  0.17930930  0.49632678  1  0  0.159119  0  0.954909  0  0  0.158067  0  1.03006  0  0  0.16396  0  1.024572  0  0  0.10984  0.154109  0  1.033781  0
H  H41  1  0.77656973  0.32069024  0.50367466  1  0  0.159036  0  0.955  0  0  0.157986  0  1.030154  0  0  0.164031  0  1.024202  0  0  0.109819  0.15404  0  1.033857  0
H  H42  1  0.72343443  0.82069094  0.50367364  1  0  0.159084  0  0.954927  0  0  0.158031  0  1.030078  0  0  0.164072  0  1.024177  0  0  0.109837  0.15409  0  1.033775  0
H  H43  1  0.22342957  0.67930928  0.49632557  1  0  0.159201  0  0.954873  0  0  0.158107  0  1.030071  0  0  0.163737  0  1.024688  0  0  0.109862  0.154169  0  1.033775  0
H  H44  1  0.78612741  0.03021825  0.39835377  1  0  0.130893  0  0.94797  0  0  0.136621  0  1.012457  0  0  0.140422  0  1.010399  0  0  0.104071  0.13382  0  1.014173  0
H  H45  1  0.28612830  0.46978419  0.60164494  1  0  0.130936  0  0.947903  0  0  0.136666  0  1.012395  0  0  0.141173  0  1.009588  0  0  0.104072  0.133866  0  1.014118  0
H  H46  1  0.21387322  0.96978489  0.60164736  1  0  0.130913  0  0.947889  0  0  0.136616  0  1.012414  0  0  0.141133  0  1.009651  0  0  0.104052  0.133821  0  1.014131  0
H  H47  1  0.71387233  0.53021750  0.39835514  1  0  0.130929  0  0.947933  0  0  0.136628  0  1.012457  0  0  0.141156  0  1.009636  0  0  0.104073  0.133833  0  1.01417  0
H  H48  1  0.95740973  0.89590919  0.29444035  1  0  0.105432  0  0.986089  0  0  0.107079  0  1.060122  0  0  0.111113  0  1.056067  0  0  0.101271  0.104042  0  1.063394  0
H  H49  1  0.45741047  0.60409299  0.70555797  1  0  0.105412  0  0.986071  0  0  0.107056  0  1.060099  0  0  0.111097  0  1.056091  0  0  0.101257  0.10402  0  1.063384  0
H  H50  1  0.04258824  0.10409323  0.70555923  1  0  0.105399  0  0.986086  0  0  0.10705  0  1.060102  0  0  0.111104  0  1.056055  0  0  0.101254  0.104016  0  1.063381  0
H  H51  1  0.54259150  0.39590798  0.29444263  1  0  0.105407  0  0.986074  0  0  0.107058  0  1.060101  0  0  0.111095  0  1.056094  0  0  0.101253  0.104022  0  1.063374  0
C  C52  1  0.30843932  0.07127632  0.08505634  1  0  0.18858  0  3.717463  0  0  0.137881  0  4.005807  0  0  0.149036  0  4.016881  0  0  0.1392  0.130485  0  3.998692  0
C  C53  1  0.80843988  0.42872247  0.91494215  1  0  0.18843  0  3.717636  0  0  0.137763  0  4.005946  0  0  0.14892  0  4.017046  0  0  0.139161  0.130384  0  3.998807  0
C  C54  1  0.69156265  0.92872319  0.91494389  1  0  0.188505  0  3.717592  0  0  0.137849  0  4.005889  0  0  0.149006  0  4.016977  0  0  0.13918  0.130469  0  3.998762  0
C  C55  1  0.19156075  0.57127705  0.08505670  1  0  0.188418  0  3.717531  0  0  0.137765  0  4.005835  0  0  0.148918  0  4.016928  0  0  0.139146  0.130386  0  3.998712  0
C  C56  1  0.33183590  0.91699123  0.04801395  1  0  0.180158  0  3.611024  0  0  0.106163  0  3.87376  0  0  0.120565  0  3.883318  0  0  0.161902  0.096771  0  3.867614  0
C  C57  1  0.83183358  0.58300816  0.95198574  1  0  0.180172  0  3.610872  0  0  0.106158  0  3.873624  0  0  0.120555  0  3.883226  0  0  0.161941  0.096724  0  3.86746  0
C  C58  1  0.66816740  0.08300974  0.95198595  1  0  0.180179  0  3.610918  0  0  0.106248  0  3.873696  0  0  0.120642  0  3.883288  0  0  0.161967  0.096819  0  3.867528  0
C  C59  1  0.16816572  0.41698918  0.04801327  1  0  0.180122  0  3.61099  0  0  0.106184  0  3.873763  0  0  0.120583  0  3.883352  0  0  0.161967  0.096793  0  3.86762  0
C  C60  1  0.78267183  0.68779193  0.24716105  1  0  0.202238  0  3.67906  0  0  0.148526  0  3.968204  0  0  0.161185  0  3.974709  0  0  0.137718  0.140655  0  3.961508  0
C  C61  1  0.28267324  0.81220679  0.75283709  1  0  0.202176  0  3.679159  0  0  0.148454  0  3.968295  0  0  0.161146  0  3.974739  0  0  0.137734  0.140584  0  3.961598  0
C  C62  1  0.21732480  0.31220687  0.75283693  1  0  0.202246  0  3.679165  0  0  0.14853  0  3.96831  0  0  0.161208  0  3.974784  0  0  0.137736  0.140658  0  3.961621  0
C  C63  1  0.71732606  0.18779345  0.24716332  1  0  0.202202  0  3.679265  0  0  0.148489  0  3.968397  0  0  0.161038  0  3.975209  0  0  0.137734  0.140616  0  3.961707  0
C  C64  1  0.50096229  0.66334367  0.24637005  1  0  0.164292  0  3.637737  0  0  0.09081  0  3.896349  0  0  0.116651  0  3.910685  0  0  0.151446  0.081012  0  3.889531  0
C  C65  1  0.00096362  0.83665604  0.75362833  1  0  0.164109  0  3.637806  0  0  0.090646  0  3.8964  0  0  0.116491  0  3.910749  0  0  0.151414  0.080848  0  3.889583  0
C  C66  1  0.49903434  0.33665512  0.75362931  1  0  0.163984  0  3.63787  0  0  0.090596  0  3.896383  0  0  0.116393  0  3.910807  0  0  0.151377  0.080814  0  3.889536  0
C  C67  1  0.99903701  0.16334493  0.24637088  1  0  0.164089  0  3.637833  0  0  0.090618  0  3.896466  0  0  0.116418  0  3.910838  0  0  0.151412  0.080823  0  3.889631  0
C  C68  1  0.46138958  0.90213169  0.20533780  1  0  -0.126734  0  3.615134  0  0  -0.211992  0  3.874729  0  0  -0.208734  0  3.881794  0  0  -0.055568  -0.213834  0  3.869867  0
C  C69  1  0.96138853  0.59786902  0.79466292  1  0  -0.126605  0  3.6152  0  0  -0.211874  0  3.874831  0  0  -0.208339  0  3.881006  0  0  -0.055542  -0.213708  0  3.869966  0
C  C70  1  0.53861105  0.09786855  0.79466400  1  0  -0.126698  0  3.615183  0  0  -0.211905  0  3.874864  0  0  -0.208384  0  3.881042  0  0  -0.055561  -0.213746  0  3.870003  0
C  C71  1  0.03861344  0.40213049  0.20533732  1  0  -0.126655  0  3.615096  0  0  -0.21185  0  3.874782  0  0  -0.208328  0  3.880975  0  0  -0.055539  -0.213694  0  3.869913  0
C  C72  1  0.31966921  0.87493143  0.27231127  1  0  0.308816  0  3.58546  0  0  0.305373  0  3.839795  0  0  0.311756  0  3.850615  0  0  0.082116  0.301043  0  3.831338  0
C  C73  1  0.81966939  0.62507014  0.72768896  1  0  0.308577  0  3.585896  0  0  0.305153  0  3.840167  0  0  0.311712  0  3.850508  0  0  0.082086  0.300791  0  3.831795  0
C  C74  1  0.68033142  0.12506954  0.72768932  1  0  0.308502  0  3.585945  0  0  0.305094  0  3.840206  0  0  0.311638  0  3.850545  0  0  0.082074  0.300729  0  3.831843  0
C  C75  1  0.18033257  0.37493010  0.27231145  1  0  0.308623  0  3.585803  0  0  0.30519  0  3.840084  0  0  0.311735  0  3.85044  0  0  0.082045  0.300827  0  3.831695  0
C  C76  1  0.41441790  0.82794556  0.34498714  1  0  -0.108376  0  3.580712  0  0  -0.185677  0  3.829429  0  0  -0.172969  0  3.841864  0  0  -0.047257  -0.186833  0  3.823317  0
C  C77  1  0.91441926  0.67205448  0.65501202  1  0  -0.108388  0  3.580743  0  0  -0.185674  0  3.829482  0  0  -0.17282  0  3.841185  0  0  -0.047226  -0.186824  0  3.823367  0
C  C78  1  0.58558007  0.17205468  0.65501327  1  0  -0.108308  0  3.580652  0  0  -0.185638  0  3.829454  0  0  -0.172862  0  3.841384  0  0  -0.047236  -0.186788  0  3.823335  0
C  C79  1  0.08558271  0.32794504  0.34498752  1  0  -0.108363  0  3.580697  0  0  -0.185651  0  3.829424  0  0  -0.172797  0  3.84113  0  0  -0.047217  -0.186803  0  3.82331  0
C  C80  1  0.21512335  0.96107044  0.33201395  1  0  -0.131493  0  3.711627  0  0  -0.129173  0  3.960441  0  0  -0.135041  0  3.985271  0  0  -0.031004  -0.125633  0  3.944562  0
C  C81  1  0.71512380  0.53893123  0.66798699  1  0  -0.131403  0  3.7116  0  0  -0.129107  0  3.96043  0  0  -0.134459  0  3.983901  0  0  -0.031031  -0.125552  0  3.944549  0
C  C82  1  0.78487462  0.03893125  0.66798751  1  0  -0.131442  0  3.71157  0  0  -0.129127  0  3.960416  0  0  -0.134427  0  3.983712  0  0  -0.031041  -0.125576  0  3.944544  0
C  C83  1  0.28487550  0.46106973  0.33201360  1  0  -0.131494  0  3.711631  0  0  -0.129168  0  3.960474  0  0  -0.134502  0  3.983904  0  0  -0.031006  -0.125605  0  3.944569  0
C  C84  1  0.29796655  0.04223446  0.39088318  1  0  0.301508  0  3.751793  0  0  0.28095  0  4.038323  0  0  0.291892  0  4.049924  0  0  0.097137  0.27312  0  4.031107  0
C  C85  1  0.79796832  0.45776652  0.60911724  1  0  0.301567  0  3.751815  0  0  0.281025  0  4.038339  0  0  0.293935  0  4.047795  0  0  0.097178  0.273187  0  4.031115  0
C  C86  1  0.70203275  0.95776578  0.60911724  1  0  0.301584  0  3.751868  0  0  0.28098  0  4.038464  0  0  0.294056  0  4.047745  0  0  0.097151  0.273151  0  4.031239  0
C  C87  1  0.20203232  0.54223445  0.39088266  1  0  0.301566  0  3.751887  0  0  0.28097  0  4.03847  0  0  0.293919  0  4.047831  0  0  0.09713  0.273134  0  4.031251  0
C  C88  1  0.20697887  0.11813343  0.45079424  1  0  -0.307233  0  3.752784  0  0  -0.348925  0  4.029678  0  0  -0.355642  0  4.044236  0  0  -0.116774  -0.344256  0  4.019736  0
C  C89  1  0.70698088  0.38186762  0.54920758  1  0  -0.307137  0  3.752765  0  0  -0.348843  0  4.029646  0  0  -0.354786  0  4.042322  0  0  -0.116729  -0.344187  0  4.019708  0
C  C90  1  0.79301776  0.88186898  0.54920810  1  0  -0.30718  0  3.752803  0  0  -0.34886  0  4.029698  0  0  -0.355022  0  4.042827  0  0  -0.116749  -0.344188  0  4.019725  0
C  C91  1  0.29301709  0.61813262  0.45079283  1  0  -0.307271  0  3.752761  0  0  -0.348944  0  4.029643  0  0  -0.354916  0  4.042617  0  0  -0.116767  -0.344276  0  4.019699  0
C  C92  1  0.02250351  0.11122850  0.45109942  1  0  0.339673  0  3.792636  0  0  0.324736  0  4.079197  0  0  0.337695  0  4.088815  0  0  0.095965  0.316524  0  4.071651  0
C  C93  1  0.52250149  0.38877273  0.54890106  1  0  0.339583  0  3.792647  0  0  0.324675  0  4.079187  0  0  0.337626  0  4.089002  0  0  0.095899  0.31643  0  4.071673  0
C  C94  1  0.97749846  0.88877318  0.54890205  1  0  0.339631  0  3.792598  0  0  0.324722  0  4.079127  0  0  0.336641  0  4.090583  0  0  0.09598  0.316528  0  4.071559  0
C  C95  1  0.47749647  0.61122824  0.45109884  1  0  0.339557  0  3.792667  0  0  0.324719  0  4.079101  0  0  0.337741  0  4.088754  0  0  0.095939  0.316514  0  4.071571  0
C  C96  1  0.93069327  0.03302908  0.39566200  1  0  -0.194524  0  3.759854  0  0  -0.226919  0  4.028747  0  0  -0.233177  0  4.048457  0  0  -0.107758  -0.222652  0  4.015569  0
C  C97  1  0.43069550  0.46697322  0.60433736  1  0  -0.194506  0  3.759907  0  0  -0.226921  0  4.028785  0  0  -0.233036  0  4.047877  0  0  -0.10769  -0.222653  0  4.015616  0
C  C98  1  0.06930336  0.96697406  0.60433982  1  0  -0.194493  0  3.760025  0  0  -0.226897  0  4.028919  0  0  -0.233239  0  4.048446  0  0  -0.107714  -0.222629  0  4.015745  0
C  C99  1  0.56930513  0.53302774  0.39566254  1  0  -0.194547  0  3.759901  0  0  -0.226955  0  4.028786  0  0  -0.233073  0  4.047845  0  0  -0.107742  -0.22269  0  4.01561  0
C  C100  1  0.02867416  0.95844992  0.33678768  1  0  -0.038984  0  3.731225  0  0  -0.062086  0  3.992379  0  0  -0.059871  0  4.009659  0  0  -0.083668  -0.063847  0  3.981471  0
C  C101  1  0.52867194  0.54155122  0.66321037  1  0  -0.039024  0  3.731188  0  0  -0.062101  0  3.992342  0  0  -0.059753  0  4.009557  0  0  -0.083678  -0.063872  0  3.981464  0
C  C102  1  0.97132914  0.04155033  0.66321067  1  0  -0.039037  0  3.731326  0  0  -0.062091  0  3.99243  0  0  -0.059554  0  4.009446  0  0  -0.083678  -0.063858  0  3.981541  0
C  C103  1  0.47132870  0.45844903  0.33678935  1  0  -0.038944  0  3.731124  0  0  -0.062057  0  3.992307  0  0  -0.059703  0  4.009521  0  0  -0.083668  -0.063821  0  3.981406  0
N  N104  1  0.38835022  0.95268283  0.13835089  1  0  0.048061  0  3.572449  0  0  0.169223  0  3.75914  0  0  0.158335  0  3.7836  0  0  -0.138625  0.176072  0  3.743056  0
N  N105  1  0.88834801  0.54731723  0.86164897  1  0  0.04801  0  3.572548  0  0  0.169198  0  3.759229  0  0  0.158329  0  3.78369  0  0  -0.138619  0.176042  0  3.743159  0
N  N106  1  0.61165174  0.04731741  0.86164952  1  0  0.048168  0  3.572459  0  0  0.169122  0  3.759401  0  0  0.158254  0  3.783858  0  0  -0.138677  0.175964  0  3.743334  0
N  N107  1  0.11165129  0.45268229  0.13835127  1  0  0.048147  0  3.572567  0  0  0.169133  0  3.759475  0  0  0.158264  0  3.783935  0  0  -0.138653  0.175983  0  3.743386  0
N  N108  1  0.37396985  0.05135054  0.16315526  1  0  -0.28303  0  2.88921  0  0  -0.276279  0  3.161925  0  0  -0.285966  0  3.175175  0  0  -0.224724  -0.269708  0  3.153212  0
N  N109  1  0.87397034  0.44864964  0.83684358  1  0  -0.282933  0  2.889333  0  0  -0.276193  0  3.162039  0  0  -0.285766  0  3.174996  0  0  -0.224673  -0.269622  0  3.153312  0
N  N110  1  0.62602945  0.94865043  0.83684533  1  0  -0.283044  0  2.889319  0  0  -0.276237  0  3.162066  0  0  -0.285803  0  3.175018  0  0  -0.224679  -0.269666  0  3.153343  0
N  N111  1  0.12603029  0.55134915  0.16315579  1  0  -0.28298  0  2.889327  0  0  -0.276197  0  3.162092  0  0  -0.285758  0  3.175039  0  0  -0.224677  -0.269633  0  3.153376  0
N  N112  1  0.27994742  0.99091805  0.01237008  1  0  -0.382392  0  3.348789  0  0  -0.31516  0  3.680142  0  0  -0.329963  0  3.681845  0  0  -0.381136  -0.30607  0  3.679305  0
N  N113  1  0.77994534  0.50908067  0.98762945  1  0  -0.382269  0  3.348747  0  0  -0.315059  0  3.680131  0  0  -0.329869  0  3.681863  0  0  -0.381135  -0.305972  0  3.679319  0
N  N114  1  0.72005721  0.00908220  0.98762965  1  0  -0.382333  0  3.348715  0  0  -0.315151  0  3.680103  0  0  -0.329944  0  3.681796  0  0  -0.381152  -0.306069  0  3.679308  0
N  N115  1  0.22005263  0.49091740  0.01236974  1  0  -0.382216  0  3.348682  0  0  -0.31503  0  3.680053  0  0  -0.329822  0  3.681769  0  0  -0.381116  -0.305947  0  3.679234  0
N  N116  1  0.53832876  0.75219027  0.30077749  1  0  0.046544  0  3.582054  0  0  0.168503  0  3.760132  0  0  0.125387  0  3.826808  0  0  -0.145002  0.175578  0  3.743029  0
N  N117  1  0.03832903  0.74780940  0.69922158  1  0  0.046648  0  3.581962  0  0  0.168555  0  3.760095  0  0  0.125334  0  3.827049  0  0  -0.145022  0.17563  0  3.742989  0
N  N118  1  0.46166921  0.24780924  0.69922205  1  0  0.046684  0  3.582088  0  0  0.16858  0  3.760213  0  0  0.125426  0  3.827028  0  0  -0.145012  0.175648  0  3.743103  0
N  N119  1  0.96167027  0.25219085  0.30077815  1  0  0.046684  0  3.581964  0  0  0.168589  0  3.76011  0  0  0.12544  0  3.826932  0  0  -0.145012  0.175661  0  3.742993  0
N  N120  1  0.71759301  0.76906368  0.30241395  1  0  -0.272206  0  2.846977  0  0  -0.267509  0  3.112416  0  0  -0.26648  0  3.132602  0  0  -0.223819  -0.261268  0  3.10299  0
N  N121  1  0.21759201  0.73093583  0.69758370  1  0  -0.272211  0  2.847022  0  0  -0.267505  0  3.112485  0  0  -0.266438  0  3.132662  0  0  -0.223831  -0.261264  0  3.103069  0
N  N122  1  0.28240629  0.23093585  0.69758422  1  0  -0.272225  0  2.847077  0  0  -0.267523  0  3.11254  0  0  -0.266459  0  3.132641  0  0  -0.223821  -0.261286  0  3.103124  0
N  N123  1  0.78240729  0.26906441  0.30241602  1  0  -0.272249  0  2.847054  0  0  -0.26755  0  3.112525  0  0  -0.266507  0  3.132689  0  0  -0.22385  -0.261311  0  3.103102  0
N  N124  1  0.65332220  0.62023786  0.21042318  1  0  -0.383616  0  3.388129  0  0  -0.309872  0  3.726432  0  0  -0.324194  0  3.722293  0  0  -0.394294  -0.300766  0  3.726323  0
N  N125  1  0.15332340  0.87976025  0.78957482  1  0  -0.383502  0  3.388192  0  0  -0.309718  0  3.726416  0  0  -0.324023  0  3.722219  0  0  -0.394259  -0.300615  0  3.726289  0
N  N126  1  0.34667443  0.37976093  0.78957550  1  0  -0.383431  0  3.388125  0  0  -0.309695  0  3.726361  0  0  -0.324024  0  3.72224  0  0  -0.394187  -0.3006  0  3.726245  0
N  N127  1  0.84667457  0.12023999  0.21042491  1  0  -0.383499  0  3.388281  0  0  -0.309717  0  3.7265  0  0  -0.324069  0  3.722402  0  0  -0.39425  -0.300621  0  3.726407  0
Cl  Cl128  1  0.09006243  0.15333042  0.91094079  1  0  -0.618927  0  1.018049  0  0  -0.549149  0  1.322487  0  0  -0.566774  0  1.294023  0  0  -0.345237  -0.536312  0  1.341348  0
Cl  Cl129  1  0.59006316  0.34666929  0.08906070  1  0  -0.61892  0  1.018051  0  0  -0.549169  0  1.32249  0  0  -0.566802  0  1.294048  0  0  -0.345244  -0.536331  0  1.341361  0
Cl  Cl130  1  0.90994087  0.84666982  0.08905825  1  0  -0.618913  0  1.018037  0  0  -0.549136  0  1.322468  0  0  -0.566745  0  1.293988  0  0  -0.345239  -0.5363  0  1.341346  0
Cl  Cl131  1  0.40993614  0.65332949  0.91094074  1  0  -0.618925  0  1.018049  0  0  -0.549164  0  1.322482  0  0  -0.566785  0  1.294024  0  0  -0.345248  -0.536322  0  1.341343  0
O  O132  1  0.20615812  0.80187610  0.21853098  1  0  -0.57482  0  2.036054  0  0  -0.529062  0  2.258227  0  0  -0.545594  0  2.248531  0  0  -0.392825  -0.517162  0  2.264399  0
O  O133  1  0.70615674  0.69812340  0.78146874  1  0  -0.574752  0  2.03624  0  0  -0.528993  0  2.258388  0  0  -0.545547  0  2.248689  0  0  -0.392831  -0.517083  0  2.264577  0
O  O134  1  0.79384118  0.19812341  0.78146926  1  0  -0.574741  0  2.036168  0  0  -0.528986  0  2.258344  0  0  -0.545558  0  2.248656  0  0  -0.392847  -0.517072  0  2.264527  0
O  O135  1  0.29384389  0.30187539  0.21853131  1  0  -0.574741  0  2.036223  0  0  -0.528948  0  2.258317  0  0  -0.54552  0  2.248633  0  0  -0.392776  -0.517041  0  2.2645  0
F  F136  1  0.48103052  0.04829798  0.39294483  1  0  -0.220439  0  1.2161  0  0  -0.152174  0  1.372187  0  0  -0.162219  0  1.361906  0  0  -0.090257  -0.144909  0  1.379174  0
F  F137  1  0.98102964  0.45170136  0.60705588  1  0  -0.220473  0  1.216163  0  0  -0.152215  0  1.372248  0  0  -0.169193  0  1.369663  0  0  -0.090276  -0.144951  0  1.379235  0
F  F138  1  0.51897144  0.95170008  0.60705643  1  0  -0.220475  0  1.216152  0  0  -0.152191  0  1.372252  0  0  -0.16915  0  1.369725  0  0  -0.09025  -0.144922  0  1.379234  0
F  F139  1  0.01897232  0.54829888  0.39294385  1  0  -0.220442  0  1.216169  0  0  -0.152164  0  1.372264  0  0  -0.169129  0  1.369708  0  0  -0.090245  -0.1449  0  1.379252  0
F  F140  1  0.92960950  0.18575240  0.50909190  1  0  -0.219275  0  1.20893  0  0  -0.158522  0  1.369101  0  0  -0.170272  0  1.360027  0  0  -0.090437  -0.150741  0  1.375192  0
F  F141  1  0.42960954  0.31424845  0.49090849  1  0  -0.219263  0  1.20891  0  0  -0.158526  0  1.369079  0  0  -0.170298  0  1.360104  0  0  -0.090432  -0.150635  0  1.375074  0
F  F142  1  0.07039380  0.81424928  0.49091026  1  0  -0.219254  0  1.208898  0  0  -0.158507  0  1.369067  0  0  -0.169537  0  1.360166  0  0  -0.090436  -0.15076  0  1.37518  0
F  F143  1  0.57039110  0.68575253  0.50909072  1  0  -0.219249  0  1.208977  0  0  -0.158518  0  1.369114  0  0  -0.17018  0  1.359979  0  0  -0.090419  -0.150743  0  1.375215  0
