# generated using pymatgen
data_CuH6C8S2N4Cl
_symmetry_space_group_name_H-M   'P 1'
_cell_length_a   6.56997347
_cell_length_b   10.25351931
_cell_length_c   10.25363686
_cell_angle_alpha   107.24715211
_cell_angle_beta   106.12578296
_cell_angle_gamma   106.12712283
_symmetry_Int_Tables_number   1
_chemical_formula_structural   CuH6C8S2N4Cl
_chemical_formula_sum   'Cu2 H12 C16 S4 N8 Cl2'
_cell_volume   582.86458672
_cell_formula_units_Z   2
loop_
 _symmetry_equiv_pos_site_id
 _symmetry_equiv_pos_as_xyz
  1  'x, y, z'
loop_
 _atom_site_type_symbol
 _atom_site_label
 _atom_site_symmetry_multiplicity
 _atom_site_fract_x
 _atom_site_fract_y
 _atom_site_fract_z
 _atom_site_occupancy
 _atom_site_pbe_bader_spin_density
 _atom_site_pbe_cm5_charge
 _atom_site_pbe_ddec_charge
 _atom_site_pbe_ddec_spin_density
 _atom_site_pbe_ddec_sum_bond_order
 _atom_site_pbe_magmom
Cu  Cu0  1  0.00000700  0.89744289  0.10257452  1  0  0.50834  0.425293  0  2.546632  0
Cu  Cu1  1  0.00000467  0.10257215  0.89741775  1  0  0.508435  0.425462  0  2.547002  0
H  H2  1  0.47930027  0.81689594  0.95524428  1  0  0.106443  0.091393  0  1.03697  0
H  H3  1  0.52070892  0.04477758  0.18310874  1  0  0.106421  0.091334  0  1.03704  0
H  H4  1  0.52068744  0.18304291  0.04475465  1  0  0.106378  0.091307  0  1.036752  0
H  H5  1  0.47931524  0.95523432  0.81695554  1  0  0.106378  0.091274  0  1.036724  0
H  H6  1  0.16030245  0.57781221  0.75769116  1  0  0.10623  0.126139  0  1.000126  0
H  H7  1  0.83973224  0.24231546  0.42219182  1  0  0.106297  0.126325  0  1.000052  0
H  H8  1  0.83957089  0.42217716  0.24229244  1  0  0.106137  0.126042  0  1.0004  0
H  H9  1  0.16041133  0.75771711  0.57780671  1  0  0.106182  0.1261  0  1.000489  0
H  H10  1  0.26075587  0.34933034  0.68605703  1  0  0.105515  0.072154  0  1.03956  0
H  H11  1  0.73924961  0.31392505  0.65066683  1  0  0.1055  0.072087  0  1.039632  0
H  H12  1  0.73924714  0.65071213  0.31395814  1  0  0.105671  0.072318  0  1.03949  0
H  H13  1  0.26072696  0.68605396  0.34926832  1  0  0.10573  0.072411  0  1.039426  0
C  C14  1  0.50659569  0.71424970  0.91898270  1  0  0.062021  0.15748  0  3.885112  0
C  C15  1  0.49341018  0.08104197  0.28575784  1  0  0.061951  0.157419  0  3.885599  0
C  C16  1  0.49340159  0.28572196  0.08100914  1  0  0.061989  0.157496  0  3.88545  0
C  C17  1  0.50659386  0.91897211  0.71426962  1  0  0.061963  0.157597  0  3.885619  0
C  C18  1  0.33185184  0.58168522  0.80943048  1  0  -0.097035  -0.204333  0  3.981081  0
C  C19  1  0.66817516  0.19058356  0.41830554  1  0  -0.097081  -0.204529  0  3.980799  0
C  C20  1  0.66806042  0.41829855  0.19053637  1  0  -0.09692  -0.204185  0  3.981175  0
C  C21  1  0.33192440  0.80945731  0.58169513  1  0  -0.097049  -0.204457  0  3.981096  0
C  C22  1  0.38610443  0.45728743  0.77208744  1  0  0.057768  0.144092  0  3.938863  0
C  C23  1  0.61390686  0.22790703  0.54271600  1  0  0.057797  0.144265  0  3.938478  0
C  C24  1  0.61393425  0.54275635  0.22793515  1  0  0.057557  0.143978  0  3.937763  0
C  C25  1  0.38604960  0.77206691  0.45722872  1  0  0.057586  0.143958  0  3.937648  0
C  C26  1  0.75321524  0.59277419  0.94478103  1  0  0.225913  0.308969  0  4.075524  0
C  C27  1  0.24679267  0.05522941  0.40723087  1  0  0.225839  0.308935  0  4.075659  0
C  C28  1  0.24685216  0.40722955  0.05524589  1  0  0.225817  0.308924  0  4.07557  0
C  C29  1  0.75313969  0.94475225  0.59277088  1  0  0.225795  0.308883  0  4.07565  0
S  S30  1  0.03303348  0.61809516  0.04590181  1  0  0.030901  -0.063993  0  2.819427  0
S  S31  1  0.96695280  0.95410445  0.38190016  1  0  0.030902  -0.063974  0  2.819186  0
S  S32  1  0.96707223  0.38190127  0.95412429  1  0  0.030881  -0.063772  0  2.819704  0
S  S33  1  0.03292950  0.04586982  0.61810242  1  0  0.030879  -0.063801  0  2.819667  0
N  N34  1  0.71904862  0.72120315  0.98478621  1  0  -0.372988  -0.287389  0  3.660518  0
N  N35  1  0.28096343  0.01523632  0.27879769  1  0  -0.372924  -0.287378  0  3.660693  0
N  N36  1  0.28095822  0.27876834  0.01521402  1  0  -0.372858  -0.28744  0  3.660723  0
N  N37  1  0.71902432  0.98477424  0.72122878  1  0  -0.37279  -0.287427  0  3.660828  0
N  N38  1  0.59637676  0.46178014  0.84061374  1  0  -0.313393  -0.297182  0  3.300987  0
N  N39  1  0.40362904  0.15938071  0.53821229  1  0  -0.31342  -0.297231  0  3.30133  0
N  N40  1  0.40363159  0.53824447  0.15940229  1  0  -0.313339  -0.297184  0  3.300863  0
N  N41  1  0.59634747  0.84060504  0.46175337  1  0  -0.313399  -0.297153  0  3.301095  0
Cl  Cl42  1  0.13582416  0.90323233  0.90322806  1  0  -0.331016  -0.520104  0  1.402934  0
Cl  Cl43  1  0.86418389  0.09678188  0.09676596  1  0  -0.331003  -0.520104  0  1.4029  0
