# generated using pymatgen
data_Zn2H13C43N2Cl11O8
_symmetry_space_group_name_H-M   'P 1'
_cell_length_a   17.04228126
_cell_length_b   17.81742968
_cell_length_c   32.71845496
_cell_angle_alpha   90.10950182
_cell_angle_beta   91.00589674
_cell_angle_gamma   89.90435885
_symmetry_Int_Tables_number   1
_chemical_formula_structural   Zn2H13C43N2Cl11O8
_chemical_formula_sum   'Zn4 H26 C86 N4 Cl22 O16'
_cell_volume   9933.38485854
_cell_formula_units_Z   2
loop_
 _symmetry_equiv_pos_site_id
 _symmetry_equiv_pos_as_xyz
  1  'x, y, z'
loop_
 _atom_site_type_symbol
 _atom_site_label
 _atom_site_symmetry_multiplicity
 _atom_site_fract_x
 _atom_site_fract_y
 _atom_site_fract_z
 _atom_site_occupancy
 _atom_site_pbe_bader_charge
 _atom_site_pbe_bader_spin_density
 _atom_site_pbe_cm5_charge
 _atom_site_pbe_ddec_charge
 _atom_site_pbe_ddec_spin_density
 _atom_site_pbe_ddec_sum_bond_order
 _atom_site_pbe_magmom
Zn  Zn0  1  0.58092285  0.49518827  0.49768518  1  1.316854  0  0.669947  0.899467  0  2.26827  0
Zn  Zn1  1  0.40475405  0.49078283  0.49983770  1  1.33705  0  0.669661  0.899383  0  2.284163  0
Zn  Zn2  1  0.41924942  0.49821201  0.96509698  1  1.319268  0  0.670634  0.900259  0  2.271208  0
Zn  Zn3  1  0.59557518  0.49270206  0.96245134  1  1.300371  0  0.670126  0.900229  0  2.28384  0
H  H4  1  0.12292040  0.58332198  0.54114345  1  0.110599  0  0.121044  0.146808  0  0.97659  0
H  H5  1  0.12434224  0.41471825  0.44559320  1  0.121219  0  0.121871  0.148221  0  0.974188  0
H  H6  1  0.86561847  0.56136383  0.54825005  1  0.115203  0  0.121193  0.147234  0  0.974329  0
H  H7  1  0.85699517  0.44087449  0.43309430  1  0.095494  0  0.121133  0.147083  0  0.975272  0
H  H8  1  0.56918166  0.88224154  0.54602638  1  0.091813  0  0.110334  0.130955  0  0.984644  0
H  H9  1  0.38077140  0.85791897  0.45703449  1  0.097668  0  0.109143  0.129935  0  0.987005  0
H  H10  1  0.51890401  0.11103961  0.42947290  1  0.093698  0  0.110411  0.130985  0  0.984858  0
H  H11  1  0.45272406  0.12239354  0.55638508  1  0.1065  0  0.11116  0.130883  0  0.985066  0
H  H12  1  0.61172900  0.41694471  0.70212176  1  0.100995  0  0.103634  0.118575  0  1.001425  0
H  H13  1  0.38697818  0.41826716  0.76058227  1  0.084762  0  0.103462  0.118251  0  1.00173  0
H  H14  1  0.62207288  0.51482340  0.83431591  1  0.118768  0  0.099336  0.103492  0  1.017126  0
H  H15  1  0.61787618  0.51646497  0.75809717  1  0.062603  0  0.103082  0.106174  0  0.997178  0
H  H16  1  0.37680275  0.51314910  0.62795304  1  0.075928  0  0.09884  0.103503  0  1.018669  0
H  H17  1  0.38100068  0.51627930  0.70415840  1  0.086146  0  0.102869  0.106635  0  0.996185  0
H  H18  1  0.46217091  0.68100528  0.15045998  1  0.102693  0  0.110773  0.13123  0  0.984762  0
H  H19  1  0.56165797  0.46358158  0.17925743  1  0.114712  0  0.110051  0.130058  0  0.984427  0
H  H20  1  0.44106600  0.46154108  0.28301428  1  0.107191  0  0.110351  0.130827  0  0.984475  0
H  H21  1  0.53592836  0.68045413  0.31248714  1  0.110904  0  0.110501  0.130776  0  0.984827  0
H  H22  1  0.87760098  0.58618592  0.92251940  1  0.11796  0  0.120869  0.146812  0  0.976052  0
H  H23  1  0.87567173  0.41500636  0.01633074  1  0.128017  0  0.122035  0.148192  0  0.973493  0
H  H24  1  0.13363526  0.56320639  0.91538735  1  0.092833  0  0.121074  0.146723  0  0.974582  0
H  H25  1  0.14427341  0.44444987  0.03080086  1  0.105784  0  0.121365  0.147852  0  0.974757  0
H  H26  1  0.43240299  0.88443432  0.91588189  1  0.083423  0  0.110452  0.130975  0  0.984481  0
H  H27  1  0.61805372  0.86075895  0.00655279  1  0.087881  0  0.109356  0.130077  0  0.986915  0
H  H28  1  0.48032644  0.11447752  0.03303185  1  0.092633  0  0.110646  0.131391  0  0.984882  0
H  H29  1  0.54624984  0.12407266  0.90607140  1  0.109737  0  0.110842  0.130714  0  0.983955  0
C  C30  1  0.49890951  0.63698176  0.50670562  1  1.649039  0  0.208634  0.618997  0  4.172245  0
C  C31  1  0.48507056  0.47207609  0.57619153  1  1.604105  0  0.210394  0.609869  0  4.163881  0
C  C32  1  0.50838984  0.34958113  0.49120719  1  1.612572  0  0.209104  0.620394  0  4.193607  0
C  C33  1  0.47718275  0.52027545  0.42178577  1  1.634227  0  0.210759  0.619604  0  4.188853  0
C  C34  1  0.50153048  0.63956024  0.95622740  1  1.641593  0  0.208538  0.618626  0  4.171824  0
C  C35  1  0.51425688  0.47471883  0.88625950  1  1.587395  0  0.210127  0.610165  0  4.162552  0
C  C36  1  0.49080685  0.35222774  0.97097391  1  1.604037  0  0.208961  0.619649  0  4.194529  0
C  C37  1  0.52472419  0.52229115  0.04070194  1  1.633558  0  0.210208  0.620327  0  4.187205  0
C  C38  1  0.23441007  0.53878825  0.52278514  1  0.548715  0  0.155926  0.308253  0  4.051878  0
C  C39  1  0.15294017  0.54477441  0.52092603  1  0.095394  0  -0.080498  -0.246358  0  3.890562  0
C  C40  1  0.11114129  0.49992393  0.49273755  1  0.069406  0  0.024985  0.216869  0  4.103136  0
C  C41  1  0.15369598  0.45109651  0.46770354  1  0.125238  0  -0.079338  -0.242488  0  3.886556  0
C  C42  1  0.23513545  0.44933743  0.47197184  1  0.591077  0  0.155556  0.308916  0  4.051468  0
C  C43  1  0.02818515  0.50252883  0.49041687  1  -0.037083  0  -0.019925  -0.078037  0  4.041941  0
C  C44  1  0.95668358  0.50300085  0.48952939  1  -0.263331  0  -0.018996  -0.074096  0  4.041444  0
C  C45  1  0.87370496  0.50183435  0.49031524  1  0.055572  0  0.025131  0.214437  0  4.1082  0
C  C46  1  0.83398557  0.53411021  0.52322446  1  0.041462  0  -0.080465  -0.24337  0  3.890464  0
C  C47  1  0.75248641  0.52958686  0.52367403  1  0.637371  0  0.155506  0.309177  0  4.054773  0
C  C48  1  0.74776714  0.46545358  0.46248045  1  0.625453  0  0.157953  0.313278  0  4.040544  0
C  C49  1  0.82921084  0.46692025  0.45920290  1  0.107562  0  -0.080132  -0.244151  0  3.886417  0
C  C50  1  0.48878541  0.72121637  0.50589822  1  0.016125  0  -0.021146  -0.143002  0  3.884775  0
C  C51  1  0.53674865  0.76941282  0.52958154  1  0.018491  0  0.019976  0.155553  0  4.034835  0
C  C52  1  0.53079404  0.84711152  0.52726421  1  0.046243  0  -0.093064  -0.207438  0  3.930691  0
C  C53  1  0.47563185  0.88019162  0.50033049  1  0.154826  0  0.002532  0.175102  0  4.129737  0
C  C54  1  0.42487689  0.83362468  0.47749557  1  0.048279  0  -0.093527  -0.209431  0  3.936324  0
C  C55  1  0.43089771  0.75585391  0.48089567  1  0.039205  0  0.018846  0.146191  0  4.040149  0
C  C56  1  0.47327908  0.95950824  0.49663991  1  -0.019383  0  -0.043834  -0.102977  0  4.093566  0
C  C57  1  0.47724004  0.02771688  0.49434751  1  -0.322245  0  -0.041157  -0.098381  0  4.09654  0
C  C58  1  0.48451198  0.10698966  0.49299685  1  0.036509  0  0.000633  0.169328  0  4.129197  0
C  C59  1  0.50772004  0.14334876  0.45702952  1  0.067219  0  -0.092851  -0.207444  0  3.929623  0
C  C60  1  0.51696564  0.22101206  0.45704238  1  0.040626  0  0.017747  0.147743  0  4.045503  0
C  C61  1  0.50292750  0.26488335  0.49179907  1  0.130126  0  -0.017775  -0.131598  0  3.903704  0
C  C62  1  0.47956145  0.22734147  0.52728591  1  -0.009627  0  0.019604  0.143576  0  4.048924  0
C  C63  1  0.47055894  0.14977665  0.52834974  1  0.070782  0  -0.091421  -0.205785  0  3.933509  0
C  C64  1  0.49149679  0.46625945  0.62193210  1  -0.038218  0  -0.021849  -0.088437  0  3.91803  0
C  C65  1  0.50740483  0.46850349  0.84054812  1  0.052321  0  -0.022272  -0.091617  0  3.921266  0
C  C66  1  0.55758632  0.43871530  0.64359557  1  -0.000117  0  0.019049  0.147716  0  4.015966  0
C  C67  1  0.56043022  0.44008272  0.68626609  1  0.063657  0  -0.098039  -0.208899  0  3.963579  0
C  C68  1  0.44117030  0.44098484  0.81901110  1  0.047681  0  0.018914  0.148098  0  4.016334  0
C  C69  1  0.43831219  0.44151951  0.77633919  1  -0.016724  0  -0.097487  -0.207499  0  3.965025  0
C  C70  1  0.57069754  0.49422257  0.81750875  1  -0.006465  0  -0.08316  -0.069505  0  3.985428  0
C  C71  1  0.56840312  0.49457198  0.77505576  1  -0.085367  0  -0.095851  -0.144214  0  3.995787  0
C  C72  1  0.42816679  0.49267016  0.64484161  1  -0.071257  0  -0.083968  -0.072026  0  3.98754  0
C  C73  1  0.43044113  0.49381704  0.68729653  1  -0.043801  0  -0.095322  -0.145093  0  3.993064  0
C  C74  1  0.49736591  0.46796133  0.70866052  1  0.059392  0  -0.002604  0.094282  0  4.006476  0
C  C75  1  0.50145245  0.46852974  0.75381625  1  -0.044311  0  -0.003137  0.09079  0  4.011262  0
C  C76  1  0.52294476  0.54201001  0.08559431  1  0.017523  0  -0.018088  -0.134607  0  3.902972  0
C  C77  1  0.49162626  0.61034464  0.09947206  1  0.099826  0  0.019413  0.145361  0  4.044682  0
C  C78  1  0.48682934  0.62750239  0.14093730  1  0.049588  0  -0.092691  -0.20823  0  3.932842  0
C  C79  1  0.51169377  0.57442798  0.17015645  1  -0.004308  0  0.001824  0.170664  0  4.1303  0
C  C80  1  0.54295927  0.50545742  0.15695454  1  0.027562  0  -0.092689  -0.204532  0  3.93035  0
C  C81  1  0.54836581  0.49044521  0.11541675  1  0.06941  0  0.017011  0.147583  0  4.046887  0
C  C82  1  0.50318676  0.58536819  0.21279606  1  -0.331863  0  -0.043864  -0.10254  0  4.096379  0
C  C83  1  0.49672395  0.58480379  0.24986778  1  0.019898  0  -0.043596  -0.102117  0  4.096062  0
C  C84  1  0.48869792  0.57315075  0.29245098  1  0.074919  0  0.001561  0.171043  0  4.13018  0
C  C85  1  0.45909105  0.50355323  0.30543521  1  0.011992  0  -0.09285  -0.205757  0  3.931322  0
C  C86  1  0.45438726  0.48816787  0.34694202  1  0.036487  0  0.017111  0.146901  0  4.047449  0
C  C87  1  0.47877691  0.53999012  0.37691472  1  0.095215  0  -0.018516  -0.133448  0  3.901499  0
C  C88  1  0.50843118  0.60892654  0.36324315  1  0.026499  0  0.018894  0.144329  0  4.045202  0
C  C89  1  0.51260443  0.62642897  0.32184270  1  0.063119  0  -0.091626  -0.207273  0  3.933306  0
C  C90  1  0.76606337  0.54082748  0.93991401  1  0.586505  0  0.156334  0.309344  0  4.051534  0
C  C91  1  0.84747818  0.54702195  0.94222278  1  0.109705  0  -0.080214  -0.246717  0  3.891225  0
C  C92  1  0.88909838  0.50157779  0.97015433  1  0.057973  0  0.024862  0.216317  0  4.104711  0
C  C93  1  0.84645566  0.45191932  0.99446241  1  0.089249  0  -0.079912  -0.242788  0  3.886323  0
C  C94  1  0.76511131  0.44991200  0.98976501  1  0.584931  0  0.155855  0.310169  0  4.051148  0
C  C95  1  0.97201628  0.50431748  0.97291688  1  -0.027127  0  -0.020108  -0.077971  0  4.041137  0
C  C96  1  0.04351472  0.50484268  0.97419437  1  -0.271281  0  -0.018185  -0.07334  0  4.039543  0
C  C97  1  0.12651997  0.50431921  0.97342863  1  0.114911  0  0.024284  0.214312  0  4.106515  0
C  C98  1  0.16570130  0.53647537  0.94040729  1  0.039192  0  -0.080265  -0.242426  0  3.88849  0
C  C99  1  0.24726252  0.53265976  0.93988144  1  0.642999  0  0.15437  0.306904  0  4.056132  0
C  C100  1  0.25303418  0.46929907  0.00117383  1  0.601199  0  0.157207  0.31264  0  4.041586  0
C  C101  1  0.17160444  0.47028876  0.00457812  1  0.066049  0  -0.079925  -0.245278  0  3.885888  0
C  C102  1  0.51164380  0.72375483  0.95700079  1  -0.033789  0  -0.020271  -0.140382  0  3.88455  0
C  C103  1  0.46441402  0.77172092  0.93279433  1  0.107427  0  0.019354  0.154375  0  4.036824  0
C  C104  1  0.47028416  0.84943561  0.93501316  1  0.020872  0  -0.092961  -0.20718  0  3.931007  0
C  C105  1  0.52454277  0.88267756  0.96238797  1  0.094693  0  0.003153  0.175749  0  4.129315  0
C  C106  1  0.57463172  0.83629621  0.98574548  1  0.095786  0  -0.094176  -0.210009  0  3.936707  0
C  C107  1  0.56874280  0.75849534  0.98242854  1  0.03662  0  0.018668  0.145388  0  4.041662  0
C  C108  1  0.52652153  0.96200598  0.96606128  1  -0.05705  0  -0.043754  -0.103901  0  4.094328  0
C  C109  1  0.52219013  0.03022749  0.96826912  1  -0.283115  0  -0.041244  -0.096826  0  4.096331  0
C  C110  1  0.51453388  0.10951801  0.96948862  1  0.135356  0  0.000315  0.167428  0  4.1335  0
C  C111  1  0.49137588  0.14640821  0.00540168  1  -0.006959  0  -0.092695  -0.207565  0  3.932535  0
C  C112  1  0.48217017  0.22410998  0.00528522  1  0.038099  0  0.017164  0.147075  0  4.043182  0
C  C113  1  0.49610909  0.26751248  0.97043523  1  0.102556  0  -0.017292  -0.130227  0  3.901415  0
C  C114  1  0.51941630  0.22945771  0.93500877  1  0.058548  0  0.01903  0.143269  0  4.050537  0
C  C115  1  0.52838429  0.15186452  0.93406752  1  0.032477  0  -0.090958  -0.2055  0  3.934225  0
N  N116  1  0.27620119  0.49243226  0.49875667  1  -1.185054  0  -0.299895  -0.307623  0  3.367705  0
N  N117  1  0.70873479  0.49635490  0.49395823  1  -1.166808  0  -0.300569  -0.307458  0  3.362921  0
N  N118  1  0.72418041  0.49370663  0.96329155  1  -1.159546  0  -0.300243  -0.30929  0  3.367548  0
N  N119  1  0.29153476  0.49999623  0.96955970  1  -1.160819  0  -0.299125  -0.305497  0  3.36424  0
Cl  Cl120  1  0.28358085  0.59327515  0.55780434  1  -0.124011  0  0.057102  -0.012804  0  1.540306  0
Cl  Cl121  1  0.28573567  0.38869018  0.44181403  1  -0.114758  0  0.053799  -0.013354  0  1.586963  0
Cl  Cl122  1  0.70529978  0.56709806  0.56440901  1  -0.116794  0  0.057625  -0.010777  0  1.633199  0
Cl  Cl123  1  0.69510247  0.42107076  0.42478885  1  -0.110794  0  0.052822  -0.013989  0  1.557177  0
Cl  Cl124  1  0.60459860  0.73346336  0.56437093  1  -0.20535  0  -0.024788  -0.090653  0  1.511482  0
Cl  Cl125  1  0.36484222  0.70351209  0.45200746  1  -0.189538  0  -0.014799  -0.073619  0  1.550706  0
Cl  Cl126  1  0.54519086  0.26428512  0.41225574  1  -0.199293  0  -0.019886  -0.086803  0  1.507787  0
Cl  Cl127  1  0.46142086  0.27812252  0.57122986  1  -0.195417  0  -0.002291  -0.058881  0  1.508422  0
Cl  Cl128  1  0.45569085  0.67529304  0.06464359  1  -0.189353  0  -0.005487  -0.063544  0  1.531389  0
Cl  Cl129  1  0.58335706  0.40329553  0.10083427  1  -0.198297  0  -0.017077  -0.083366  0  1.539852  0
Cl  Cl130  1  0.42131514  0.40043524  0.36134687  1  -0.201215  0  -0.016565  -0.08231  0  1.541948  0
Cl  Cl131  1  0.54285367  0.67430019  0.39832690  1  -0.187994  0  -0.004952  -0.063039  0  1.529979  0
Cl  Cl132  1  0.71704148  0.59583511  0.90513068  1  -0.120139  0  0.056234  -0.01332  0  1.535895  0
Cl  Cl133  1  0.71449240  0.38790349  0.01884758  1  -0.11787  0  0.054563  -0.012623  0  1.587739  0
Cl  Cl134  1  0.29385901  0.57045406  0.89915799  1  -0.113028  0  0.057622  -0.010722  0  1.632198  0
Cl  Cl135  1  0.30638930  0.42587329  0.03890001  1  -0.111359  0  0.052484  -0.014177  0  1.557498  0
Cl  Cl136  1  0.39777941  0.73537722  0.89747939  1  -0.199949  0  -0.024518  -0.090151  0  1.509171  0
Cl  Cl137  1  0.63391541  0.70617316  0.01187043  1  -0.191031  0  -0.014455  -0.073245  0  1.550007  0
Cl  Cl138  1  0.45446694  0.26804888  0.05009489  1  -0.208816  0  -0.019858  -0.086648  0  1.505045  0
Cl  Cl139  1  0.53764687  0.27968169  0.89099783  1  -0.195102  0  -0.002402  -0.059158  0  1.505471  0
Cl  Cl140  1  0.63643430  0.39752731  0.61944322  1  -0.201207  0  -0.030215  -0.098097  0  1.517383  0
Cl  Cl141  1  0.36219419  0.40076428  0.84332059  1  -0.20167  0  -0.030152  -0.097875  0  1.515902  0
O  O142  1  0.56711970  0.61132615  0.50025068  1  -1.147372  0  -0.31753  -0.550845  0  2.334623  0
O  O143  1  0.43729037  0.59952926  0.51322160  1  -1.166144  0  -0.320293  -0.566902  0  2.429025  0
O  O144  1  0.41631737  0.46640555  0.56052971  1  -1.155436  0  -0.324967  -0.560276  0  2.347888  0
O  O145  1  0.54787391  0.48495763  0.55715395  1  -1.17085  0  -0.320378  -0.568661  0  2.443947  0
O  O146  1  0.44294253  0.38301854  0.48766625  1  -1.164921  0  -0.317513  -0.565405  0  2.386414  0
O  O147  1  0.57593592  0.37868733  0.49455959  1  -1.150463  0  -0.31569  -0.544478  0  2.309321  0
O  O148  1  0.54355494  0.50581463  0.43790927  1  -1.164689  0  -0.314192  -0.55628  0  2.399124  0
O  O149  1  0.41087783  0.51964880  0.43874691  1  -1.147945  0  -0.315839  -0.551723  0  2.347865  0
O  O150  1  0.43323216  0.61425171  0.96256350  1  -1.143692  0  -0.31777  -0.551765  0  2.334726  0
O  O151  1  0.56318703  0.60184699  0.94983213  1  -1.167517  0  -0.320398  -0.566979  0  2.42636  0
O  O152  1  0.58324640  0.46923426  0.90168762  1  -1.151871  0  -0.324624  -0.559818  0  2.346613  0
O  O153  1  0.45164869  0.48759994  0.90551142  1  -1.170063  0  -0.320579  -0.568382  0  2.442379  0
O  O154  1  0.55641397  0.38531265  0.97412565  1  -1.15694  0  -0.317156  -0.565179  0  2.388832  0
O  O155  1  0.42328490  0.38171260  0.96803282  1  -1.147853  0  -0.316029  -0.544332  0  2.308217  0
O  O156  1  0.45830012  0.50838141  0.02452933  1  -1.159525  0  -0.314169  -0.557625  0  2.405408  0
O  O157  1  0.59104228  0.52100617  0.02374828  1  -1.147238  0  -0.315836  -0.551354  0  2.344208  0
