# generated using pymatgen
data_ZnH12C16(N5O2)2
_symmetry_space_group_name_H-M   'P 1'
_cell_length_a   5.52277674
_cell_length_b   9.58283994
_cell_length_c   17.53274352
_cell_angle_alpha   89.99901759
_cell_angle_beta   89.99878190
_cell_angle_gamma   92.42839542
_symmetry_Int_Tables_number   1
_chemical_formula_structural   ZnH12C16(N5O2)2
_chemical_formula_sum   'Zn2 H24 C32 N20 O8'
_cell_volume   927.06761375
_cell_formula_units_Z   2
loop_
 _symmetry_equiv_pos_site_id
 _symmetry_equiv_pos_as_xyz
  1  'x, y, z'
loop_
 _atom_site_type_symbol
 _atom_site_label
 _atom_site_symmetry_multiplicity
 _atom_site_fract_x
 _atom_site_fract_y
 _atom_site_fract_z
 _atom_site_occupancy
 _atom_site_hle17_bader_spin_density
 _atom_site_hle17_ddec_charge
 _atom_site_hle17_ddec_spin_density
 _atom_site_hle17_ddec_sum_bond_order
 _atom_site_hle17_magmom
 _atom_site_hse06_10hf_bader_spin_density
 _atom_site_hse06_10hf_ddec_charge
 _atom_site_hse06_10hf_ddec_spin_density
 _atom_site_hse06_10hf_ddec_sum_bond_order
 _atom_site_hse06_10hf_magmom
 _atom_site_hse06_bader_spin_density
 _atom_site_hse06_ddec_charge
 _atom_site_hse06_ddec_spin_density
 _atom_site_hse06_ddec_sum_bond_order
 _atom_site_hse06_magmom
 _atom_site_pbe_bader_spin_density
 _atom_site_pbe_cm5_charge
 _atom_site_pbe_ddec_charge
 _atom_site_pbe_ddec_spin_density
 _atom_site_pbe_ddec_sum_bond_order
 _atom_site_pbe_magmom
Zn  Zn0  1  0.15444951  0.10305712  0.89090521  1  0  0.877289  0  2.006054  0  0  0.663427  0  2.499213  0  0  0.702214  0  2.454211  0  0  0.778262  0.636537  0  2.530077  0
Zn  Zn1  1  0.15445002  0.60305105  0.10909990  1  0  0.877369  0  2.006048  0  0  0.663545  0  2.499117  0  0  0.702328  0  2.454111  0  0  0.778287  0.636644  0  2.529978  0
H  H2  1  0.74428349  0.84612958  0.07326956  1  0  0.117409  0  0.932899  0  0  0.129339  0  0.994152  0  0  0.130463  0  0.994594  0  0  0.107681  0.128574  0  0.993848  0
H  H3  1  0.74429228  0.34614807  0.92673621  1  0  0.117402  0  0.933161  0  0  0.129341  0  0.994351  0  0  0.130471  0  0.9948  0  0  0.107652  0.128565  0  0.994047  0
H  H4  1  0.76272749  0.99486776  0.01434875  1  0  0.118898  0  0.937975  0  0  0.124056  0  1.014213  0  0  0.126871  0  1.01132  0  0  0.108051  0.122002  0  1.016358  0
H  H5  1  0.76274301  0.49488538  0.98565491  1  0  0.118905  0  0.93803  0  0  0.12407  0  1.014247  0  0  0.126893  0  1.011357  0  0  0.108069  0.12201  0  1.016397  0
H  H6  1  0.67439463  0.16495815  0.10571805  1  0  0.10227  0  0.990283  0  0  0.105109  0  1.065898  0  0  0.108382  0  1.064545  0  0  0.102086  0.102779  0  1.06698  0
H  H7  1  0.67441671  0.66497358  0.89428021  1  0  0.102291  0  0.990004  0  0  0.10504  0  1.065767  0  0  0.108311  0  1.064419  0  0  0.102037  0.102715  0  1.066845  0
H  H8  1  0.82057733  0.32021350  0.21173333  1  0  0.114175  0  0.93847  0  0  0.120435  0  1.001929  0  0  0.124002  0  0.999533  0  0  0.111318  0.118032  0  1.0034  0
H  H9  1  0.82061852  0.82021671  0.78825680  1  0  0.114299  0  0.93858  0  0  0.12055  0  1.00198  0  0  0.124098  0  0.99961  0  0  0.111437  0.118151  0  1.003451  0
H  H10  1  0.39900671  0.04432264  0.25760506  1  0  0.120482  0  0.959235  0  0  0.118987  0  1.034483  0  0  0.123532  0  1.030545  0  0  0.111338  0.115662  0  1.037423  0
H  H11  1  0.39903208  0.54431376  0.74239160  1  0  0.120447  0  0.959311  0  0  0.118974  0  1.034542  0  0  0.123517  0  1.030613  0  0  0.11129  0.11565  0  1.037477  0
H  H12  1  0.26174892  0.89301100  0.15004669  1  0  0.086777  0  0.975936  0  0  0.094514  0  1.043471  0  0  0.097266  0  1.043091  0  0  0.096567  0.092533  0  1.043836  0
H  H13  1  0.26177464  0.39301527  0.84995894  1  0  0.086686  0  0.975955  0  0  0.094464  0  1.043495  0  0  0.097223  0  1.043093  0  0  0.096539  0.092489  0  1.043861  0
H  H14  1  0.10975967  0.18833780  0.70900586  1  0  0.123298  0  0.938206  0  0  0.131851  0  1.009022  0  0  0.134317  0  1.006738  0  0  0.109845  0.130031  0  1.010737  0
H  H15  1  0.10974412  0.68835820  0.29099131  1  0  0.123291  0  0.938367  0  0  0.131884  0  1.009154  0  0  0.134335  0  1.006911  0  0  0.109825  0.130074  0  1.010849  0
H  H16  1  0.92117806  0.32845267  0.69246719  1  0  0.130029  0  0.939721  0  0  0.139999  0  1.004787  0  0  0.141568  0  1.004427  0  0  0.111365  0.138953  0  1.004971  0
H  H17  1  0.92113657  0.82845581  0.30753417  1  0  0.129981  0  0.939779  0  0  0.139962  0  1.004806  0  0  0.141529  0  1.004458  0  0  0.11138  0.138916  0  1.004992  0
H  H18  1  0.51607212  0.03898861  0.65843244  1  0  0.09899  0  0.993693  0  0  0.099984  0  1.068798  0  0  0.103596  0  1.066998  0  0  0.09822  0.097274  0  1.070443  0
H  H19  1  0.51607911  0.53896873  0.34157377  1  0  0.099096  0  0.993635  0  0  0.100104  0  1.06873  0  0  0.103716  0  1.066927  0  0  0.098273  0.097394  0  1.070369  0
H  H20  1  0.40905637  0.94787754  0.53135307  1  0  0.114908  0  0.945924  0  0  0.11969  0  1.01216  0  0  0.123839  0  1.008513  0  0  0.112148  0.116712  0  1.014625  0
H  H21  1  0.40907015  0.44785346  0.46865563  1  0  0.114841  0  0.945964  0  0  0.119736  0  1.012069  0  0  0.123869  0  1.008461  0  0  0.112166  0.116762  0  1.014523  0
H  H22  1  0.04659457  0.15706863  0.43642823  1  0  0.114632  0  0.963337  0  0  0.116583  0  1.03348  0  0  0.120273  0  1.030597  0  0  0.107644  0.11381  0  1.035741  0
H  H23  1  0.04659574  0.65705510  0.56356909  1  0  0.114687  0  0.963469  0  0  0.116668  0  1.033559  0  0  0.120359  0  1.030676  0  0  0.107697  0.113893  0  1.035824  0
H  H24  1  0.15636980  0.24983891  0.56503936  1  0  0.113611  0  0.949319  0  0  0.124981  0  1.006954  0  0  0.127991  0  1.006199  0  0  0.1067  0.122799  0  1.007602  0
H  H25  1  0.15636424  0.74983478  0.43495693  1  0  0.113654  0  0.949248  0  0  0.125006  0  1.00691  0  0  0.128019  0  1.006149  0  0  0.106712  0.12283  0  1.007558  0
C  C26  1  0.06502500  0.86678284  0.00827444  1  0  0.375402  0  3.709604  0  0  0.347534  0  3.97261  0  0  0.361531  0  3.98841  0  0  0.236171  0.338494  0  3.961609  0
C  C27  1  0.06502823  0.36678668  0.99173045  1  0  0.375534  0  3.709901  0  0  0.347613  0  3.972902  0  0  0.361619  0  3.988707  0  0  0.236157  0.338574  0  3.961895  0
C  C28  1  0.86885461  0.93081710  0.05291768  1  0  -0.254552  0  3.698331  0  0  -0.293556  0  3.932965  0  0  -0.29584  0  3.941096  0  0  -0.145316  -0.291938  0  3.92718  0
C  C29  1  0.86886880  0.43082970  0.94708761  1  0  -0.254675  0  3.698891  0  0  -0.293544  0  3.933321  0  0  -0.295865  0  3.941504  0  0  -0.145277  -0.291918  0  3.927513  0
C  C30  1  0.95913660  0.01924979  0.11990099  1  0  0.136067  0  3.689651  0  0  0.151887  0  3.925342  0  0  0.154059  0  3.949611  0  0  0.002168  0.150723  0  3.90861  0
C  C31  1  0.95916459  0.51925837  0.88009794  1  0  0.135812  0  3.689772  0  0  0.151486  0  3.92569  0  0  0.15366  0  3.949976  0  0  0.002071  0.150339  0  3.908933  0
C  C32  1  0.83383740  0.13890960  0.13851115  1  0  -0.112978  0  3.694691  0  0  -0.130338  0  3.941962  0  0  -0.136037  0  3.964746  0  0  -0.089403  -0.126562  0  3.926432  0
C  C33  1  0.83386846  0.63891774  0.86148689  1  0  -0.112746  0  3.694484  0  0  -0.130033  0  3.941897  0  0  -0.135726  0  3.964683  0  0  -0.089332  -0.126259  0  3.926358  0
C  C34  1  0.91407336  0.22606095  0.19743679  1  0  -0.06627  0  3.714673  0  0  -0.096797  0  3.980189  0  0  -0.094639  0  3.996979  0  0  -0.074814  -0.097794  0  3.967873  0
C  C35  1  0.91410123  0.72606892  0.80255818  1  0  -0.066599  0  3.714836  0  0  -0.097099  0  3.980358  0  0  -0.094916  0  3.997132  0  0  -0.074903  -0.09809  0  3.968082  0
C  C36  1  0.11953877  0.19141295  0.23838751  1  0  0.073207  0  3.721245  0  0  0.05464  0  3.976602  0  0  0.055551  0  4.000724  0  0  0.076526  0.056762  0  3.96228  0
C  C37  1  0.11956685  0.69140971  0.76160443  1  0  0.073601  0  3.720942  0  0  0.055057  0  3.976266  0  0  0.055935  0  4.000349  0  0  0.076575  0.057111  0  3.962052  0
C  C38  1  0.24224634  0.07018272  0.22351723  1  0  -0.063431  0  3.691586  0  0  -0.088032  0  3.949147  0  0  -0.086276  0  3.966156  0  0  -0.069534  -0.088688  0  3.936878  0
C  C39  1  0.24227532  0.57018109  0.77647907  1  0  -0.063578  0  3.691726  0  0  -0.088178  0  3.949311  0  0  -0.086434  0  3.966334  0  0  -0.069511  -0.088807  0  3.937055  0
C  C40  1  0.16139992  0.98535628  0.16348144  1  0  -0.118109  0  3.712219  0  0  -0.136149  0  3.961622  0  0  -0.141869  0  3.984287  0  0  -0.091753  -0.132304  0  3.946042  0
C  C41  1  0.16143053  0.48536517  0.83651997  1  0  -0.117909  0  3.712379  0  0  -0.135993  0  3.961921  0  0  -0.141706  0  3.98459  0  0  -0.09176  -0.132166  0  3.946341  0
C  C42  1  0.76836990  0.17218621  0.76394442  1  0  0.366732  0  3.672416  0  0  0.345538  0  3.943419  0  0  0.356765  0  3.95912  0  0  0.238836  0.337984  0  3.932632  0
C  C43  1  0.76835644  0.67218332  0.23605773  1  0  0.366659  0  3.672772  0  0  0.345459  0  3.943794  0  0  0.356696  0  3.95948  0  0  0.238824  0.337906  0  3.933007  0
C  C44  1  0.92080860  0.21349885  0.69723995  1  0  -0.260608  0  3.694837  0  0  -0.301417  0  3.928938  0  0  -0.304547  0  3.9388  0  0  -0.14445  -0.299058  0  3.921997  0
C  C45  1  0.92079476  0.71350424  0.30276194  1  0  -0.260525  0  3.694925  0  0  -0.30136  0  3.929121  0  0  -0.304503  0  3.938979  0  0  -0.14442  -0.299008  0  3.922189  0
C  C46  1  0.84379113  0.15196055  0.62096208  1  0  0.159201  0  3.665944  0  0  0.172282  0  3.906599  0  0  0.175357  0  3.930146  0  0  0.012121  0.170424  0  3.89054  0
C  C47  1  0.84379092  0.65195198  0.37904034  1  0  0.159243  0  3.66586  0  0  0.172243  0  3.906681  0  0  0.175326  0  3.930222  0  0  0.012106  0.170384  0  3.89063  0
C  C48  1  0.63499635  0.06579697  0.61077367  1  0  -0.113084  0  3.711693  0  0  -0.135043  0  3.966888  0  0  -0.140723  0  3.988328  0  0  -0.08908  -0.131455  0  3.952339  0
C  C49  1  0.63500070  0.56578598  0.38922865  1  0  -0.113286  0  3.711777  0  0  -0.135232  0  3.967015  0  0  -0.140909  0  3.988446  0  0  -0.089142  -0.131641  0  3.952469  0
C  C50  1  0.57138818  0.01453568  0.53904889  1  0  -0.075463  0  3.731775  0  0  -0.10135  0  3.989201  0  0  -0.099815  0  4.008304  0  0  -0.075383  -0.101745  0  3.975251  0
C  C51  1  0.57139962  0.51451609  0.46095376  1  0  -0.075369  0  3.73171  0  0  -0.101338  0  3.989105  0  0  -0.099803  0  4.008208  0  0  -0.075433  -0.101735  0  3.97516  0
C  C52  1  0.71894547  0.05011527  0.47695129  1  0  0.053406  0  3.727764  0  0  0.045694  0  3.981332  0  0  0.040247  0  4.006403  0  0  0.072533  0.049363  0  3.96334  0
C  C53  1  0.71895081  0.55009575  0.52305064  1  0  0.053431  0  3.72769  0  0  0.04571  0  3.981273  0  0  0.040265  0  4.006344  0  0  0.072501  0.049373  0  3.963281  0
C  C54  1  0.93123618  0.13366324  0.48544573  1  0  -0.079412  0  3.723882  0  0  -0.102641  0  3.979213  0  0  -0.101432  0  3.998875  0  0  -0.078176  -0.103015  0  3.965224  0
C  C55  1  0.93122810  0.63365026  0.51455629  1  0  -0.079744  0  3.724127  0  0  -0.102963  0  3.979423  0  0  -0.101757  0  3.999089  0  0  -0.078352  -0.10333  0  3.965438  0
C  C56  1  0.99170116  0.18433063  0.55750246  1  0  -0.115187  0  3.686662  0  0  -0.135523  0  3.935102  0  0  -0.141951  0  3.958513  0  0  -0.08583  -0.131419  0  3.91921  0
C  C57  1  0.99169815  0.68431895  0.44249696  1  0  -0.11499  0  3.686394  0  0  -0.135341  0  3.934939  0  0  -0.141756  0  3.958326  0  0  -0.085726  -0.131244  0  3.919046  0
N  N58  1  0.17151729  0.92083706  0.94535878  1  0  -0.344495  0  3.208132  0  0  -0.269433  0  3.516857  0  0  -0.288373  0  3.527925  0  0  -0.246229  -0.256503  0  3.509035  0
N  N59  1  0.17151983  0.42083792  0.05464318  1  0  -0.344581  0  3.208232  0  0  -0.269437  0  3.516874  0  0  -0.288372  0  3.527932  0  0  -0.246213  -0.256502  0  3.509039  0
N  N60  1  0.34341876  0.83198583  0.92325029  1  0  -0.062667  0  2.958931  0  0  -0.061978  0  3.257533  0  0  -0.061032  0  3.27094  0  0  -0.086058  -0.062559  0  3.248559  0
N  N61  1  0.34341006  0.33197761  0.07675196  1  0  -0.062588  0  2.9589  0  0  -0.061929  0  3.257498  0  0  -0.060982  0  3.270904  0  0  -0.085994  -0.062502  0  3.248512  0
N  N62  1  0.34291869  0.72795315  0.97057653  1  0  -0.074528  0  2.971201  0  0  -0.069606  0  3.271159  0  0  -0.068889  0  3.284164  0  0  -0.089429  -0.070224  0  3.262851  0
N  N63  1  0.34290440  0.22794751  0.02942558  1  0  -0.074459  0  2.971292  0  0  -0.069547  0  3.271283  0  0  -0.06883  0  3.284287  0  0  -0.089436  -0.070173  0  3.262991  0
N  N64  1  0.17005567  0.74657201  0.02458187  1  0  -0.36659  0  3.217558  0  0  -0.293049  0  3.524353  0  0  -0.312099  0  3.536142  0  0  -0.251563  -0.280158  0  3.516386  0
N  N65  1  0.17005282  0.24657638  0.97542062  1  0  -0.366728  0  3.217716  0  0  -0.293204  0  3.524532  0  0  -0.312253  0  3.536316  0  0  -0.251641  -0.280323  0  3.516584  0
N  N66  1  0.20991034  0.28613241  0.29813269  1  0  0.471574  0  3.939474  0  0  0.531158  0  4.193966  0  0  0.536567  0  4.226383  0  0  0.058301  0.516688  0  4.189291  0
N  N67  1  0.20992381  0.78612066  0.70184749  1  0  0.471396  0  3.939771  0  0  0.530972  0  4.19427  0  0  0.536522  0  4.226488  0  0  0.058233  0.516518  0  4.189595  0
N  N68  1  0.47143042  0.13136049  0.83865437  1  0  -0.116249  0  3.337832  0  0  -0.050649  0  3.661584  0  0  -0.058503  0  3.670499  0  0  -0.126  -0.045464  0  3.65589  0
N  N69  1  0.47142727  0.63135376  0.16135125  1  0  -0.116265  0  3.337374  0  0  -0.05075  0  3.661229  0  0  -0.058604  0  3.670136  0  0  -0.125971  -0.045565  0  3.655536  0
N  N70  1  0.66454305  0.10074724  0.87784113  1  0  -0.080448  0  2.976648  0  0  -0.084473  0  3.267441  0  0  -0.080961  0  3.278025  0  0  -0.098393  -0.086638  0  3.260268  0
N  N71  1  0.66454232  0.60073657  0.12216408  1  0  -0.080386  0  2.9764  0  0  -0.084403  0  3.267218  0  0  -0.080892  0  3.277797  0  0  -0.098384  -0.086572  0  3.260046  0
N  N72  1  0.85429682  0.12543435  0.83159435  1  0  -0.339012  0  3.233981  0  0  -0.264064  0  3.544211  0  0  -0.281433  0  3.55384  0  0  -0.245093  -0.252221  0  3.537199  0
N  N73  1  0.85428804  0.62543157  0.16840882  1  0  -0.339151  0  3.234158  0  0  -0.264153  0  3.544301  0  0  -0.281518  0  3.553921  0  0  -0.245147  -0.252312  0  3.537292  0
N  N74  1  0.52641934  0.17683603  0.76814304  1  0  -0.263972  0  2.872866  0  0  -0.24861  0  3.140575  0  0  -0.257288  0  3.15287  0  0  -0.199621  -0.242904  0  3.132526  0
N  N75  1  0.52641381  0.67683850  0.23186121  1  0  -0.263936  0  2.873064  0  0  -0.248556  0  3.140813  0  0  -0.257231  0  3.153102  0  0  -0.199669  -0.242855  0  3.132765  0
N  N76  1  0.64879459  0.99881201  0.40156517  1  0  0.506284  0  3.901408  0  0  0.533406  0  4.201797  0  0  0.555246  0  4.209574  0  0  0.054888  0.51884  0  4.196519  0
N  N77  1  0.64880348  0.49879416  0.59844034  1  0  0.506315  0  3.901125  0  0  0.533462  0  4.201486  0  0  0.555303  0  4.209256  0  0  0.054943  0.518898  0  4.196204  0
O  O78  1  0.36356890  0.24395713  0.34349437  1  0  -0.346077  0  1.753998  0  0  -0.338867  0  1.944708  0  0  -0.345769  0  1.950023  0  0  -0.126754  -0.330195  0  1.946177  0
O  O79  1  0.36357920  0.74393328  0.65648749  1  0  -0.346014  0  1.75386  0  0  -0.338835  0  1.944619  0  0  -0.345775  0  1.949854  0  0  -0.126756  -0.330156  0  1.946073  0
O  O80  1  0.12949626  0.40561170  0.30029177  1  0  -0.362947  0  1.763333  0  0  -0.35264  0  1.958504  0  0  -0.36005  0  1.963811  0  0  -0.132212  -0.343766  0  1.960198  0
O  O81  1  0.12950007  0.90558958  0.69968038  1  0  -0.362873  0  1.763542  0  0  -0.352542  0  1.95869  0  0  -0.360008  0  1.963943  0  0  -0.132114  -0.34367  0  1.960386  0
O  O82  1  0.45772755  0.92635215  0.39488322  1  0  -0.373651  0  1.743241  0  0  -0.35385  0  1.952302  0  0  -0.365628  0  1.94839  0  0  -0.132037  -0.346336  0  1.955079  0
O  O83  1  0.45774291  0.42632991  0.60512481  1  0  -0.373491  0  1.743013  0  0  -0.353735  0  1.952123  0  0  -0.365511  0  1.94821  0  0  -0.131894  -0.346226  0  1.954894  0
O  O84  1  0.78392753  0.03028518  0.34661846  1  0  -0.384927  0  1.780118  0  0  -0.363052  0  1.994878  0  0  -0.376507  0  1.992333  0  0  -0.135622  -0.354037  0  1.996462  0
O  O85  1  0.78393180  0.53027501  0.65338608  1  0  -0.385028  0  1.7802  0  0  -0.363154  0  1.994956  0  0  -0.376616  0  1.992416  0  0  -0.135716  -0.354135  0  1.996528  0
