# generated using pymatgen
data_CdH12C8S2(NO5)2
_symmetry_space_group_name_H-M   'P 1'
_cell_length_a   8.35407240
_cell_length_b   8.81340877
_cell_length_c   20.48840000
_cell_angle_alpha   90.11761578
_cell_angle_beta   90.00000000
_cell_angle_gamma   90.00000000
_symmetry_Int_Tables_number   1
_chemical_formula_structural   CdH12C8S2(NO5)2
_chemical_formula_sum   'Cd4 H48 C32 S8 N8 O40'
_cell_volume   1508.51376500
_cell_formula_units_Z   4
loop_
 _symmetry_equiv_pos_site_id
 _symmetry_equiv_pos_as_xyz
  1  'x, y, z'
loop_
 _atom_site_type_symbol
 _atom_site_label
 _atom_site_symmetry_multiplicity
 _atom_site_fract_x
 _atom_site_fract_y
 _atom_site_fract_z
 _atom_site_occupancy
 _atom_site_hle17_bader_spin_density
 _atom_site_hle17_ddec_charge
 _atom_site_hle17_ddec_spin_density
 _atom_site_hle17_ddec_sum_bond_order
 _atom_site_hle17_magmom
 _atom_site_hse06_10hf_bader_spin_density
 _atom_site_hse06_10hf_ddec_charge
 _atom_site_hse06_10hf_ddec_spin_density
 _atom_site_hse06_10hf_ddec_sum_bond_order
 _atom_site_hse06_10hf_magmom
 _atom_site_hse06_bader_spin_density
 _atom_site_hse06_ddec_charge
 _atom_site_hse06_ddec_spin_density
 _atom_site_hse06_ddec_sum_bond_order
 _atom_site_hse06_magmom
 _atom_site_pbe_bader_charge
 _atom_site_pbe_bader_spin_density
 _atom_site_pbe_cm5_charge
 _atom_site_pbe_ddec_charge
 _atom_site_pbe_ddec_spin_density
 _atom_site_pbe_ddec_sum_bond_order
 _atom_site_pbe_magmom
Cd  Cd0  1  0.67302146  0.57761201  0.74468529  1  0  1.259659  0  1.59008  0  0  1.085479  0  2.030955  0  0  1.139175  0  1.976447  0  1.331184  0  0.80668  1.046885  0  2.068787  0
Cd  Cd1  1  0.17301981  0.92238739  0.25531510  1  0  1.259683  0  1.590067  0  0  1.085516  0  2.030946  0  0  1.139211  0  1.976437  0  1.3312  0  0.806686  1.046922  0  2.068779  0
Cd  Cd2  1  0.32697825  0.42238797  0.25531383  1  0  1.25968  0  1.5901  0  0  1.085485  0  2.030986  0  0  1.139181  0  1.976476  0  1.331157  0  0.806672  1.046891  0  2.068818  0
Cd  Cd3  1  0.82697751  0.07761145  0.74468549  1  0  1.25966  0  1.590083  0  0  1.085502  0  2.030945  0  0  1.139194  0  1.97644  0  1.331176  0  0.806681  1.046907  0  2.068777  0
H  H4  1  0.07136041  0.93507037  0.84390569  1  0  0.168161  0  0.9513  0  0  0.176421  0  1.00948  0  0  0.181286  0  1.007279  0  0.17359  0  0.113284  0.172928  0  1.011338  0
H  H5  1  0.57135966  0.56492790  0.15609519  1  0  0.168185  0  0.95129  0  0  0.176448  0  1.009475  0  0  0.181313  0  1.007275  0  0.173566  0  0.113315  0.172955  0  1.011333  0
H  H6  1  0.92863931  0.06492621  0.15609392  1  0  0.168165  0  0.951294  0  0  0.176425  0  1.009474  0  0  0.181288  0  1.007278  0  0.173596  0  0.113301  0.172932  0  1.011332  0
H  H7  1  0.42863765  0.43507094  0.84390588  1  0  0.168207  0  0.951253  0  0  0.176454  0  1.009458  0  0  0.181318  0  1.007259  0  0.173573  0  0.11331  0.172961  0  1.011317  0
H  H8  1  0.20942840  0.95325973  0.95008182  1  0  0.14075  0  0.938074  0  0  0.159621  0  0.996626  0  0  0.161629  0  0.996103  0  0.107868  0  0.102507  0.158082  0  0.997187  0
H  H9  1  0.70942766  0.54674080  0.04991857  1  0  0.140735  0  0.938086  0  0  0.159615  0  0.99662  0  0  0.161622  0  0.996098  0  0.107866  0  0.102514  0.158076  0  0.997181  0
H  H10  1  0.79057131  0.04674024  0.04991779  1  0  0.140756  0  0.938098  0  0  0.159627  0  0.996642  0  0  0.161635  0  0.996118  0  0.107864  0  0.102512  0.158088  0  0.997203  0
H  H11  1  0.29057206  0.45325804  0.95008153  1  0  0.140687  0  0.938205  0  0  0.159621  0  0.996684  0  0  0.161631  0  0.996158  0  0.107884  0  0.102486  0.158081  0  0.997246  0
H  H12  1  0.27438594  0.77065577  0.97656053  1  0  0.145855  0  0.920325  0  0  0.165481  0  0.979164  0  0  0.168246  0  0.977422  0  0.098239  0  0.105383  0.163418  0  0.980549  0
H  H13  1  0.77438639  0.72934363  0.02343889  1  0  0.145849  0  0.920331  0  0  0.165471  0  0.97918  0  0  0.168236  0  0.977437  0  0.098251  0  0.10538  0.163408  0  0.980566  0
H  H14  1  0.72561377  0.22934534  0.02343908  1  0  0.145856  0  0.920333  0  0  0.165477  0  0.979181  0  0  0.168241  0  0.977439  0  0.098241  0  0.105374  0.163414  0  0.980566  0
H  H15  1  0.22561332  0.27065408  0.97656121  1  0  0.145892  0  0.920358  0  0  0.165511  0  0.979206  0  0  0.168276  0  0.977465  0  0.098226  0  0.105397  0.163449  0  0.980589  0
H  H16  1  0.10696580  0.85434887  0.01402535  1  0  0.145885  0  0.912413  0  0  0.16817  0  0.966546  0  0  0.170674  0  0.965322  0  0.090104  0  0.10732  0.16627  0  0.967558  0
H  H17  1  0.60696505  0.64565166  0.98597602  1  0  0.145895  0  0.912373  0  0  0.168182  0  0.966508  0  0  0.170685  0  0.96528  0  0.090147  0  0.107318  0.166281  0  0.96752  0
H  H18  1  0.89303033  0.14564883  0.98597475  1  0  0.145903  0  0.912425  0  0  0.168188  0  0.966556  0  0  0.170692  0  0.965331  0  0.090134  0  0.107322  0.166287  0  0.967568  0
H  H19  1  0.39303346  0.35434945  0.01402456  1  0  0.145895  0  0.91242  0  0  0.168178  0  0.966557  0  0  0.170682  0  0.965333  0  0.090141  0  0.107316  0.166278  0  0.967569  0
H  H20  1  0.46684178  0.71524122  0.52499269  1  0  0.154561  0  0.952833  0  0  0.162374  0  1.014258  0  0  0.166562  0  1.013025  0  0.126791  0  0.111794  0.159365  0  1.015344  0
H  H21  1  0.96683625  0.78475931  0.47500673  1  0  0.154619  0  0.952817  0  0  0.162399  0  1.014288  0  0  0.166585  0  1.013053  0  0.12679  0  0.111776  0.15939  0  1.015373  0
H  H22  1  0.53315794  0.28476102  0.47500741  1  0  0.154511  0  0.952888  0  0  0.162338  0  1.014304  0  0  0.166526  0  1.013073  0  0.12663  0  0.111797  0.159329  0  1.015389  0
H  H23  1  0.03315389  0.21523840  0.52499288  1  0  0.154565  0  0.952849  0  0  0.162382  0  1.014291  0  0  0.166565  0  1.013062  0  0.126594  0  0.111797  0.159373  0  1.015377  0
H  H24  1  0.26643054  0.62799330  0.44787595  1  0  0.148055  0  0.944752  0  0  0.164802  0  1.007649  0  0  0.167308  0  1.006722  0  0.092448  0  0.102413  0.16282  0  1.008686  0
H  H25  1  0.76642620  0.87200496  0.55212493  1  0  0.147971  0  0.944855  0  0  0.164749  0  1.007731  0  0  0.167255  0  1.006806  0  0.092501  0  0.102391  0.162768  0  1.00877  0
H  H26  1  0.73357037  0.37200781  0.55212317  1  0  0.148008  0  0.944851  0  0  0.164782  0  1.007712  0  0  0.167288  0  1.006786  0  0.092489  0  0.102401  0.1628  0  1.008749  0
H  H27  1  0.23356752  0.12799615  0.44787517  1  0  0.148083  0  0.944814  0  0  0.164825  0  1.007709  0  0  0.16733  0  1.006784  0  0.092404  0  0.102397  0.162843  0  1.008748  0
H  H28  1  0.09185939  0.57578638  0.49224279  1  0  0.133946  0  0.95112  0  0  0.155324  0  1.01075  0  0  0.157776  0  1.009212  0  0.065446  0  0.102244  0.153509  0  1.011856  0
H  H29  1  0.59185506  0.92421529  0.50775956  1  0  0.133922  0  0.951179  0  0  0.155316  0  1.010796  0  0  0.157768  0  1.009255  0  0.065377  0  0.102249  0.153499  0  1.011902  0
H  H30  1  0.90814272  0.42421360  0.50775682  1  0  0.133949  0  0.951098  0  0  0.155335  0  1.010727  0  0  0.157789  0  1.009187  0  0.065389  0  0.102232  0.153518  0  1.011833  0
H  H31  1  0.40813867  0.07578809  0.49224103  1  0  0.133932  0  0.951216  0  0  0.155335  0  1.010802  0  0  0.157785  0  1.009265  0  0.065434  0  0.102251  0.15352  0  1.011907  0
H  H32  1  0.21156029  0.43261559  0.45619311  1  0  0.14164  0  0.932067  0  0  0.163363  0  0.989019  0  0  0.165537  0  0.988349  0  0.103216  0  0.10367  0.161608  0  0.989892  0
H  H33  1  0.71155716  0.06738270  0.54380962  1  0  0.141592  0  0.932015  0  0  0.163333  0  0.988957  0  0  0.165507  0  0.988288  0  0.103215  0  0.103653  0.161581  0  0.989828  0
H  H34  1  0.78844062  0.56738439  0.54380699  1  0  0.14165  0  0.932026  0  0  0.163376  0  0.98898  0  0  0.165551  0  0.98831  0  0.103217  0  0.103667  0.161622  0  0.989852  0
H  H35  1  0.28843777  0.93261955  0.45619096  1  0  0.141643  0  0.93205  0  0  0.163371  0  0.988991  0  0  0.165545  0  0.988321  0  0.103251  0  0.10368  0.161618  0  0.989862  0
H  H36  1  0.90503645  0.40713050  0.66598884  1  0  0.436076  0  0.859088  0  0  0.405375  0  0.921728  0  0  0.415604  0  0.906801  0  0.655752  0  0.293982  0.398134  0  0.93226  0
H  H37  1  0.40503719  0.09286665  0.33401047  1  0  0.436127  0  0.859036  0  0  0.405421  0  0.921677  0  0  0.415651  0  0.906749  0  0.65583  0  0.294  0.39818  0  0.932208  0
H  H38  1  0.09496207  0.59286947  0.33401077  1  0  0.436105  0  0.859048  0  0  0.405392  0  0.921704  0  0  0.415623  0  0.906775  0  0.65577  0  0.293983  0.398152  0  0.932236  0
H  H39  1  0.59496013  0.90713220  0.66598963  1  0  0.436129  0  0.859026  0  0  0.40542  0  0.92167  0  0  0.415652  0  0.906741  0  0.655822  0  0.293999  0.39818  0  0.932202  0
H  H40  1  0.94324655  0.58331015  0.65626858  1  0  0.428297  0  0.86449  0  0  0.398322  0  0.925601  0  0  0.407964  0  0.911566  0  0.635891  0  0.295259  0.39145  0  0.935622  0
H  H41  1  0.44324490  0.91668584  0.34373083  1  0  0.428284  0  0.864506  0  0  0.398299  0  0.925632  0  0  0.407941  0  0.911595  0  0.635882  0  0.295238  0.391426  0  0.935654  0
H  H42  1  0.05675316  0.41668869  0.34373102  1  0  0.428287  0  0.864506  0  0  0.398307  0  0.925626  0  0  0.407949  0  0.911591  0  0.635884  0  0.295248  0.391434  0  0.935648  0
H  H43  1  0.55675481  0.08331414  0.65626927  1  0  0.428356  0  0.864435  0  0  0.398388  0  0.925526  0  0  0.40803  0  0.91149  0  0.635881  0  0.295278  0.391517  0  0.935545  0
H  H44  1  0.44324969  0.76773521  0.81603492  1  0  0.439746  0  0.852783  0  0  0.409167  0  0.913797  0  0  0.41938  0  0.899109  0  0.651618  0  0.298196  0.401885  0  0.924284  0
H  H45  1  0.94325134  0.73226305  0.18396498  1  0  0.439817  0  0.852694  0  0  0.409248  0  0.913683  0  0  0.41946  0  0.898997  0  0.651614  0  0.298246  0.401966  0  0.92417  0
H  H46  1  0.55674883  0.23226476  0.18396518  1  0  0.439701  0  0.852831  0  0  0.409122  0  0.913846  0  0  0.419335  0  0.899159  0  0.651619  0  0.29817  0.40184  0  0.924333  0
H  H47  1  0.05674957  0.26773579  0.81603463  1  0  0.439743  0  0.852786  0  0  0.409171  0  0.913789  0  0  0.419385  0  0.8991  0  0.65162  0  0.298198  0.401888  0  0.924278  0
H  H48  1  0.35775127  0.69336202  0.75612319  1  0  0.448419  0  0.826004  0  0  0.421335  0  0.883175  0  0  0.430239  0  0.870315  0  0.650218  0  0.310061  0.415043  0  0.892288  0
H  H49  1  0.85774813  0.80663625  0.24387623  1  0  0.448393  0  0.826039  0  0  0.42133  0  0.883169  0  0  0.430232  0  0.870309  0  0.650222  0  0.310087  0.415038  0  0.892281  0
H  H50  1  0.64224964  0.30663910  0.24387691  1  0  0.44842  0  0.825992  0  0  0.42134  0  0.883164  0  0  0.430244  0  0.870305  0  0.650209  0  0.310066  0.415049  0  0.892276  0
H  H51  1  0.14225038  0.19336146  0.75612338  1  0  0.448418  0  0.826001  0  0  0.421338  0  0.883167  0  0  0.430243  0  0.870305  0  0.65021  0  0.310063  0.415045  0  0.892281  0
C  C52  1  0.89853303  0.75699814  0.82035862  1  0  0.659408  0  3.866203  0  0  0.612598  0  4.1517  0  0  0.648878  0  4.147089  0  1.242999  0  0.22073  0.588085  0  4.154016  0
C  C53  1  0.39853377  0.74300126  0.17964226  1  0  0.659385  0  3.866277  0  0  0.612622  0  4.151711  0  0  0.648901  0  4.1471  0  1.242971  0  0.220778  0.588108  0  4.154029  0
C  C54  1  0.10146788  0.24299957  0.17964001  1  0  0.659413  0  3.866202  0  0  0.612645  0  4.151616  0  0  0.648924  0  4.147005  0  1.262398  0  0.220768  0.588133  0  4.15393  0
C  C55  1  0.60146594  0.25699872  0.82035882  1  0  0.659379  0  3.866238  0  0  0.612588  0  4.151714  0  0  0.648868  0  4.147103  0  1.24295  0  0.220735  0.588076  0  4.154032  0
C  C56  1  0.02129022  0.82712326  0.85951193  1  0  -0.414338  0  3.668122  0  0  -0.439281  0  3.929668  0  0  -0.457349  0  3.942317  0  0.128738  0  -0.12963  -0.427439  0  3.92139  0
C  C57  1  0.52129187  0.67287614  0.14048943  1  0  -0.414357  0  3.668053  0  0  -0.439313  0  3.929614  0  0  -0.457383  0  3.942265  0  0.128719  0  -0.129673  -0.427475  0  3.921336  0
C  C58  1  0.97871189  0.17287332  0.14048670  1  0  -0.414291  0  3.668112  0  0  -0.439215  0  3.929625  0  0  -0.457285  0  3.942284  0  0.128523  0  -0.129623  -0.427373  0  3.921345  0
C  C59  1  0.47870904  0.32712497  0.85951213  1  0  -0.414329  0  3.668114  0  0  -0.439278  0  3.929683  0  0  -0.457346  0  3.942334  0  0.128779  0  -0.129654  -0.427438  0  3.921405  0
C  C60  1  0.06343254  0.76967431  0.91837210  1  0  0.449371  0  3.665269  0  0  0.432268  0  3.940787  0  0  0.453143  0  3.94992  0  0.309423  0  0.116569  0.418125  0  3.934483  0
C  C61  1  0.56343539  0.73032736  0.08162927  1  0  0.449372  0  3.665152  0  0  0.432271  0  3.940706  0  0  0.453147  0  3.949839  0  0.309432  0  0.116596  0.418139  0  3.93439  0
C  C62  1  0.93657077  0.23032340  0.08162751  1  0  0.44937  0  3.665222  0  0  0.432222  0  3.940777  0  0  0.453096  0  3.949911  0  0.309418  0  0.11655  0.418081  0  3.934471  0
C  C63  1  0.43656912  0.26967489  0.91837230  1  0  0.449338  0  3.665281  0  0  0.432225  0  3.940808  0  0  0.453098  0  3.949944  0  0.309422  0  0.11657  0.418085  0  3.934501  0
C  C64  1  0.16938086  0.84221166  0.96709784  1  0  -0.386731  0  3.689141  0  0  -0.472782  0  3.937575  0  0  -0.477117  0  3.941394  0  -0.070414  0  -0.236944  -0.469316  0  3.93471  0
C  C65  1  0.66938132  0.65778887  0.03290353  1  0  -0.386758  0  3.689129  0  0  -0.472811  0  3.937587  0  0  -0.477142  0  3.9414  0  -0.070437  0  -0.236973  -0.469347  0  3.934718  0
C  C66  1  0.83061885  0.15778832  0.03290226  1  0  -0.386798  0  3.689222  0  0  -0.472843  0  3.937668  0  0  -0.477179  0  3.941487  0  -0.070435  0  -0.236967  -0.469376  0  3.934803  0
C  C67  1  0.33061839  0.34220997  0.96709754  1  0  -0.386735  0  3.689325  0  0  -0.472838  0  3.937726  0  0  -0.477175  0  3.941546  0  -0.070436  0  -0.236935  -0.469372  0  3.934858  0
C  C68  1  0.50926420  0.61799147  0.62150391  1  0  0.64015  0  3.902921  0  0  0.593287  0  4.194103  0  0  0.627752  0  4.190717  0  1.25053  0  0.218565  0.570053  0  4.195576  0
C  C69  1  0.00925896  0.88201019  0.37849599  1  0  0.640154  0  3.903011  0  0  0.59338  0  4.194063  0  0  0.627845  0  4.190675  0  1.251083  0  0.21855  0.570147  0  4.195536  0
C  C70  1  0.49073551  0.38201077  0.37849668  1  0  0.640097  0  3.902891  0  0  0.593296  0  4.194008  0  0  0.627762  0  4.190621  0  1.250437  0  0.218542  0.570062  0  4.195478  0
C  C71  1  0.99073597  0.11798638  0.62150361  1  0  0.640026  0  3.902932  0  0  0.593225  0  4.194041  0  0  0.627688  0  4.190659  0  1.251002  0  0.218533  0.569991  0  4.195511  0
C  C72  1  0.43128547  0.62700049  0.55884128  1  0  -0.411525  0  3.707593  0  0  -0.442924  0  3.984895  0  0  -0.459864  0  3.998828  0  0.068499  0  -0.132929  -0.431679  0  3.975609  0
C  C73  1  0.93128113  0.87299891  0.44115960  1  0  -0.411548  0  3.707573  0  0  -0.442914  0  3.98482  0  0  -0.459857  0  3.998758  0  0.068487  0  -0.132872  -0.431668  0  3.975533  0
C  C74  1  0.56871185  0.37300175  0.44115833  1  0  -0.411383  0  3.707659  0  0  -0.442811  0  3.984952  0  0  -0.459752  0  3.998887  0  0.068661  0  -0.132906  -0.431565  0  3.975665  0
C  C75  1  0.06871260  0.12699767  0.55884050  1  0  -0.411458  0  3.707596  0  0  -0.442875  0  3.98486  0  0  -0.459815  0  3.998793  0  0.06867  0  -0.132904  -0.431631  0  3.975575  0
C  C76  1  0.30932100  0.53400563  0.54207753  1  0  0.432857  0  3.70817  0  0  0.415167  0  3.988135  0  0  0.434943  0  3.998127  0  0.421847  0  0.105213  0.401503  0  3.981058  0
C  C77  1  0.80931427  0.96599831  0.45792433  1  0  0.43279  0  3.708169  0  0  0.415012  0  3.988233  0  0  0.43479  0  3.998224  0  0.421093  0  0.105148  0.401347  0  3.981159  0
C  C78  1  0.69067752  0.46599548  0.45792208  1  0  0.432877  0  3.708041  0  0  0.415158  0  3.988064  0  0  0.434935  0  3.998055  0  0.421928  0  0.105212  0.401494  0  3.980989  0
C  C79  1  0.19067706  0.03400508  0.54207626  1  0  0.432819  0  3.708189  0  0  0.415131  0  3.988178  0  0  0.434916  0  3.998159  0  0.421825  0  0.105217  0.40147  0  3.981099  0
C  C80  1  0.21561341  0.54328356  0.48092477  1  0  -0.395142  0  3.673401  0  0  -0.477612  0  3.911203  0  0  -0.482187  0  3.915215  0  -0.09216  0  -0.240379  -0.474013  0  3.908557  0
C  C81  1  0.71561027  0.95671697  0.51907660  1  0  -0.394928  0  3.673421  0  0  -0.477469  0  3.911296  0  0  -0.482043  0  3.915308  0  -0.092255  0  -0.240323  -0.473875  0  3.908654  0
C  C82  1  0.78438750  0.45671755  0.51907435  1  0  -0.395114  0  3.673374  0  0  -0.477614  0  3.911176  0  0  -0.482193  0  3.91519  0  -0.092165  0  -0.24032  -0.474016  0  3.908532  0
C  C83  1  0.28438466  0.04328527  0.48092350  1  0  -0.395189  0  3.673588  0  0  -0.477686  0  3.911398  0  0  -0.48226  0  3.915409  0  -0.092164  0  -0.240395  -0.47409  0  3.908755  0
S  S84  1  0.92518111  0.51307385  0.88752916  1  0  1.44236  0  5.526721  0  0  1.319928  0  6.070879  0  0  1.374975  0  6.046773  0  3.48093  0  0.651749  1.282221  0  6.086581  0
S  S85  1  0.42518545  0.98692442  0.11247269  1  0  1.442456  0  5.526512  0  0  1.320033  0  6.070675  0  0  1.375069  0  6.046577  0  3.480837  0  0.65181  1.282326  0  6.086375  0
S  S86  1  0.07482339  0.48692159  0.11246995  1  0  1.442502  0  5.526696  0  0  1.32008  0  6.070839  0  0  1.375116  0  6.046734  0  3.481017  0  0.651752  1.282373  0  6.086543  0
S  S87  1  0.57482145  0.01307669  0.88752936  1  0  1.44229  0  5.526755  0  0  1.319829  0  6.070938  0  0  1.374871  0  6.046833  0  3.480907  0  0.651681  1.282125  0  6.086638  0
S  S88  1  0.38048389  0.35578590  0.63994294  1  0  1.453222  0  5.507558  0  0  1.33301  0  6.047654  0  0  1.387639  0  6.024295  0  3.485378  0  0.653099  1.295472  0  6.062673  0
S  S89  1  0.88047956  0.14421806  0.36005980  1  0  1.453389  0  5.507666  0  0  1.333141  0  6.047752  0  0  1.387763  0  6.024403  0  3.486147  0  0.653159  1.295601  0  6.062767  0
S  S90  1  0.61951582  0.64421407  0.36005667  1  0  1.453269  0  5.507462  0  0  1.333053  0  6.047566  0  0  1.387685  0  6.024204  0  3.485366  0  0.653118  1.295519  0  6.062581  0
S  S91  1  0.11951776  0.85578419  0.63994030  1  0  1.453278  0  5.507741  0  0  1.333094  0  6.047797  0  0  1.387731  0  6.024433  0  3.485925  0  0.653124  1.295559  0  6.062809  0
N  N92  1  0.83575886  0.61979101  0.83648910  1  0  -0.747214  0  3.069601  0  0  -0.677041  0  3.373681  0  0  -0.709852  0  3.373003  0  -1.384933  0  -0.406431  -0.654559  0  3.373833  0
N  N93  1  0.33576080  0.88020839  0.16351178  1  0  -0.747138  0  3.069584  0  0  -0.67701  0  3.373674  0  0  -0.709818  0  3.373  0  -1.384798  0  -0.406431  -0.654526  0  3.373823  0
N  N94  1  0.16424445  0.38020556  0.16351002  1  0  -0.747243  0  3.06964  0  0  -0.677082  0  3.373693  0  0  -0.709891  0  3.373017  0  -1.404207  0  -0.406465  -0.6546  0  3.373844  0
N  N95  1  0.66424251  0.11979272  0.83648881  1  0  -0.747176  0  3.069662  0  0  -0.676986  0  3.373715  0  0  -0.709798  0  3.373043  0  -1.384954  0  -0.406399  -0.654502  0  3.373858  0
N  N96  1  0.47674473  0.50097181  0.66280449  1  0  -0.741517  0  3.068306  0  0  -0.67511  0  3.369992  0  0  -0.706874  0  3.369848  0  -1.406139  0  -0.400041  -0.653824  0  3.369613  0
N  N97  1  0.97673441  0.99903100  0.33719590  1  0  -0.741682  0  3.068365  0  0  -0.675316  0  3.370043  0  0  -0.707085  0  3.369904  0  -1.406776  0  -0.400085  -0.654027  0  3.369664  0
N  N98  1  0.52325378  0.49902931  0.33719561  1  0  -0.74155  0  3.068257  0  0  -0.675185  0  3.369953  0  0  -0.706951  0  3.369806  0  -1.406152  0  -0.400072  -0.6539  0  3.369575  0
N  N99  1  0.02326051  0.00096898  0.66280469  1  0  -0.741588  0  3.068349  0  0  -0.675172  0  3.369975  0  0  -0.706942  0  3.369835  0  -1.406599  0  -0.400047  -0.653884  0  3.369592  0
O  O100  1  0.90071400  0.50823121  0.68705096  1  0  -0.834944  0  1.846402  0  0  -0.77501  0  2.032634  0  0  -0.79637  0  2.000599  0  -1.245652  0  -0.589277  -0.759862  0  2.055098  0
O  O101  1  0.40071235  0.99176592  0.31294894  1  0  -0.834982  0  1.846401  0  0  -0.775037  0  2.032656  0  0  -0.796404  0  2.000624  0  -1.245679  0  -0.589282  -0.759888  0  2.055121  0
O  O102  1  0.09928930  0.49176763  0.31294914  1  0  -0.834964  0  1.846402  0  0  -0.77501  0  2.032633  0  0  -0.796377  0  2.000609  0  -1.245659  0  -0.589264  -0.759862  0  2.055096  0
O  O103  1  0.59928497  0.00823406  0.68705116  1  0  -0.835049  0  1.846337  0  0  -0.77513  0  2.032605  0  0  -0.796493  0  2.000575  0  -1.245691  0  -0.589323  -0.759983  0  2.05507  0
O  O104  1  0.43655715  0.67244498  0.79038460  1  0  -0.832505  0  1.826324  0  0  -0.770719  0  2.006407  0  0  -0.792823  0  1.974965  0  -1.242158  0  -0.572558  -0.754901  0  2.028435  0
O  O105  1  0.93655640  0.82755328  0.20961579  1  0  -0.832518  0  1.826321  0  0  -0.770764  0  2.006424  0  0  -0.79286  0  1.974987  0  -1.242144  0  -0.572626  -0.754947  0  2.028454  0
O  O106  1  0.56344376  0.32755613  0.20961550  1  0  -0.832447  0  1.826343  0  0  -0.770672  0  2.006429  0  0  -0.792776  0  1.97499  0  -1.242169  0  -0.57254  -0.754853  0  2.028456  0
O  O107  1  0.06344211  0.17244556  0.79038382  1  0  -0.832489  0  1.826343  0  0  -0.770718  0  2.006427  0  0  -0.792821  0  1.974983  0  -1.242156  0  -0.572558  -0.7549  0  2.028458  0
O  O108  1  0.81344998  0.42349651  0.92363298  1  0  -0.578267  0  1.951189  0  0  -0.53758  0  2.200795  0  0  -0.559037  0  2.190326  0  -1.295571  0  -0.289684  -0.522581  0  2.207655  0
O  O109  1  0.31345192  0.07650518  0.07636829  1  0  -0.578411  0  1.95095  0  0  -0.537715  0  2.200552  0  0  -0.559167  0  2.190083  0  -1.295936  0  -0.28976  -0.522718  0  2.207414  0
O  O110  1  0.18656410  0.57649779  0.07636516  1  0  -0.578348  0  1.950869  0  0  -0.537683  0  2.200478  0  0  -0.559133  0  2.190004  0  -1.295642  0  -0.289659  -0.522688  0  2.207344  0
O  O111  1  0.68655737  0.92349934  0.92363230  1  0  -0.578295  0  1.951031  0  0  -0.537603  0  2.200642  0  0  -0.559058  0  2.190169  0  -1.295586  0  -0.289663  -0.522607  0  2.207504  0
O  O112  1  0.06249886  0.43663334  0.85924814  1  0  -0.626539  0  1.961264  0  0  -0.569785  0  2.194694  0  0  -0.592452  0  2.18152  0  -1.310415  0  -0.297938  -0.554081  0  2.203637  0
O  O113  1  0.56249812  0.06336722  0.14075459  1  0  -0.626591  0  1.961403  0  0  -0.569799  0  2.194796  0  0  -0.592459  0  2.181621  0  -1.310023  0  -0.297929  -0.554095  0  2.203739  0
O  O114  1  0.93751163  0.56336437  0.14075000  1  0  -0.626614  0  1.9615  0  0  -0.569843  0  2.194903  0  0  -0.592504  0  2.181729  0  -1.310336  0  -0.29796  -0.554138  0  2.203845  0
O  O115  1  0.43750519  0.93663390  0.85924843  1  0  -0.626471  0  1.961354  0  0  -0.569698  0  2.194777  0  0  -0.592361  0  2.181601  0  -1.310327  0  -0.297888  -0.553995  0  2.203718  0
O  O116  1  0.00237848  0.63393766  0.94100756  1  0  -0.403334  0  2.188194  0  0  -0.327244  0  2.425913  0  0  -0.348863  0  2.421219  0  -1.095176  0  -0.150983  -0.312577  0  2.429019  0
O  O117  1  0.50238731  0.86606627  0.05899430  1  0  -0.403261  0  2.18809  0  0  -0.327214  0  2.425836  0  0  -0.348834  0  2.421145  0  -1.095177  0  -0.150995  -0.312549  0  2.428936  0
O  O118  1  0.99762602  0.36605891  0.05899107  1  0  -0.403286  0  2.188143  0  0  -0.327186  0  2.425876  0  0  -0.348798  0  2.421172  0  -1.095221  0  -0.150949  -0.312523  0  2.428989  0
O  O119  1  0.49762437  0.13393824  0.94100775  1  0  -0.403294  0  2.188144  0  0  -0.327181  0  2.42586  0  0  -0.348796  0  2.42116  0  -1.0952  0  -0.151004  -0.312517  0  2.428966  0
O  O120  1  0.83525491  0.82042776  0.77055374  1  0  -0.638519  0  2.002451  0  0  -0.565683  0  2.260639  0  0  -0.595434  0  2.247962  0  -1.156579  0  -0.315439  -0.54438  0  2.268451  0
O  O121  1  0.33525326  0.67957050  0.22944665  1  0  -0.638525  0  2.002403  0  0  -0.56568  0  2.26055  0  0  -0.59543  0  2.24787  0  -1.156597  0  -0.315467  -0.544378  0  2.268363  0
O  O122  1  0.16474600  0.17956995  0.22944636  1  0  -0.638534  0  2.00236  0  0  -0.565719  0  2.260539  0  0  -0.59547  0  2.24786  0  -1.156563  0  -0.315457  -0.544416  0  2.268353  0
O  O123  1  0.66474526  0.32042948  0.77055393  1  0  -0.638502  0  2.002397  0  0  -0.565699  0  2.260614  0  0  -0.595451  0  2.247936  0  -1.156603  0  -0.315453  -0.544397  0  2.268428  0
O  O124  1  0.47980791  0.24563306  0.60592501  1  0  -0.636633  0  1.945338  0  0  -0.581625  0  2.185533  0  0  -0.604555  0  2.173752  0  -1.313336  0  -0.301605  -0.565271  0  2.192946  0
O  O125  1  0.97980477  0.25436636  0.39407528  1  0  -0.636518  0  1.945492  0  0  -0.581538  0  2.185753  0  0  -0.604464  0  2.173976  0  -1.313371  0  -0.301566  -0.565181  0  2.193164  0
O  O126  1  0.52019061  0.75436805  0.39407558  1  0  -0.636664  0  1.945282  0  0  -0.581636  0  2.18546  0  0  -0.604566  0  2.173678  0  -1.313341  0  -0.301621  -0.565282  0  2.192871  0
O  O127  1  0.02019494  0.74563362  0.60592286  1  0  -0.636518  0  1.945545  0  0  -0.581547  0  2.185793  0  0  -0.604478  0  2.17401  0  -1.313195  0  -0.301554  -0.565194  0  2.193203  0
O  O128  1  0.27846778  0.29912666  0.69058744  1  0  -0.590418  0  1.940236  0  0  -0.542531  0  2.174953  0  0  -0.562067  0  2.160433  0  -1.308471  0  -0.29291  -0.529046  0  2.184952  0
O  O129  1  0.77845507  0.20087730  0.30941578  1  0  -0.590483  0  1.94007  0  0  -0.542602  0  2.174801  0  0  -0.562124  0  2.160275  0  -1.308599  0  -0.292943  -0.529134  0  2.184836  0
O  O130  1  0.72152834  0.70087558  0.30941217  1  0  -0.590411  0  1.940196  0  0  -0.54254  0  2.174929  0  0  -0.562077  0  2.16041  0  -1.308455  0  -0.29292  -0.529055  0  2.184919  0
O  O131  1  0.22154225  0.79912268  0.69058432  1  0  -0.590464  0  1.940099  0  0  -0.542582  0  2.174817  0  0  -0.562113  0  2.160292  0  -1.30874  0  -0.292932  -0.52911  0  2.184833  0
O  O132  1  0.25532697  0.42059524  0.58270726  1  0  -0.417436  0  2.178693  0  0  -0.337111  0  2.411531  0  0  -0.358973  0  2.408209  0  -1.09172  0  -0.160416  -0.321887  0  2.413409  0
O  O133  1  0.75532264  0.07940758  0.41729548  1  0  -0.417499  0  2.178794  0  0  -0.337047  0  2.411561  0  0  -0.358907  0  2.40824  0  -1.091011  0  -0.160404  -0.321822  0  2.413439  0
O  O134  1  0.74467394  0.57940360  0.41729186  1  0  -0.417466  0  2.178686  0  0  -0.337109  0  2.411495  0  0  -0.35897  0  2.408173  0  -1.091773  0  -0.160402  -0.321884  0  2.413372  0
O  O135  1  0.24467348  0.92059467  0.58270462  1  0  -0.417388  0  2.178728  0  0  -0.337104  0  2.411606  0  0  -0.358971  0  2.408281  0  -1.091732  0  -0.16041  -0.321881  0  2.413483  0
O  O136  1  0.60821474  0.71729151  0.64158144  1  0  -0.613417  0  1.970318  0  0  -0.549474  0  2.202331  0  0  -0.57492  0  2.191089  0  -1.157972  0  -0.301554  -0.531448  0  2.209334  0
O  O137  1  0.10820950  0.78271810  0.35842042  1  0  -0.613373  0  1.970372  0  0  -0.549513  0  2.202438  0  0  -0.574951  0  2.191188  0  -1.158375  0  -0.301568  -0.531493  0  2.209454  0
O  O138  1  0.39178258  0.28270846  0.35841817  1  0  -0.613451  0  1.97025  0  0  -0.549533  0  2.202241  0  0  -0.574976  0  2.190993  0  -1.157899  0  -0.301559  -0.531514  0  2.209262  0
O  O139  1  0.89178064  0.21728188  0.64158017  1  0  -0.613335  0  1.97022  0  0  -0.549483  0  2.202296  0  0  -0.574919  0  2.191048  0  -1.158316  0  -0.301595  -0.531464  0  2.209312  0
