# generated using pymatgen
data_Zn2H28C42N7O11
_symmetry_space_group_name_H-M   'P 1'
_cell_length_a   16.47955463
_cell_length_b   17.82958132
_cell_length_c   28.97955279
_cell_angle_alpha   90.20016599
_cell_angle_beta   89.57929886
_cell_angle_gamma   90.00732733
_symmetry_Int_Tables_number   1
_chemical_formula_structural   Zn2H28C42N7O11
_chemical_formula_sum   'Zn4 H56 C84 N14 O22'
_cell_volume   8514.59380849
_cell_formula_units_Z   2
loop_
 _symmetry_equiv_pos_site_id
 _symmetry_equiv_pos_as_xyz
  1  'x, y, z'
loop_
 _atom_site_type_symbol
 _atom_site_label
 _atom_site_symmetry_multiplicity
 _atom_site_fract_x
 _atom_site_fract_y
 _atom_site_fract_z
 _atom_site_occupancy
 _atom_site_pbe_bader_charge
 _atom_site_pbe_bader_spin_density
 _atom_site_pbe_cm5_charge
 _atom_site_pbe_ddec_charge
 _atom_site_pbe_ddec_spin_density
 _atom_site_pbe_ddec_sum_bond_order
 _atom_site_pbe_magmom
Zn  Zn0  1  0.58756159  0.50632736  0.49710918  1  1.265463  0  0.668124  0.81141  0  2.412801  0
Zn  Zn1  1  0.41878762  0.50878523  0.49978884  1  1.287454  0  0.670733  0.81937  0  2.445726  0
Zn  Zn2  1  0.41906604  0.50776951  0.88054771  1  1.28647  0  0.671126  0.819467  0  2.446542  0
Zn  Zn3  1  0.58786993  0.51069799  0.88185289  1  1.266087  0  0.667539  0.810306  0  2.413679  0
H  H4  1  0.28819186  0.59258911  0.55342142  1  0.103557  0  0.129715  0.110298  0  0.96957  0
H  H5  1  0.13579490  0.59106718  0.55648627  1  0.071999  0  0.114692  0.122518  0  0.980815  0
H  H6  1  0.29394737  0.42447458  0.45449105  1  0.09646  0  0.128225  0.114626  0  0.979066  0
H  H7  1  0.71516734  0.58584664  0.54793815  1  0.129042  0  0.131031  0.11842  0  0.970375  0
H  H8  1  0.71554878  0.42010423  0.44761356  1  0.114455  0  0.12672  0.107705  0  0.976851  0
H  H9  1  0.86832548  0.41345359  0.44709196  1  0.071258  0  0.11161  0.118724  0  0.986282  0
H  H10  1  0.63629316  0.74680742  0.50411830  1  0.043437  0  0.09798  0.105496  0  1.014196  0
H  H11  1  0.63250242  0.88724030  0.50523544  1  0.057942  0  0.098888  0.100028  0  0.997408  0
H  H12  1  0.37614326  0.74108356  0.49906523  1  0.087524  0  0.101417  0.116361  0  1.011038  0
H  H13  1  0.62637748  0.26754051  0.49940896  1  0.066252  0  0.102538  0.117306  0  1.007216  0
H  H14  1  0.36655663  0.27386676  0.50862724  1  0.080646  0  0.097261  0.105492  0  1.016  0
H  H15  1  0.36237002  0.13335911  0.50974275  1  0.049652  0  0.09856  0.099694  0  0.998567  0
H  H16  1  0.36742118  0.50379587  0.02485189  1  0.092269  0  0.098761  0.107364  0  1.014275  0
H  H17  1  0.36015337  0.50529893  0.11131092  1  0.067317  0  0.09786  0.098496  0  0.999366  0
H  H18  1  0.62730572  0.51105538  0.03052263  1  0.053933  0  0.100029  0.115103  0  1.010449  0
H  H19  1  0.36692723  0.50083935  0.35360856  1  0.069719  0  0.099456  0.113964  0  1.0121  0
H  H20  1  0.62696735  0.51048160  0.35036941  1  0.094734  0  0.099368  0.108702  0  1.013139  0
H  H21  1  0.62479491  0.51121520  0.26387832  1  0.00971  0  0.097787  0.098286  0  0.999215  0
H  H22  1  0.71615875  0.58914444  0.82692142  1  0.128543  0  0.128922  0.110531  0  0.972528  0
H  H23  1  0.86894058  0.58828454  0.82233794  1  0.092245  0  0.113946  0.121537  0  0.982998  0
H  H24  1  0.71479892  0.42791896  0.92928828  1  0.110699  0  0.128778  0.115055  0  0.975597  0
H  H25  1  0.29019340  0.58847331  0.82926333  1  0.099752  0  0.132484  0.117624  0  0.967155  0
H  H26  1  0.29254953  0.42021076  0.92735392  1  0.110416  0  0.126698  0.107521  0  0.978758  0
H  H27  1  0.13979776  0.41293559  0.92858407  1  0.089281  0  0.111934  0.119173  0  0.985505  0
H  H28  1  0.36668696  0.74436465  0.87954357  1  0.084072  0  0.098034  0.106197  0  1.015676  0
H  H29  1  0.36497900  0.88478405  0.87731327  1  0.043068  0  0.098602  0.099697  0  0.998245  0
H  H30  1  0.62708698  0.74678867  0.87625820  1  0.061652  0  0.101958  0.116887  0  1.008837  0
H  H31  1  0.37664155  0.27332487  0.87232545  1  0.089294  0  0.101741  0.116509  0  1.009627  0
H  H32  1  0.63677061  0.27125974  0.87687957  1  0.079582  0  0.098363  0.106047  0  1.012303  0
H  H33  1  0.63559028  0.13067319  0.87480919  1  0.066952  0  0.098843  0.09932  0  0.997887  0
H  H34  1  0.07200429  0.40452635  0.44461065  1  0.43346  0  0.311775  0.308552  0  0.955273  0
H  H35  1  0.16562649  0.37304482  0.42447074  1  0.461873  0  0.326687  0.323813  0  0.920562  0
H  H36  1  0.93643881  0.58896559  0.56381326  1  0.469832  0  0.309998  0.304447  0  0.955477  0
H  H37  1  0.84479825  0.62344716  0.58351610  1  0.465236  0  0.327213  0.323978  0  0.914576  0
H  H38  1  0.35629521  0.94548062  0.49497953  1  0.464012  0  0.298021  0.291924  0  0.974939  0
H  H39  1  0.30563252  0.86183685  0.49046307  1  0.427799  0  0.30874  0.302293  0  0.94236  0
H  H40  1  0.63555888  0.06211232  0.49722014  1  0.429851  0  0.298441  0.292581  0  0.977232  0
H  H41  1  0.69119582  0.14356656  0.49303591  1  0.436697  0  0.310387  0.303497  0  0.941746  0
H  H42  1  0.63187868  0.50098501  0.15684911  1  0.466209  0  0.296711  0.291196  0  0.977402  0
H  H43  1  0.68951702  0.49783608  0.10740064  1  0.432703  0  0.307257  0.300422  0  0.945156  0
H  H44  1  0.34898799  0.49416367  0.22761789  1  0.414224  0  0.297733  0.292275  0  0.973794  0
H  H45  1  0.29715965  0.48762093  0.27893255  1  0.423215  0  0.307048  0.300196  0  0.945849  0
H  H46  1  0.93707825  0.41124683  0.93790859  1  0.459161  0  0.310527  0.306016  0  0.95687  0
H  H47  1  0.84476190  0.38117075  0.95997236  1  0.456136  0  0.325405  0.32134  0  0.920978  0
H  H48  1  0.06931549  0.58978785  0.81381999  1  0.435855  0  0.309963  0.304014  0  0.954283  0
H  H49  1  0.16067206  0.62358248  0.79351089  1  0.457411  0  0.328617  0.325814  0  0.910547  0
H  H50  1  0.63914903  0.95205101  0.88040993  1  0.431264  0  0.297997  0.292579  0  0.974935  0
H  H51  1  0.69362147  0.87029965  0.88403331  1  0.430331  0  0.30911  0.302998  0  0.940951  0
H  H52  1  0.35912808  0.06855453  0.87635537  1  0.420798  0  0.297827  0.292179  0  0.976854  0
H  H53  1  0.30656208  0.15172555  0.87791353  1  0.445848  0  0.308837  0.302023  0  0.943759  0
H  H54  1  0.38454990  0.53264486  0.61162973  1  0.62402  0  0.296381  0.338081  0  1.012731  0
H  H55  1  0.38399413  0.53194168  0.76897237  1  0.648564  0  0.29447  0.336158  0  1.017793  0
H  H56  1  0.60365004  0.40637697  0.57860166  1  0.647263  0  0.295298  0.34828  0  1.00815  0
H  H57  1  0.69541737  0.28285508  0.60856650  1  0.62895  0  0.31546  0.35027  0  0.922688  0
H  H58  1  0.69880508  0.28710627  0.76974724  1  0.606681  0  0.316125  0.35041  0  0.922612  0
H  H59  1  0.60640604  0.41130645  0.79984764  1  0.648759  0  0.296078  0.347849  0  1.009514  0
C  C60  1  0.50630518  0.65247549  0.50119093  1  1.565978  0  0.216638  0.596636  0  4.152148  0
C  C61  1  0.50632400  0.49157887  0.59155009  1  1.456214  0  0.212453  0.599188  0  4.101622  0
C  C62  1  0.49999850  0.36158888  0.50074789  1  1.5718  0  0.215691  0.592832  0  4.153727  0
C  C63  1  0.49752230  0.50492817  0.40828187  1  1.496035  0  0.213416  0.593593  0  4.160712  0
C  C64  1  0.49883833  0.65421115  0.87854299  1  1.502618  0  0.216635  0.596332  0  4.152792  0
C  C65  1  0.50619665  0.49307369  0.78788971  1  1.473833  0  0.214163  0.60204  0  4.097965  0
C  C66  1  0.50571897  0.36326265  0.87812423  1  1.522308  0  0.216053  0.59344  0  4.153109  0
C  C67  1  0.50228111  0.50682520  0.97145645  1  1.515088  0  0.214251  0.594315  0  4.160733  0
C  C68  1  0.25272058  0.55460804  0.53206364  1  0.559329  0  0.036308  0.052527  0  3.97495  0
C  C69  1  0.16876581  0.55340268  0.53340394  1  -0.02975  0  -0.075414  -0.154777  0  3.980215  0
C  C70  1  0.12565710  0.50369099  0.50474890  1  0.027014  0  -0.000431  0.047355  0  4.099199  0
C  C71  1  0.17074301  0.45466933  0.47520718  1  0.464216  0  0.117167  0.236284  0  4.086858  0
C  C72  1  0.25581760  0.46006902  0.47640929  1  0.598946  0  0.047528  -0.023078  0  3.885608  0
C  C73  1  0.04025811  0.50185118  0.50406467  1  -0.013742  0  -0.037856  -0.09541  0  4.127976  0
C  C74  1  0.96629311  0.49824580  0.50095159  1  -0.39871  0  -0.037887  -0.095373  0  4.127405  0
C  C75  1  0.88089420  0.49919456  0.49963543  1  0.150143  0  0.000185  0.049584  0  4.098541  0
C  C76  1  0.83726665  0.54930708  0.52919995  1  0.455435  0  0.117872  0.234115  0  4.072301  0
C  C77  1  0.75209133  0.54858678  0.52642187  1  0.582499  0  0.051307  -0.016689  0  3.874737  0
C  C78  1  0.75251498  0.45555011  0.46976713  1  0.43325  0  0.035081  0.051576  0  3.978738  0
C  C79  1  0.83639248  0.45230830  0.46989587  1  0.01809  0  -0.079215  -0.160679  0  3.990924  0
C  C80  1  0.50592078  0.73637089  0.50187673  1  0.011218  0  -0.019951  -0.009285  0  4.001712  0
C  C81  1  0.57893189  0.77701363  0.50357245  1  -0.050149  0  -0.106504  -0.137211  0  4.047809  0
C  C82  1  0.57649347  0.85473936  0.50413393  1  0.011204  0  -0.092648  -0.119848  0  4.019352  0
C  C83  1  0.50210916  0.89400819  0.50333889  1  0.058397  0  -0.01565  0.027126  0  4.097855  0
C  C84  1  0.42805005  0.85259954  0.50156413  1  0.382399  0  0.101244  0.266873  0  4.071134  0
C  C85  1  0.43175058  0.77412633  0.50066021  1  0.047131  0  -0.101523  -0.220886  0  3.952972  0
C  C86  1  0.49923911  0.97303660  0.50398410  1  -0.326933  0  -0.052508  -0.114724  0  4.156875  0
C  C87  1  0.49176740  0.04149361  0.50478207  1  -0.105338  0  -0.048918  -0.10655  0  4.152748  0
C  C88  1  0.49219040  0.12055606  0.50504874  1  0.151628  0  -0.016763  0.024552  0  4.097218  0
C  C89  1  0.56849001  0.15851818  0.50276640  1  0.357812  0  0.105052  0.270881  0  4.07004  0
C  C90  1  0.56907537  0.23705656  0.50120177  1  0.01222  0  -0.099881  -0.216491  0  3.94825  0
C  C91  1  0.49700192  0.27791899  0.50275385  1  0.029079  0  -0.017773  -0.003864  0  3.998054  0
C  C92  1  0.42194317  0.24079424  0.50637473  1  -0.052333  0  -0.107693  -0.138095  0  4.043552  0
C  C93  1  0.42004507  0.16309779  0.50723280  1  -0.040033  0  -0.09293  -0.120825  0  4.026787  0
C  C94  1  0.50034359  0.46981274  0.73901860  1  0.037348  0  -0.041232  -0.210619  0  3.949368  0
C  C95  1  0.55966984  0.42373079  0.71461853  1  -0.053548  0  -0.035662  -0.052485  0  4.037744  0
C  C96  1  0.43389514  0.49893454  0.71471240  1  0.634432  0  0.084157  0.222518  0  4.024331  0
C  C97  1  0.61258329  0.37340597  0.73738260  1  0.523438  0  0.040384  0.113431  0  4.121916  0
C  C98  1  0.66405227  0.32438028  0.71323127  1  0.497987  0  0.050368  0.109667  0  4.136602  0
C  C99  1  0.50012177  0.46894215  0.64044209  1  0.035581  0  -0.042017  -0.211992  0  3.950873  0
C  C100  1  0.43399048  0.49889732  0.66534225  1  0.494916  0  0.084918  0.223119  0  4.027049  0
C  C101  1  0.55913976  0.42284929  0.66443229  1  0.134728  0  -0.035208  -0.050921  0  4.036392  0
C  C102  1  0.61097256  0.37119467  0.64135983  1  0.480289  0  0.039169  0.111451  0  4.123876  0
C  C103  1  0.66308574  0.32314308  0.66517274  1  0.557732  0  0.050101  0.109733  0  4.138613  0
C  C104  1  0.49806757  0.50665873  0.02314524  1  0.004782  0  -0.019136  -0.00576  0  3.997046  0
C  C105  1  0.42216831  0.50513109  0.04560514  1  0.035184  0  -0.107222  -0.137216  0  4.04343  0
C  C106  1  0.41855654  0.50595065  0.09338332  1  -0.055117  0  -0.092816  -0.119457  0  4.02477  0
C  C107  1  0.48983326  0.50763515  0.12008272  1  0.088468  0  -0.018313  0.02468  0  4.0982  0
C  C108  1  0.56692182  0.50916803  0.09722239  1  0.306913  0  0.100855  0.265811  0  4.070874  0
C  C109  1  0.56929203  0.50886614  0.04885777  1  0.107364  0  -0.103615  -0.225378  0  3.960548  0
C  C110  1  0.48749837  0.50742476  0.16873137  1  -0.108818  0  -0.052223  -0.111372  0  4.158793  0
C  C111  1  0.49285360  0.50725132  0.21092058  1  -0.347287  0  -0.052669  -0.113469  0  4.160742  0
C  C112  1  0.49446066  0.50692067  0.25956843  1  0.098576  0  -0.018584  0.024134  0  4.098028  0
C  C113  1  0.41999060  0.50426507  0.28497442  1  0.359417  0  0.100669  0.266669  0  4.069654  0
C  C114  1  0.42290229  0.50276013  0.33329835  1  0.07244  0  -0.104085  -0.225312  0  3.958112  0
C  C115  1  0.49672870  0.50494683  0.35655159  1  0.026985  0  -0.018661  -0.004539  0  3.996005  0
C  C116  1  0.57008310  0.50824781  0.33158642  1  0.030379  0  -0.10665  -0.13818  0  4.045132  0
C  C117  1  0.56846916  0.50890703  0.28379206  1  -0.041958  0  -0.092444  -0.118549  0  4.02186  0
C  C118  1  0.75286222  0.55326571  0.84879019  1  0.448616  0  0.037487  0.055466  0  3.971141  0
C  C119  1  0.83676586  0.55217667  0.84654759  1  0.03232  0  -0.07629  -0.156239  0  3.981555  0
C  C120  1  0.88103013  0.50442885  0.87564830  1  0.133494  0  0.000197  0.049701  0  4.096138  0
C  C121  1  0.83717973  0.45725948  0.90668275  1  0.452608  0  0.116958  0.234082  0  4.080876  0
C  C122  1  0.75205552  0.46255704  0.90647688  1  0.587386  0  0.04748  -0.023532  0  3.886635  0
C  C123  1  0.96646537  0.50263797  0.87511133  1  -0.394373  0  -0.037553  -0.09508  0  4.126469  0
C  C124  1  0.04057129  0.49908434  0.87691184  1  -0.135332  0  -0.037403  -0.094625  0  4.127066  0
C  C125  1  0.12601302  0.49978983  0.87720602  1  0.171896  0  0.000345  0.048275  0  4.098634  0
C  C126  1  0.16892635  0.55026172  0.84775781  1  0.49554  0  0.119237  0.236585  0  4.070817  0
C  C127  1  0.25413039  0.55000463  0.85028567  1  0.542268  0  0.052067  -0.018492  0  3.87781  0
C  C128  1  0.25504863  0.45568075  0.90566682  1  0.455604  0  0.034857  0.050983  0  3.979012  0
C  C129  1  0.17118382  0.45228373  0.90602565  1  0.007598  0  -0.079029  -0.159858  0  3.989564  0
C  C130  1  0.49735731  0.73806299  0.87773719  1  0.006626  0  -0.020279  -0.010197  0  4.004405  0
C  C131  1  0.42281237  0.77645471  0.87820444  1  0.072448  0  -0.107763  -0.137839  0  4.046733  0
C  C132  1  0.42223806  0.85415378  0.87712302  1  -0.05572  0  -0.092668  -0.120138  0  4.024116  0
C  C133  1  0.49515107  0.89566131  0.87595116  1  0.10176  0  -0.015438  0.028519  0  4.098143  0
C  C134  1  0.57083830  0.85658992  0.87588801  1  0.44949  0  0.102236  0.267084  0  4.071379  0
C  C135  1  0.57016986  0.77799439  0.87661627  1  -0.004297  0  -0.101931  -0.222247  0  3.954662  0
C  C136  1  0.49574801  0.97470219  0.87516654  1  -0.056197  0  -0.052851  -0.115458  0  4.15699  0
C  C137  1  0.50331899  0.04312568  0.87425737  1  -0.490578  0  -0.048855  -0.1065  0  4.154579  0
C  C138  1  0.50522550  0.12213656  0.87373858  1  0.198955  0  -0.01589  0.026403  0  4.096503  0
C  C139  1  0.43042684  0.16245211  0.87256869  1  0.345757  0  0.103226  0.269119  0  4.072765  0
C  C140  1  0.43276974  0.24101103  0.87357868  1  0.093869  0  -0.100619  -0.220202  0  3.946585  0
C  C141  1  0.50630106  0.27956141  0.87593661  1  -0.046722  0  -0.017536  -0.004626  0  3.996507  0
C  C142  1  0.58006456  0.24001119  0.87620851  1  0.006471  0  -0.104658  -0.129596  0  4.038781  0
C  C143  1  0.57901824  0.16234869  0.87490244  1  -0.071826  0  -0.091298  -0.119052  0  4.017615  0
N  N144  1  0.29470687  0.50844701  0.50369205  1  -1.243159  0  -0.319554  -0.172843  0  3.587903  0
N  N145  1  0.71184363  0.50335807  0.49775541  1  -1.226962  0  -0.31894  -0.171274  0  3.578324  0
N  N146  1  0.71205671  0.50905357  0.87867852  1  -1.237569  0  -0.319564  -0.17107  0  3.582479  0
N  N147  1  0.29501450  0.50440350  0.87816728  1  -1.232638  0  -0.318991  -0.170479  0  3.58307  0
N  N148  1  0.13316839  0.40417791  0.44718375  1  -1.22937  0  -0.579989  -0.608205  0  3.36933  0
N  N149  1  0.87663891  0.59775925  0.55800230  1  -1.264603  0  -0.578425  -0.602016  0  3.342318  0
N  N150  1  0.35468084  0.88988095  0.50231599  1  -1.251206  0  -0.59716  -0.619428  0  3.3374  0
N  N151  1  0.63951158  0.11798119  0.50345787  1  -1.225557  0  -0.594468  -0.615345  0  3.349978  0
N  N152  1  0.63702143  0.51379636  0.12285593  1  -1.251683  0  -0.598584  -0.620451  0  3.340745  0
N  N153  1  0.34703546  0.50609889  0.26187388  1  -1.197084  0  -0.598883  -0.622037  0  3.339051  0
N  N154  1  0.87604929  0.40789174  0.93481365  1  -1.255817  0  -0.580535  -0.605804  0  3.359173  0
N  N155  1  0.12915616  0.59883508  0.81943282  1  -1.207725  0  -0.577526  -0.60008  0  3.334969  0
N  N156  1  0.64252019  0.89630487  0.87344080  1  -1.215418  0  -0.596391  -0.618694  0  3.338827  0
N  N157  1  0.35806718  0.12416605  0.86911292  1  -1.22203  0  -0.595465  -0.618137  0  3.34641  0
O  O158  1  0.57386552  0.61905902  0.50714681  1  -1.164379  0  -0.318127  -0.545828  0  2.324247  0
O  O159  1  0.43824052  0.62008762  0.49457377  1  -1.16568  0  -0.321352  -0.549894  0  2.34725  0
O  O160  1  0.44257382  0.51857981  0.57172827  1  -1.166035  0  -0.314813  -0.550217  0  2.369084  0
O  O161  1  0.57453260  0.48801107  0.56968969  1  -1.171881  0  -0.314798  -0.549937  0  2.367431  0
O  O162  1  0.43361755  0.39658999  0.50825113  1  -1.164833  0  -0.318871  -0.547908  0  2.343274  0
O  O163  1  0.56818254  0.39248785  0.49179420  1  -1.16914  0  -0.319189  -0.552039  0  2.3319  0
O  O164  1  0.56581138  0.51580987  0.42762774  1  -1.164256  0  -0.32007  -0.547073  0  2.313815  0
O  O165  1  0.43001126  0.49456442  0.42913359  1  -1.173828  0  -0.323958  -0.558835  0  2.318068  0
O  O166  1  0.43114154  0.62081205  0.88451195  1  -1.161251  0  -0.319269  -0.546311  0  2.335827  0
O  O167  1  0.56745739  0.62185980  0.87329648  1  -1.16546  0  -0.319932  -0.547268  0  2.332371  0
O  O168  1  0.57458127  0.49191892  0.80900101  1  -1.176597  0  -0.313502  -0.546889  0  2.361105  0
O  O169  1  0.44158265  0.51820594  0.80839427  1  -1.173303  0  -0.315472  -0.552938  0  2.375701  0
O  O170  1  0.57256796  0.39645445  0.88679953  1  -1.173262  0  -0.318825  -0.552501  0  2.337661  0
O  O171  1  0.43805149  0.39603314  0.87118706  1  -1.163585  0  -0.319888  -0.549146  0  2.338786  0
O  O172  1  0.43575102  0.49607236  0.95021126  1  -1.174757  0  -0.320401  -0.552312  0  2.330895  0
O  O173  1  0.57137326  0.51791156  0.95254213  1  -1.167689  0  -0.324466  -0.55321  0  2.301292  0
O  O174  1  0.37122706  0.53472469  0.64597404  1  -1.129499  0  -0.361132  -0.432998  0  2.295129  0
O  O175  1  0.37067933  0.53428504  0.73474253  1  -1.16332  0  -0.364172  -0.437891  0  2.294323  0
O  O176  1  0.61193499  0.35717155  0.59465439  1  -1.195935  0  -0.382491  -0.487589  0  2.368727  0
O  O177  1  0.71018209  0.27361445  0.64089453  1  -1.136559  0  -0.36806  -0.419556  0  2.248724  0
O  O178  1  0.71228576  0.27623736  0.73725581  1  -1.12449  0  -0.368705  -0.419951  0  2.24605  0
O  O179  1  0.61542778  0.36161244  0.78419883  1  -1.185319  0  -0.381472  -0.486225  0  2.374883  0
