# generated using pymatgen
data_Al4H28C45(NO10)2
_symmetry_space_group_name_H-M   'P 1'
_cell_length_a   6.66417892
_cell_length_b   15.32553643
_cell_length_c   17.60593360
_cell_angle_alpha   78.42910043
_cell_angle_beta   85.00806010
_cell_angle_gamma   86.78991670
_symmetry_Int_Tables_number   1
_chemical_formula_structural   Al4H28C45(NO10)2
_chemical_formula_sum   'Al4 H28 C45 N2 O20'
_cell_volume   1753.53740869
_cell_formula_units_Z   1
loop_
 _symmetry_equiv_pos_site_id
 _symmetry_equiv_pos_as_xyz
  1  'x, y, z'
loop_
 _atom_site_type_symbol
 _atom_site_label
 _atom_site_symmetry_multiplicity
 _atom_site_fract_x
 _atom_site_fract_y
 _atom_site_fract_z
 _atom_site_occupancy
 _atom_site_pbe_bader_charge
 _atom_site_pbe_bader_spin_density
 _atom_site_pbe_cm5_charge
 _atom_site_pbe_ddec_charge
 _atom_site_pbe_ddec_spin_density
 _atom_site_pbe_ddec_sum_bond_order
 _atom_site_pbe_magmom
Al  Al0  1  0.86251592  0.49987300  0.50054065  1  2.501563  0  0.395798  1.640619  0  2.582423  0
Al  Al1  1  0.36323566  0.49978716  0.50140237  1  2.500512  0  0.393908  1.638496  0  2.587065  0
Al  Al2  1  0.37266948  0.99865097  0.99804404  1  2.501444  0  0.395059  1.638852  0  2.57868  0
Al  Al3  1  0.86997709  0.99993183  0.99839064  1  2.501533  0  0.394978  1.632392  0  2.581308  0
H  H4  1  0.77180015  0.10422954  0.20140500  1  0.115931  0  0.113304  0.120552  0  0.995744  0
H  H5  1  0.50229467  0.31541775  0.18821310  1  0.094217  0  0.105131  0.110571  0  1.013276  0
H  H6  1  0.73899713  0.19703786  0.30401578  1  0.077002  0  0.108164  0.109309  0  0.989767  0
H  H7  1  0.47136074  0.40287759  0.29404948  1  0.11923  0  0.110102  0.11563  0  0.996303  0
H  H8  1  0.87888278  0.30749492  0.36792762  1  0.108468  0  0.113797  0.123602  0  0.990852  0
H  H9  1  0.30206156  0.19570751  0.63999072  1  0.074869  0  0.096887  0.08031  0  0.99708  0
H  H10  1  0.47187167  0.21780058  0.77808182  1  0.076578  0  0.100852  0.090844  0  1.00915  0
H  H11  1  0.26147376  0.38717926  0.76426202  1  0.066136  0  0.10127  0.087469  0  0.991953  0
H  H12  1  0.93098447  0.30093978  0.85958895  1  0.099558  0  0.103398  0.092388  0  0.98645  0
H  H13  1  0.76144993  0.27872330  0.72212629  1  0.05776  0  0.097373  0.083229  0  1.016814  0
H  H14  1  0.97226499  0.10969641  0.73529925  1  0.069551  0  0.101362  0.088712  0  0.992146  0
H  H15  1  0.62251523  0.90025754  0.27371917  1  0.077572  0  0.101012  0.086584  0  0.990392  0
H  H16  1  0.32545447  0.77429372  0.34024106  1  0.081692  0  0.099418  0.093148  0  0.994685  0
H  H17  1  0.60826096  0.59629377  0.22622820  1  0.034758  0  0.09737  0.093357  0  0.996062  0
H  H18  1  0.89958081  0.72482347  0.15773940  1  0.07386  0  0.098163  0.086494  0  1.025802  0
H  H19  1  0.92967069  0.76468505  0.30774781  1  0.05649  0  0.096767  0.082657  0  1.006618  0
H  H20  1  0.38079121  0.81093274  0.86830696  1  0.105593  0  0.111594  0.121068  0  0.996475  0
H  H21  1  0.98410758  0.89380158  0.79541369  1  0.111048  0  0.108935  0.115251  0  0.998297  0
H  H22  1  0.22977918  0.70064293  0.80540442  1  0.067244  0  0.102715  0.105779  0  1.002505  0
H  H23  1  0.00923943  0.80033658  0.69355836  1  0.046427  0  0.101878  0.103163  0  1.006196  0
H  H24  1  0.25461528  0.60715059  0.70363737  1  0.104968  0  0.108051  0.114577  0  0.99905  0
H  H25  1  0.85768523  0.69012883  0.63040056  1  0.086434  0  0.110297  0.119225  0  0.997162  0
H  H26  1  0.16597981  0.68848572  0.21791535  1  0.392534  0  0.289986  0.275764  0  0.975953  0
H  H27  1  0.27625686  0.72390903  0.12970325  1  0.395771  0  0.292507  0.277938  0  0.958022  0
H  H28  1  0.61714780  0.38616282  0.53906045  1  0.616804  0  0.351112  0.425894  0  0.861289  0
H  H29  1  0.10680498  0.61595077  0.46991837  1  0.606296  0  0.351286  0.425949  0  0.860932  0
H  H30  1  0.60412115  0.11202237  0.01254178  1  0.628428  0  0.33293  0.420717  0  0.891428  0
H  H31  1  0.12113609  0.89104057  0.04728359  1  0.609668  0  0.342344  0.415853  0  0.884258  0
C  C32  1  0.62876490  0.62036695  0.38976381  1  1.565437  0  0.267072  0.645469  0  4.099678  0
C  C33  1  0.57219560  0.58943403  0.59972930  1  1.553377  0  0.263869  0.634474  0  4.109905  0
C  C34  1  0.09620627  0.37960694  0.61203000  1  1.553893  0  0.271728  0.652758  0  4.089828  0
C  C35  1  0.15544118  0.41235566  0.40035542  1  1.580922  0  0.261957  0.627768  0  4.119776  0
C  C36  1  0.06658058  0.14809731  0.15643961  1  0.007797  0  0.007517  -0.043918  0  3.909599  0
C  C37  1  0.17191486  0.35987463  0.33682982  1  -0.027589  0  -0.012394  -0.033546  0  3.982251  0
C  C38  1  0.36672045  0.31289309  0.22790131  1  -0.095359  0  -0.090031  -0.138912  0  3.998497  0
C  C39  1  0.34966555  0.36176032  0.28599111  1  0.00134  0  -0.08121  -0.090836  0  3.985621  0
C  C40  1  0.01514515  0.30784506  0.32876606  1  -0.056641  0  -0.072351  -0.131818  0  3.917803  0
C  C41  1  0.03086984  0.25447957  0.27140808  1  0.00457  0  -0.002149  0.076663  0  4.016465  0
C  C42  1  0.20972568  0.25740429  0.21944781  1  0.025279  0  0.007757  0.050772  0  3.952064  0
C  C43  1  0.22363702  0.20309239  0.16148659  1  0.074449  0  0.015849  -0.006488  0  4.008916  0
C  C44  1  0.89162448  0.14686855  0.20810475  1  -0.000756  0  -0.078643  -0.091  0  3.994132  0
C  C45  1  0.87424886  0.19832796  0.26418073  1  -0.054606  0  -0.075609  -0.112896  0  3.969402  0
C  C46  1  0.31490951  0.23220592  0.76464151  1  -0.028133  0  -0.077425  -0.072775  0  3.648655  0
C  C47  1  0.22057695  0.21808119  0.68977313  1  -0.044292  0  -0.072834  -0.062237  0  3.641056  0
C  C48  1  0.10075044  0.31042974  0.68359955  1  0.010416  0  -0.008237  -0.049064  0  3.670303  0
C  C49  1  0.19779801  0.32455292  0.75905567  1  -0.046518  0  -0.066367  -0.054414  0  3.610271  0
C  C50  1  0.01322527  0.27873149  0.80990432  1  -0.0367  0  -0.068985  -0.059412  0  3.619996  0
C  C51  1  0.91889801  0.26460875  0.73502661  1  -0.026341  0  -0.077733  -0.069622  0  3.652691  0
C  C52  1  0.03602472  0.17226536  0.74060266  1  -0.036506  0  -0.067728  -0.05962  0  3.614159  0
C  C53  1  0.13281842  0.18648989  0.81598055  1  0.011399  0  -0.003388  -0.034883  0  3.654463  0
C  C54  1  0.45409007  0.76340999  0.29966656  1  -0.054918  0  -0.079645  -0.125587  0  3.634013  0
C  C55  1  0.61912530  0.83199877  0.26415719  1  -0.040838  0  -0.064451  -0.042807  0  3.613182  0
C  C56  1  0.60598355  0.80803388  0.18127710  1  -0.013097  0  -0.006199  -0.09157  0  3.634357  0
C  C57  1  0.43903364  0.73975496  0.21783654  1  0.4693  0  0.093772  0.261975  0  3.753906  0
C  C58  1  0.61180129  0.66469942  0.23567092  1  -0.049035  0  -0.080082  -0.140389  0  3.61004  0
C  C59  1  0.77439276  0.73388431  0.20001002  1  -0.021738  0  -0.082482  -0.067352  0  3.682947  0
C  C60  1  0.78987088  0.75778843  0.28161381  1  -0.01909  0  -0.074573  -0.063513  0  3.634566  0
C  C61  1  0.62417803  0.68968739  0.31819548  1  0.005622  0  -0.008245  -0.034375  0  3.680711  0
C  C62  1  0.67966833  0.85676165  0.83756977  1  -0.01203  0  -0.016194  -0.040394  0  3.990964  0
C  C63  1  0.55878382  0.64429680  0.66118718  1  -0.009322  0  -0.018061  -0.04273  0  3.991712  0
C  C64  1  0.36618254  0.69877780  0.76659867  1  -0.057998  0  -0.087866  -0.132553  0  3.996971  0
C  C65  1  0.37946694  0.64699453  0.71076951  1  -0.026423  0  -0.08827  -0.106011  0  4.002954  0
C  C66  1  0.72086836  0.69395045  0.66856791  1  -0.060609  0  -0.075397  -0.132841  0  3.92175  0
C  C67  1  0.70991912  0.74932191  0.72422334  1  -0.023372  0  -0.006109  0.075495  0  4.0035  0
C  C68  1  0.52871385  0.75180020  0.77444551  1  0.022484  0  -0.004667  0.076158  0  4.003654  0
C  C69  1  0.51760750  0.80715208  0.83010876  1  -0.052831  0  -0.074961  -0.134291  0  3.922844  0
C  C70  1  0.85913358  0.85410122  0.78804475  1  -0.071141  0  -0.087472  -0.105532  0  3.999625  0
C  C71  1  0.87251075  0.80230628  0.73219004  1  -0.008993  0  -0.089396  -0.134926  0  4.000512  0
C  C72  1  0.66522777  0.91141010  0.89921600  1  1.562843  0  0.26747  0.633569  0  4.109291  0
C  C73  1  0.60384641  0.87760129  0.10959527  1  1.548709  0  0.265812  0.650496  0  4.097857  0
C  C74  1  0.07905120  0.09046744  0.09663023  1  1.596213  0  0.267944  0.630796  0  4.114906  0
C  C75  1  0.13845562  0.11713488  0.88756911  1  1.577844  0  0.270918  0.642212  0  4.107202  0
C  C76  1  0.40070204  0.20948907  0.10908057  1  0.869934  0  0.19339  0.264581  0  4.027331  0
N  N77  1  0.55050330  0.22208368  0.06933703  1  -1.165499  0  -0.304425  -0.371895  0  2.748628  0
N  N78  1  0.25433526  0.73636153  0.18477357  1  -1.142166  0  -0.609872  -0.643179  0  3.302479  0
O  O79  1  0.40946242  0.55753163  0.58599763  1  -1.255212  0  -0.238278  -0.5917  0  2.336586  0
O  O80  1  0.79960171  0.58470397  0.40853310  1  -1.262698  0  -0.239241  -0.592768  0  2.308624  0
O  O81  1  0.98138413  0.42034045  0.43498159  1  -1.256842  0  -0.237921  -0.595221  0  2.353225  0
O  O82  1  0.74515538  0.58015779  0.56441784  1  -1.270717  0  -0.241304  -0.606139  0  2.366768  0
O  O83  1  0.92598281  0.41459807  0.59186061  1  -1.263041  0  -0.235276  -0.590406  0  2.314641  0
O  O84  1  0.45888991  0.59997059  0.42657358  1  -1.26878  0  -0.236478  -0.600507  0  2.341015  0
O  O85  1  0.61914772  0.44403684  0.50447681  1  -1.423199  0  -0.449252  -0.987328  0  2.185794  0
O  O86  1  0.26683258  0.39960320  0.57537116  1  -1.26627  0  -0.24007  -0.607971  0  2.332241  0
O  O87  1  0.31757591  0.44328185  0.41534219  1  -1.248777  0  -0.234958  -0.582362  0  2.339324  0
O  O88  1  0.10670144  0.55450691  0.49739000  1  -1.411732  0  -0.448721  -0.989644  0  2.201708  0
O  O89  1  0.77477676  0.89729618  0.07319763  1  -1.257965  0  -0.239041  -0.600964  0  2.330899  0
O  O90  1  0.49276395  0.91918360  0.93512387  1  -1.263461  0  -0.234788  -0.594501  0  2.36808  0
O  O91  1  0.30805111  0.07993699  0.90548978  1  -1.257561  0  -0.230595  -0.574974  0  2.312439  0
O  O92  1  0.43332186  0.91318287  0.09060880  1  -1.253159  0  -0.239795  -0.593637  0  2.333848  0
O  O93  1  0.25232690  0.08000044  0.06256004  1  -1.250009  0  -0.224514  -0.5861  0  2.40174  0
O  O94  1  0.82627779  0.94458709  0.91275436  1  -1.25273  0  -0.23135  -0.575914  0  2.328904  0
O  O95  1  0.61403862  0.05393160  0.99745401  1  -1.437299  0  -0.451762  -0.998501  0  2.188553  0
O  O96  1  0.91633683  0.05760969  0.08500920  1  -1.240202  0  -0.229142  -0.571795  0  2.338509  0
O  O97  1  0.96933593  0.09976796  0.92596515  1  -1.262935  0  -0.23543  -0.592042  0  2.339449  0
O  O98  1  0.12609827  0.94313490  0.00537169  1  -1.416637  0  -0.451434  -0.98572  0  2.173009  0
