# generated using pymatgen
data_Zr3H37C49NO16
_symmetry_space_group_name_H-M   'P 1'
_cell_length_a   19.08508536
_cell_length_b   19.06992938
_cell_length_c   19.07869847
_cell_angle_alpha   59.83813751
_cell_angle_beta   59.95466031
_cell_angle_gamma   60.01158059
_symmetry_Int_Tables_number   1
_chemical_formula_structural   Zr3H37C49NO16
_chemical_formula_sum   'Zr6 H74 C98 N2 O32'
_cell_volume   4902.66324240
_cell_formula_units_Z   2
loop_
 _symmetry_equiv_pos_site_id
 _symmetry_equiv_pos_as_xyz
  1  'x, y, z'
loop_
 _atom_site_type_symbol
 _atom_site_label
 _atom_site_symmetry_multiplicity
 _atom_site_fract_x
 _atom_site_fract_y
 _atom_site_fract_z
 _atom_site_occupancy
 _atom_site_pbe_bader_charge
 _atom_site_pbe_bader_spin_density
 _atom_site_pbe_cm5_charge
 _atom_site_pbe_ddec_charge
 _atom_site_pbe_ddec_spin_density
 _atom_site_pbe_ddec_sum_bond_order
 _atom_site_pbe_magmom
Zr  Zr0  1  0.90370877  0.41106639  0.58984120  1  2.634061  0  1.631706  2.3678  0  2.777146  0
Zr  Zr1  1  0.09531905  0.58918356  0.41189364  1  2.63456  0  1.631659  2.367525  0  2.776461  0
Zr  Zr2  1  0.08887103  0.40345019  0.59729041  1  2.635253  0  1.623373  2.372301  0  2.750306  0
Zr  Zr3  1  0.91042063  0.59653463  0.40417886  1  2.634938  0  1.623629  2.372626  0  2.750167  0
Zr  Zr4  1  0.90702521  0.59254240  0.59335559  1  2.637963  0  1.628007  2.368166  0  2.765007  0
Zr  Zr5  1  0.09196083  0.40774540  0.40839538  1  2.633702  0  1.631953  2.368462  0  2.773467  0
H  H6  1  0.92140982  0.42689265  0.71997565  1  0.621202  0  0.330946  0.422776  0  0.857259  0
H  H7  1  0.93167388  0.71919818  0.42770205  1  0.595548  0  0.33031  0.421736  0  0.858942  0
H  H8  1  0.21798823  0.42180160  0.43342758  1  0.613666  0  0.331468  0.422372  0  0.85975  0
H  H9  1  0.92697946  0.43276570  0.42226547  1  0.619629  0  0.331273  0.422387  0  0.859257  0
H  H10  1  0.46312874  0.60336545  0.05214532  1  0.048611  0  0.09767  0.097499  0  1.022726  0
H  H11  1  0.55996114  0.37733454  0.97199173  1  0.059228  0  0.097567  0.097334  0  1.023029  0
H  H12  1  0.64656009  0.63639655  0.78369945  1  0.117782  0  0.106469  0.11109  0  1.000373  0
H  H13  1  0.51188077  0.64458482  0.90942840  1  0.058136  0  0.101338  0.101986  0  1.00534  0
H  H14  1  0.29715269  0.41471956  0.16439468  1  0.088414  0  0.105613  0.109651  0  1.007166  0
H  H15  1  0.41888701  0.41819400  0.02654369  1  0.055473  0  0.100444  0.100929  0  1.007189  0
H  H16  1  0.08943893  0.97224271  0.37720948  1  0.069184  0  0.097877  0.097773  0  1.022233  0
H  H17  1  0.88038052  0.05266122  0.60266288  1  0.057677  0  0.097852  0.097273  0  1.022595  0
H  H18  1  0.12376702  0.16357279  0.41542717  1  0.117936  0  0.105829  0.109679  0  1.006886  0
H  H19  1  0.13603891  0.02592312  0.41872301  1  0.060427  0  0.100254  0.101028  0  1.006619  0
H  H20  1  0.93296716  0.78350756  0.63690588  1  0.072172  0  0.106713  0.111384  0  1.000034  0
H  H21  1  0.93367893  0.90947795  0.64474847  1  0.036337  0  0.101435  0.102251  0  1.005081  0
H  H22  1  0.46615015  0.05703969  0.37990847  1  0.017917  0  0.097067  0.096655  0  1.023367  0
H  H23  1  0.55485321  0.97008391  0.59493621  1  0.037782  0  0.098278  0.098926  0  1.020087  0
H  H24  1  0.65783073  0.79099833  0.42268962  1  0.083376  0  0.104017  0.108239  0  1.007494  0
H  H25  1  0.51881512  0.91137901  0.42727471  1  0.038175  0  0.099925  0.10048  0  1.006102  0
H  H26  1  0.28230983  0.14515566  0.63752142  1  0.085262  0  0.105906  0.110583  0  1.000389  0
H  H27  1  0.40812351  0.01060760  0.64549308  1  0.051501  0  0.101519  0.102782  0  1.004145  0
H  H28  1  0.88107509  0.59540377  0.96983185  1  0.048963  0  0.098302  0.099061  0  1.019573  0
H  H29  1  0.09801966  0.38010506  0.05666317  1  0.035393  0  0.097112  0.097111  0  1.023277  0
H  H30  1  0.93549836  0.63727524  0.14548385  1  0.075172  0  0.106117  0.11084  0  1.000316  0
H  H31  1  0.93654556  0.64553199  0.01066970  1  0.056128  0  0.101145  0.102095  0  1.004846  0
H  H32  1  0.12874834  0.42220407  0.79136135  1  0.084464  0  0.104324  0.10817  0  1.007757  0
H  H33  1  0.14318621  0.42713173  0.91130883  1  0.067643  0  0.100021  0.100395  0  1.005614  0
H  H34  1  0.12290406  0.82118426  0.17012290  1  0.072237  0  0.103323  0.109771  0  1.014028  0
H  H35  1  0.18486614  0.93489200  0.05528777  1  0.012264  0  0.097374  0.11114  0  1.003653  0
H  H36  1  0.90157232  0.80914519  0.17759271  1  0.07159  0  0.103664  0.106364  0  1.032687  0
H  H37  1  0.88585252  0.16930132  0.82177632  1  0.072995  0  0.103159  0.109712  0  1.01322  0
H  H38  1  0.82495802  0.05450753  0.93557530  1  0.024165  0  0.097448  0.111366  0  1.003689  0
H  H39  1  0.11161858  0.17692161  0.80987945  1  0.087205  0  0.103772  0.106497  0  1.032691  0
H  H40  1  0.47127885  0.37746372  0.59862607  1  0.064227  0  0.097361  0.097346  0  1.022603  0
H  H41  1  0.55265902  0.59818358  0.37802147  1  0.033984  0  0.097696  0.097767  0  1.021505  0
H  H42  1  0.65575067  0.43317920  0.62651349  1  0.098394  0  0.106367  0.110885  0  1.004403  0
H  H43  1  0.51975731  0.43098807  0.64129283  1  0.04798  0  0.100513  0.101071  0  1.006468  0
H  H44  1  0.28431470  0.62593796  0.43410450  1  0.07255  0  0.106175  0.110622  0  1.004168  0
H  H45  1  0.40780308  0.64078347  0.43166368  1  0.0209  0  0.100686  0.101221  0  1.005703  0
H  H46  1  0.38373693  0.65544891  0.15941877  1  0.042896  0  0.084076  0.112589  0  1.012873  0
H  H47  1  0.33344231  0.58921824  0.26195798  1  0.068643  0  0.09581  0.14021  0  0.999071  0
H  H48  1  0.27174550  0.67246710  0.19663799  1  0.06691  0  0.096764  0.140195  0  0.99819  0
H  H49  1  0.67343761  0.29604993  0.89628768  1  0.008235  0  0.08428  0.113818  0  1.01013  0
H  H50  1  0.76879461  0.32418535  0.82926690  1  0.072974  0  0.094125  0.138245  0  1.012574  0
H  H51  1  0.69524979  0.35094453  0.78329918  1  0.055174  0  0.096397  0.13766  0  0.992838  0
H  H52  1  0.13228981  0.89665402  0.29596612  1  0.022808  0  0.084356  0.113909  0  1.010088  0
H  H53  1  0.07662794  0.82858975  0.32483632  1  0.06322  0  0.094264  0.138529  0  1.014179  0
H  H54  1  0.16968362  0.78379500  0.35078014  1  0.061722  0  0.096421  0.138063  0  0.992167  0
H  H55  1  0.80005802  0.16068977  0.65365775  1  0.018727  0  0.084191  0.112858  0  1.012946  0
H  H56  1  0.81536359  0.26275975  0.58839155  1  0.051336  0  0.095947  0.140659  0  0.999207  0
H  H57  1  0.85781745  0.19622822  0.67255745  1  0.054899  0  0.096839  0.140489  0  0.99736  0
H  H58  1  0.38890562  0.16845186  0.29952079  1  0.026461  0  0.084016  0.112725  0  1.011838  0
H  H59  1  0.32752784  0.26594736  0.32388478  1  0.066117  0  0.094983  0.139772  0  1.007154  0
H  H60  1  0.27594136  0.19540672  0.35495391  1  0.060596  0  0.09602  0.137277  0  0.996312  0
H  H61  1  0.67079811  0.90034680  0.63455587  1  0.010702  0  0.085403  0.114983  0  1.008778  0
H  H62  1  0.76883840  0.83887873  0.57482204  1  0.074189  0  0.09541  0.140797  0  1.000042  0
H  H63  1  0.69930274  0.78673840  0.66702260  1  0.055091  0  0.096592  0.137743  0  0.994771  0
H  H64  1  0.79518406  0.63542096  0.90015566  1  0.005246  0  0.085408  0.11534  0  1.009429  0
H  H65  1  0.81755158  0.57494253  0.83978905  1  0.066595  0  0.09552  0.140687  0  0.999349  0
H  H66  1  0.84778865  0.66680259  0.78649337  1  0.056055  0  0.096412  0.13767  0  0.995806  0
H  H67  1  0.14456289  0.29974822  0.16773860  1  0.004152  0  0.084089  0.112882  0  1.012007  0
H  H68  1  0.08354158  0.32345123  0.26559727  1  0.060098  0  0.095191  0.14027  0  1.006047  0
H  H69  1  0.17434529  0.35509281  0.19561300  1  0.051924  0  0.096347  0.137943  0  0.996563  0
H  H70  1  0.39543821  0.29291696  0.64964409  1  0.012399  0  0.085325  0.115146  0  1.009785  0
H  H71  1  0.33663948  0.31265504  0.58879647  1  0.062159  0  0.096152  0.141894  0  0.996887  0
H  H72  1  0.28211709  0.34682647  0.67803738  1  0.06254  0  0.094704  0.135492  0  0.998754  0
H  H73  1  0.66220861  0.64896586  0.29347124  1  0.016017  0  0.085135  0.114762  0  1.009997  0
H  H74  1  0.76206468  0.58807093  0.31329121  1  0.092699  0  0.096265  0.142067  0  0.996439  0
H  H75  1  0.69320884  0.67731098  0.34744716  1  0.051712  0  0.094771  0.135464  0  0.998527  0
H  H76  1  0.18278848  0.13449939  0.87873135  1  0.44815  0  0.303779  0.295469  0  0.963676  0
H  H77  1  0.23332569  0.05362714  0.94961432  1  0.41999  0  0.30706  0.299273  0  0.941714  0
H  H78  1  0.80396157  0.87799694  0.13524882  1  0.423767  0  0.303686  0.296022  0  0.96346  0
H  H79  1  0.76344468  0.94880547  0.05433786  1  0.405381  0  0.307083  0.299132  0  0.94249  0
C  C80  1  0.75654095  0.50531893  0.72893598  1  1.527252  0  0.233963  0.642603  0  4.101933  0
C  C81  1  0.00881426  0.72848629  0.50599977  1  1.542252  0  0.234631  0.643232  0  4.100927  0
C  C82  1  0.23548209  0.50196585  0.26559204  1  1.537592  0  0.234984  0.644277  0  4.096521  0
C  C83  1  0.99697963  0.26499293  0.50240211  1  1.549756  0  0.234785  0.643172  0  4.096028  0
C  C84  1  0.99547957  0.26023865  0.73402879  1  1.549799  0  0.234446  0.640715  0  4.093492  0
C  C85  1  0.76045053  0.51348313  0.49423870  1  1.534514  0  0.233893  0.643373  0  4.090951  0
C  C86  1  0.01015300  0.73337725  0.26104463  1  1.534391  0  0.234874  0.641194  0  4.093324  0
C  C87  1  0.23168192  0.49361821  0.51440595  1  1.536158  0  0.234133  0.644218  0  4.095354  0
C  C88  1  0.99749263  0.50183165  0.73681185  1  1.549214  0  0.234206  0.644075  0  4.095194  0
C  C89  1  0.22684826  0.25601068  0.50671141  1  1.54213  0  0.234376  0.644054  0  4.096011  0
C  C90  1  0.01068265  0.50627220  0.25646610  1  1.53353  0  0.23406  0.64289  0  4.096159  0
C  C91  1  0.76395744  0.73612708  0.50250246  1  1.524021  0  0.233992  0.644074  0  4.09342  0
C  C92  1  0.30998545  0.50818804  0.18427351  1  -0.022025  0  -0.020953  -0.116045  0  3.92093  0
C  C93  1  0.67668060  0.50431224  0.80509527  1  -0.049135  0  -0.020431  -0.111598  0  3.923599  0
C  C94  1  0.35585871  0.56401905  0.15201448  1  0.012457  0  0.006775  0.181847  0  3.921828  0
C  C95  1  0.42559316  0.56295299  0.07562337  1  -0.068137  0  -0.093819  -0.202732  0  3.934352  0
C  C96  1  0.65149377  0.43011393  0.85710238  1  0.002943  0  0.002894  0.174838  0  3.930296  0
C  C97  1  0.57741885  0.43539917  0.92936214  1  -0.074426  0  -0.093657  -0.201131  0  3.939328  0
C  C98  1  0.62599791  0.58016006  0.82565040  1  -0.045108  0  -0.083806  -0.081256  0  4.014441  0
C  C99  1  0.55149113  0.58417445  0.89647213  1  -0.074074  0  -0.095442  -0.145501  0  4.004682  0
C  C100  1  0.33442037  0.45605881  0.13838824  1  -0.058489  0  -0.084273  -0.07932  0  4.016131  0
C  C101  1  0.40293048  0.45750615  0.06201992  1  0.004907  0  -0.096509  -0.148009  0  4.009804  0
C  C102  1  0.45069284  0.51081949  0.02956926  1  -0.027794  0  -0.002344  0.086957  0  4.01286  0
C  C103  1  0.52655818  0.51068572  0.95077805  1  0.045206  0  -0.00289  0.08461  0  4.015933  0
C  C104  1  0.01323181  0.80493636  0.50471384  1  0.011403  0  -0.021365  -0.113455  0  3.92405  0
C  C105  1  0.99726442  0.18396794  0.50830331  1  -0.01903  0  -0.020665  -0.115697  0  3.920209  0
C  C106  1  0.06027834  0.85712103  0.43029177  1  -0.014445  0  0.003776  0.176593  0  3.929404  0
C  C107  1  0.05677740  0.92949167  0.43538164  1  -0.067024  0  -0.094297  -0.202415  0  3.939344  0
C  C108  1  0.92746406  0.15218160  0.56366484  1  -0.010009  0  0.006482  0.181691  0  3.921834  0
C  C109  1  0.93502536  0.07588733  0.56255428  1  -0.005892  0  -0.093746  -0.201996  0  3.934461  0
C  C110  1  0.07092694  0.13787106  0.45642943  1  -0.094022  0  -0.083948  -0.078512  0  4.015475  0
C  C111  1  0.07715000  0.06164189  0.45776979  1  -0.034722  0  -0.097208  -0.149521  0  4.00882  0
C  C112  1  0.96764417  0.82553062  0.58054304  1  -0.042345  0  -0.083613  -0.080859  0  4.013386  0
C  C113  1  0.96727327  0.89647379  0.58436078  1  -0.059878  0  -0.095208  -0.145879  0  4.00373  0
C  C114  1  0.01118954  0.95083563  0.51069221  1  0.016955  0  -0.003266  0.085224  0  4.015158  0
C  C115  1  0.00823380  0.02959362  0.51074536  1  -0.021408  0  -0.002081  0.087142  0  4.013644  0
C  C116  1  0.30210317  0.17537934  0.50587607  1  0.053359  0  -0.020946  -0.115588  0  3.920705  0
C  C117  1  0.68274861  0.81083697  0.50796492  1  -0.019883  0  -0.020249  -0.111836  0  3.918093  0
C  C118  1  0.35268797  0.14959183  0.43214300  1  -0.062951  0  0.004649  0.177728  0  3.924391  0
C  C119  1  0.42460725  0.07514233  0.43753769  1  -0.034596  0  -0.095106  -0.203  0  3.939456  0
C  C120  1  0.65350991  0.86074121  0.55877110  1  -0.025923  0  0.004235  0.177149  0  3.927367  0
C  C121  1  0.57624538  0.92933259  0.55860318  1  0.023081  0  -0.09404  -0.203056  0  3.936258  0
C  C122  1  0.63377843  0.83100281  0.46061725  1  -0.078335  0  -0.085448  -0.081729  0  4.017565  0
C  C123  1  0.55675786  0.89866167  0.46266740  1  -0.008922  0  -0.097177  -0.148373  0  4.0109  0
C  C124  1  0.32348452  0.12456520  0.58144787  1  -0.06386  0  -0.083541  -0.078236  0  4.012813  0
C  C125  1  0.39426140  0.05005079  0.58539693  1  -0.050968  0  -0.095449  -0.146351  0  4.003718  0
C  C126  1  0.44738421  0.02488909  0.51221101  1  0.031282  0  -0.00391  0.084091  0  4.014953  0
C  C127  1  0.52677163  0.94975284  0.51176500  1  -0.027236  0  -0.002409  0.086733  0  4.014591  0
C  C128  1  0.99878705  0.50762557  0.81121255  1  0.027869  0  -0.020302  -0.112464  0  3.919007  0
C  C129  1  0.01724025  0.50569035  0.17554573  1  -0.037202  0  -0.020668  -0.114942  0  3.918853  0
C  C130  1  0.92754778  0.55878053  0.86088808  1  -0.015831  0  0.004304  0.178225  0  3.925252  0
C  C131  1  0.93662364  0.55881813  0.92924104  1  -0.003042  0  -0.094207  -0.204082  0  3.936549  0
C  C132  1  0.06642601  0.43211559  0.14949834  1  0.031581  0  0.004562  0.178088  0  3.924411  0
C  C133  1  0.06369444  0.43765307  0.07491618  1  -0.015578  0  -0.095278  -0.204206  0  3.941261  0
C  C134  1  0.97113922  0.58130327  0.12473118  1  -0.05695  0  -0.084175  -0.078855  0  4.011486  0
C  C135  1  0.97106985  0.58540568  0.05007119  1  0.069415  0  -0.094734  -0.145396  0  4.003647  0
C  C136  1  0.07499009  0.46032158  0.83123906  1  -0.051446  0  -0.086045  -0.081983  0  4.017576  0
C  C137  1  0.08253810  0.46257826  0.89866454  1  -0.091165  0  -0.096883  -0.147427  0  4.008289  0
C  C138  1  0.01250734  0.51187879  0.94963858  1  -0.039342  0  -0.002587  0.086952  0  4.01383  0
C  C139  1  0.01640552  0.51232104  0.02474100  1  -0.115488  0  -0.003276  0.084568  0  4.014514  0
C  C140  1  0.07347373  0.84832999  0.14189441  1  -0.052165  0  -0.08629  -0.150971  0  3.934582  0
C  C141  1  0.07274017  0.92147147  0.06729322  1  -0.009544  0  -0.007729  0.098991  0  4.075729  0
C  C142  1  0.13531261  0.96224915  0.02692109  1  0.050927  0  -0.120114  -0.290084  0  3.995248  0
C  C143  1  0.94722357  0.84311915  0.14530941  1  0.001093  0  -0.092808  -0.152239  0  3.961587  0
C  C144  1  0.94328161  0.91636263  0.07176574  1  -0.010117  0  -0.010704  -0.005655  0  3.99376  0
C  C145  1  0.87646537  0.95352204  0.03511231  1  0.392634  0  0.094165  0.258942  0  4.114373  0
C  C146  1  0.93631652  0.14110582  0.84899068  1  -0.036378  0  -0.086269  -0.151154  0  3.934257  0
C  C147  1  0.93849105  0.06653949  0.92214459  1  -0.006363  0  -0.008413  0.099339  0  4.074227  0
C  C148  1  0.87552523  0.02613827  0.96292751  1  -0.008958  0  -0.120301  -0.291048  0  3.993848  0
C  C149  1  0.06430858  0.14460723  0.84383622  1  -0.055048  0  -0.092937  -0.151603  0  3.961698  0
C  C150  1  0.06855433  0.07106208  0.91708974  1  -0.014059  0  -0.009868  -0.005464  0  3.99453  0
C  C151  1  0.13482962  0.03440915  0.95428312  1  0.366516  0  0.094229  0.258865  0  4.116309  0
C  C152  1  0.01114864  0.80978802  0.18065581  1  -0.015167  0  -0.024478  -0.040805  0  4.023228  0
C  C153  1  0.00661378  0.95650470  0.03179633  1  0.011743  0  -0.002604  -0.002743  0  3.939782  0
C  C154  1  0.99841150  0.17988379  0.81047357  1  -0.008148  0  -0.023807  -0.040654  0  4.024152  0
C  C155  1  0.00504876  0.03107888  0.95722077  1  -0.00816  0  -0.002371  -0.002594  0  3.939165  0
C  C156  1  0.30648059  0.49533190  0.51917919  1  0.019721  0  -0.020586  -0.114613  0  3.917226  0
C  C157  1  0.67913683  0.51835097  0.49592101  1  -0.012147  0  -0.020667  -0.114654  0  3.918373  0
C  C158  1  0.35816885  0.42421545  0.56850236  1  0.018125  0  0.003636  0.1767  0  3.931022  0
C  C159  1  0.42898140  0.43321376  0.56384861  1  -0.02649  0  -0.094039  -0.203079  0  3.935751  0
C  C160  1  0.64922159  0.56782138  0.42480722  1  0.006975  0  0.004011  0.176787  0  3.93103  0
C  C161  1  0.57399963  0.56330474  0.43377267  1  0.031438  0  -0.094638  -0.203566  0  3.933818  0
C  C162  1  0.63170263  0.46945903  0.57261538  1  -0.03778  0  -0.084413  -0.079119  0  4.013022  0
C  C163  1  0.55643020  0.46759795  0.58027664  1  -0.004764  0  -0.096086  -0.146619  0  4.009865  0
C  C164  1  0.32605803  0.57204477  0.47029324  1  -0.010819  0  -0.084142  -0.078771  0  4.011853  0
C  C165  1  0.39559259  0.57974162  0.46827290  1  -0.007819  0  -0.095932  -0.146258  0  4.009437  0
C  C166  1  0.44951866  0.50931521  0.51441811  1  -0.077691  0  -0.003083  0.084829  0  4.012695  0
C  C167  1  0.52676901  0.51387065  0.50984517  1  -0.117106  0  -0.002643  0.086284  0  4.010834  0
C  C168  1  0.33541170  0.62338717  0.19478117  1  -0.087318  0  -0.240119  -0.410592  0  3.97543  0
C  C169  1  0.69997443  0.34566925  0.84097570  1  -0.052471  0  -0.24072  -0.411043  0  3.976655  0
C  C170  1  0.11212818  0.84101250  0.34582217  1  -0.062855  0  -0.241167  -0.412299  0  3.977795  0
C  C171  1  0.84557314  0.19528833  0.62261302  1  -0.04283  0  -0.240461  -0.411722  0  3.975523  0
C  C172  1  0.33567070  0.19752537  0.34799055  1  -0.057061  0  -0.24041  -0.409612  0  3.976348  0
C  C173  1  0.70072514  0.84621971  0.61129322  1  -0.044712  0  -0.239971  -0.41086  0  3.976351  0
C  C174  1  0.84234795  0.61152352  0.84638178  1  -0.043153  0  -0.239666  -0.411122  0  3.976533  0
C  C175  1  0.11978893  0.34797256  0.19727380  1  -0.029587  0  -0.241077  -0.411103  0  3.976266  0
C  C176  1  0.34263029  0.33944278  0.62400163  1  -0.078397  0  -0.239977  -0.411089  0  3.978248  0
C  C177  1  0.69408579  0.62330281  0.34004540  1  -0.079371  0  -0.239872  -0.410743  0  3.977796  0
N  N178  1  0.19836107  0.07106078  0.91387168  1  -1.218493  0  -0.599737  -0.61978  0  3.320388  0
N  N179  1  0.81670411  0.91309988  0.07179382  1  -1.18445  0  -0.599334  -0.620133  0  3.321688  0
O  O180  1  0.78868482  0.44722282  0.69585592  1  -1.18324  0  -0.358467  -0.614758  0  2.337205  0
O  O181  1  0.06797254  0.69531956  0.44799789  1  -1.183083  0  -0.359297  -0.615409  0  2.336516  0
O  O182  1  0.20443652  0.55868448  0.30005115  1  -1.185356  0  -0.358842  -0.614508  0  2.34175  0
O  O183  1  0.93696395  0.29928084  0.55929238  1  -1.191061  0  -0.358787  -0.613995  0  2.340768  0
O  O184  1  0.05464839  0.29148766  0.70439420  1  -1.18457  0  -0.367007  -0.628749  0  2.308959  0
O  O185  1  0.79488247  0.57075162  0.43463508  1  -1.186316  0  -0.353133  -0.614073  0  2.304218  0
O  O186  1  0.94934410  0.70377509  0.29231658  1  -1.186194  0  -0.366969  -0.628662  0  2.309105  0
O  O187  1  0.19964786  0.43397012  0.57164345  1  -1.186845  0  -0.353139  -0.61448  0  2.307334  0
O  O188  1  0.93844046  0.56033448  0.70462907  1  -1.180431  0  -0.357995  -0.61476  0  2.331063  0
O  O189  1  0.19569923  0.29108759  0.44641521  1  -1.182247  0  -0.359545  -0.614777  0  2.339434  0
O  O190  1  0.06688989  0.44582525  0.29169156  1  -1.182753  0  -0.359367  -0.61429  0  2.338481  0
O  O191  1  0.79654427  0.70382686  0.56113982  1  -1.179317  0  -0.357752  -0.614208  0  2.329699  0
O  O192  1  0.19880751  0.28583422  0.56628470  1  -1.18088  0  -0.352817  -0.624657  0  2.263088  0
O  O193  1  0.94923840  0.56573818  0.28637871  1  -1.184396  0  -0.352689  -0.624235  0  2.263343  0
O  O194  1  0.79590014  0.70891168  0.44006749  1  -1.179064  0  -0.354974  -0.627188  0  2.268109  0
O  O195  1  0.05509562  0.43930435  0.70971380  1  -1.192828  0  -0.35485  -0.626617  0  2.268638  0
O  O196  1  0.93472681  0.29320654  0.70438617  1  -1.184273  0  -0.346909  -0.615879  0  2.264013  0
O  O197  1  0.20473924  0.55248564  0.45190411  1  -1.190397  0  -0.356977  -0.627002  0  2.298498  0
O  O198  1  0.06758568  0.70373751  0.29400464  1  -1.181684  0  -0.347027  -0.616344  0  2.264032  0
O  O199  1  0.79103841  0.45094545  0.55306805  1  -1.184531  0  -0.356788  -0.626788  0  2.296649  0
O  O200  1  0.05616730  0.29565599  0.44089356  1  -1.183409  0  -0.353875  -0.62669  0  2.281858  0
O  O201  1  0.78838618  0.56308955  0.70208706  1  -1.177212  0  -0.352046  -0.623687  0  2.270077  0
O  O202  1  0.94620342  0.70145514  0.56390789  1  -1.187505  0  -0.352148  -0.623855  0  2.269911  0
O  O203  1  0.20730442  0.44031467  0.29633621  1  -1.183336  0  -0.354002  -0.627127  0  2.282666  0
O  O204  1  0.94756476  0.45248122  0.44412245  1  -1.248679  0  -0.696757  -1.070397  0  2.376237  0
O  O205  1  0.15583258  0.44352658  0.45320214  1  -1.244017  0  -0.696975  -1.070467  0  2.375981  0
O  O206  1  0.95133241  0.65691349  0.44841677  1  -1.227231  0  -0.694954  -1.068586  0  2.366868  0
O  O207  1  0.94334434  0.44759062  0.65768614  1  -1.252829  0  -0.695287  -1.069286  0  2.363919  0
O  O208  1  0.03797188  0.53523861  0.54249598  1  -1.200167  0  -0.792407  -1.147477  0  2.135096  0
O  O209  1  0.88432995  0.54167618  0.53596812  1  -1.199009  0  -0.792636  -1.148229  0  2.136612  0
O  O210  1  0.04073798  0.53906370  0.38523027  1  -1.196493  0  -0.792562  -1.146531  0  2.133562  0
O  O211  1  0.03503059  0.38455118  0.53971945  1  -1.196541  0  -0.793167  -1.147255  0  2.134679  0
