# generated using pymatgen
data_CuHC5N4
_symmetry_space_group_name_H-M   'P 1'
_cell_length_a   9.24837608
_cell_length_b   9.24848077
_cell_length_c   21.67320666
_cell_angle_alpha   89.99994948
_cell_angle_beta   90.00080273
_cell_angle_gamma   89.99671550
_symmetry_Int_Tables_number   1
_chemical_formula_structural   CuHC5N4
_chemical_formula_sum   'Cu8 H8 C40 N32'
_cell_volume   1853.78366574
_cell_formula_units_Z   8
loop_
 _symmetry_equiv_pos_site_id
 _symmetry_equiv_pos_as_xyz
  1  'x, y, z'
loop_
 _atom_site_type_symbol
 _atom_site_label
 _atom_site_symmetry_multiplicity
 _atom_site_fract_x
 _atom_site_fract_y
 _atom_site_fract_z
 _atom_site_occupancy
 _atom_site_pbe_bader_charge
 _atom_site_pbe_bader_spin_density
 _atom_site_pbe_cm5_charge
 _atom_site_pbe_ddec_charge
 _atom_site_pbe_ddec_spin_density
 _atom_site_pbe_ddec_sum_bond_order
 _atom_site_pbe_magmom
Cu  Cu0  1  0.46121817  0.07330897  0.12281476  1  0.833859  0  0.638159  0.470796  0  2.769563  0
Cu  Cu1  1  0.42680698  0.96139394  0.37287255  1  0.83424  0  0.638344  0.47121  0  2.770171  0
Cu  Cu2  1  0.53877658  0.92669289  0.62281883  1  0.833928  0  0.638329  0.470996  0  2.769844  0
Cu  Cu3  1  0.57318836  0.03860417  0.87287486  1  0.834142  0  0.638182  0.47121  0  2.769662  0
Cu  Cu4  1  0.96138841  0.42680840  0.62712367  1  0.834092  0  0.638302  0.471203  0  2.770068  0
Cu  Cu5  1  0.03860432  0.57319345  0.12713486  1  0.83423  0  0.638224  0.471234  0  2.769799  0
Cu  Cu6  1  0.07331884  0.46122412  0.87719012  1  0.83392  0  0.638328  0.470944  0  2.770106  0
Cu  Cu7  1  0.92668854  0.53877398  0.37718914  1  0.833756  0  0.638249  0.470871  0  2.769986  0
H  H8  1  0.27326203  0.34634087  0.07851844  1  0.127419  0  0.131111  0.091048  0  0.980139  0
H  H9  1  0.15375181  0.77332228  0.32845425  1  0.126051  0  0.131223  0.091143  0  0.980494  0
H  H10  1  0.72673992  0.65366865  0.57851728  1  0.127418  0  0.131113  0.091051  0  0.98021  0
H  H11  1  0.84625397  0.22668025  0.82845951  1  0.126196  0  0.131208  0.091096  0  0.980449  0
H  H12  1  0.77332827  0.15374620  0.67154990  1  0.125983  0  0.131198  0.091134  0  0.980428  0
H  H13  1  0.22667456  0.84625124  0.17155151  1  0.125934  0  0.131183  0.091109  0  0.980461  0
H  H14  1  0.34633071  0.27327403  0.92148115  1  0.127494  0  0.131114  0.090929  0  0.980313  0
H  H15  1  0.65366081  0.72673804  0.42148768  1  0.127287  0  0.131159  0.091137  0  0.980118  0
C  C16  1  0.25162721  0.32492278  0.12693346  1  0.963684  0  0.135394  0.178799  0  3.972752  0
C  C17  1  0.17516780  0.75160561  0.37686340  1  0.964715  0  0.135028  0.178452  0  3.973492  0
C  C18  1  0.74836984  0.67508339  0.62693150  1  0.963724  0  0.135303  0.17861  0  3.973094  0
C  C19  1  0.82483849  0.24839898  0.87686760  1  0.966544  0  0.135059  0.178557  0  3.973417  0
C  C20  1  0.75160305  0.17516660  0.62313613  1  0.964754  0  0.135035  0.178488  0  3.973264  0
C  C21  1  0.24839712  0.82483418  0.12313834  1  0.964779  0  0.135004  0.178381  0  3.973345  0
C  C22  1  0.32490949  0.25164195  0.87306371  1  0.963552  0  0.135249  0.178828  0  3.972807  0
C  C23  1  0.67507721  0.74836373  0.37307266  1  0.96433  0  0.135216  0.178456  0  3.973034  0
C  C24  1  0.08045588  0.39362207  0.26852711  1  0.841318  0  0.197699  0.269561  0  4.011305  0
C  C25  1  0.10647971  0.58063341  0.51845741  1  0.846306  0  0.197847  0.270178  0  4.012214  0
C  C26  1  0.91955120  0.60637301  0.76852021  1  0.841329  0  0.197691  0.269515  0  4.011308  0
C  C27  1  0.89352893  0.41937514  0.01845534  1  0.846417  0  0.197922  0.270421  0  4.012089  0
C  C28  1  0.58062242  0.10647496  0.48153914  1  0.845291  0  0.197821  0.269989  0  4.012308  0
C  C29  1  0.41937323  0.89351429  0.98153881  1  0.845957  0  0.197922  0.270211  0  4.012199  0
C  C30  1  0.39361928  0.08045093  0.73147115  1  0.840756  0  0.197803  0.26979  0  4.011206  0
C  C31  1  0.60637145  0.91954206  0.23148285  1  0.842016  0  0.197723  0.26959  0  4.011441  0
C  C32  1  0.26028058  0.22655169  0.21695341  1  0.615088  0  0.090151  0.05987  0  4.147579  0
C  C33  1  0.27375930  0.76016518  0.46684622  1  0.592532  0  0.090639  0.060165  0  4.145652  0
C  C34  1  0.73973022  0.77344025  0.71695090  1  0.615555  0  0.090016  0.059587  0  4.147804  0
C  C35  1  0.72625317  0.23984355  0.96684707  1  0.592678  0  0.090554  0.060242  0  4.145669  0
C  C36  1  0.76015593  0.27375669  0.53314900  1  0.592828  0  0.090453  0.059912  0  4.145647  0
C  C37  1  0.23983589  0.72623021  0.03315211  1  0.592405  0  0.090637  0.060183  0  4.145256  0
C  C38  1  0.22654672  0.26028412  0.78304212  1  0.614926  0  0.090166  0.059802  0  4.1477  0
C  C39  1  0.77344353  0.73972823  0.28305397  1  0.61589  0  0.090097  0.059683  0  4.147928  0
C  C40  1  0.16208595  0.34374240  0.21840050  1  0.571301  0  0.092931  0.066554  0  4.141961  0
C  C41  1  0.15640207  0.66220759  0.46833528  1  0.574336  0  0.092549  0.066083  0  4.142524  0
C  C42  1  0.83792273  0.65625061  0.71839401  1  0.571127  0  0.093021  0.066826  0  4.142166  0
C  C43  1  0.84361044  0.33780439  0.96833172  1  0.574347  0  0.09251  0.065838  0  4.142465  0
C  C44  1  0.66219829  0.15639428  0.53166348  1  0.574211  0  0.092505  0.066163  0  4.142535  0
C  C45  1  0.33779781  0.84359046  0.03166345  1  0.574751  0  0.092516  0.066068  0  4.142283  0
C  C46  1  0.34373765  0.16208950  0.78159647  1  0.571047  0  0.092924  0.066438  0  4.141852  0
C  C47  1  0.65625147  0.83791745  0.28160942  1  0.571147  0  0.092823  0.066573  0  4.142327  0
C  C48  1  0.30143065  0.13602965  0.26564224  1  0.78984  0  0.196753  0.268737  0  4.023164  0
C  C49  1  0.36435753  0.80124388  0.51554025  1  0.79286  0  0.196507  0.268878  0  4.02055  0
C  C50  1  0.69857957  0.86396651  0.76563760  1  0.7895  0  0.196802  0.268831  0  4.023068  0
C  C51  1  0.63565967  0.19876360  0.01554087  1  0.792538  0  0.196565  0.268928  0  4.020514  0
C  C52  1  0.80123543  0.36435207  0.48445349  1  0.792869  0  0.196668  0.269002  0  4.020631  0
C  C53  1  0.19875599  0.63563068  0.98445471  1  0.793184  0  0.196743  0.269103  0  4.020649  0
C  C54  1  0.13602182  0.30143514  0.73435361  1  0.789922  0  0.196782  0.268804  0  4.02347  0
C  C55  1  0.86396575  0.69856866  0.23436787  1  0.789856  0  0.19691  0.268904  0  4.023284  0
N  N56  1  0.15886864  0.40487476  0.16062453  1  -1.126209  0  -0.362932  -0.316396  0  3.589214  0
N  N57  1  0.09516669  0.65897536  0.41058176  1  -1.12808  0  -0.36257  -0.315993  0  3.588936  0
N  N58  1  0.84112842  0.59512595  0.66061670  1  -1.126097  0  -0.362847  -0.316306  0  3.589498  0
N  N59  1  0.90484286  0.34103565  0.91058042  1  -1.128553  0  -0.362613  -0.316004  0  3.588837  0
N  N60  1  0.65897231  0.09515939  0.58941682  1  -1.128278  0  -0.362557  -0.316053  0  3.588815  0
N  N61  1  0.34102567  0.90483605  0.08941586  1  -1.12813  0  -0.362579  -0.315995  0  3.588782  0
N  N62  1  0.40485968  0.15887851  0.83937582  1  -1.12572  0  -0.362798  -0.316351  0  3.588953  0
N  N63  1  0.59512808  0.84112832  0.33938703  1  -1.126566  0  -0.362767  -0.316225  0  3.589426  0
N  N64  1  0.31566585  0.21653339  0.15823499  1  -1.1846  0  -0.364855  -0.318726  0  3.599278  0
N  N65  1  0.28370121  0.81551567  0.40811981  1  -1.161543  0  -0.364931  -0.318916  0  3.59939  0
N  N66  1  0.68434087  0.78347165  0.65823399  1  -1.184879  0  -0.364914  -0.31869  0  3.599327  0
N  N67  1  0.71630610  0.18448778  0.90812247  1  -1.16355  0  -0.364909  -0.318991  0  3.599402  0
N  N68  1  0.81551227  0.28369614  0.59187651  1  -1.161479  0  -0.364856  -0.31883  0  3.59943  0
N  N69  1  0.18448363  0.71629713  0.09188114  1  -1.161592  0  -0.364912  -0.318898  0  3.599175  0
N  N70  1  0.21652379  0.31567615  0.84175928  1  -1.184719  0  -0.364925  -0.318691  0  3.599242  0
N  N71  1  0.78346730  0.68433500  0.34177029  1  -1.185218  0  -0.364914  -0.318639  0  3.59948  0
N  N72  1  0.01302951  0.43431930  0.31085612  1  -1.209968  0  -0.374761  -0.38132  0  3.405989  0
N  N73  1  0.06572815  0.51325915  0.56079067  1  -1.216045  0  -0.374956  -0.381997  0  3.407151  0
N  N74  1  0.98697354  0.56568002  0.81085149  1  -1.209699  0  -0.374745  -0.381332  0  3.406031  0
N  N75  1  0.93426998  0.48674284  0.06079344  1  -1.216005  0  -0.374992  -0.382177  0  3.407033  0
N  N76  1  0.51324999  0.06573186  0.43920188  1  -1.215135  0  -0.374897  -0.381816  0  3.407474  0
N  N77  1  0.48674644  0.93426612  0.93920379  1  -1.216093  0  -0.374977  -0.381979  0  3.407425  0
N  N78  1  0.43431631  0.01302035  0.68914252  1  -1.209336  0  -0.37488  -0.381501  0  3.406258  0
N  N79  1  0.56567519  0.98696408  0.18915118  1  -1.210406  0  -0.374708  -0.381288  0  3.406153  0
N  N80  1  0.33702344  0.06349451  0.30728825  1  -1.221646  0  -0.379803  -0.38908  0  3.429521  0
N  N81  1  0.43694398  0.83688977  0.55716374  1  -1.225247  0  -0.379539  -0.389119  0  3.428619  0
N  N82  1  0.66298706  0.93649832  0.80728429  1  -1.221666  0  -0.379662  -0.389035  0  3.429198  0
N  N83  1  0.56307457  0.16311654  0.05716395  1  -1.225024  0  -0.379474  -0.38906  0  3.428324  0
N  N84  1  0.83688974  0.43694679  0.44283492  1  -1.225476  0  -0.379641  -0.389143  0  3.42929  0
N  N85  1  0.16311005  0.56304253  0.94283133  1  -1.225614  0  -0.379829  -0.389368  0  3.429607  0
N  N86  1  0.06348739  0.33702473  0.69270750  1  -1.221573  0  -0.379803  -0.389081  0  3.429775  0
N  N87  1  0.93649667  0.66298132  0.19271990  1  -1.222009  0  -0.379819  -0.38911  0  3.429577  0
