# generated using pymatgen
data_SrZnH10C14(NO5)2
_symmetry_space_group_name_H-M   'P 1'
_cell_length_a   5.16955691
_cell_length_b   7.89350751
_cell_length_c   10.45653155
_cell_angle_alpha   81.89814097
_cell_angle_beta   83.06971100
_cell_angle_gamma   78.36920674
_symmetry_Int_Tables_number   1
_chemical_formula_structural   SrZnH10C14(NO5)2
_chemical_formula_sum   'Sr1 Zn1 H10 C14 N2 O10'
_cell_volume   411.87955328
_cell_formula_units_Z   1
loop_
 _symmetry_equiv_pos_site_id
 _symmetry_equiv_pos_as_xyz
  1  'x, y, z'
loop_
 _atom_site_type_symbol
 _atom_site_label
 _atom_site_symmetry_multiplicity
 _atom_site_fract_x
 _atom_site_fract_y
 _atom_site_fract_z
 _atom_site_occupancy
 _atom_site_hle17_bader_spin_density
 _atom_site_hle17_ddec_charge
 _atom_site_hle17_ddec_spin_density
 _atom_site_hle17_ddec_sum_bond_order
 _atom_site_hle17_magmom
 _atom_site_hse06_10hf_bader_spin_density
 _atom_site_hse06_10hf_ddec_charge
 _atom_site_hse06_10hf_ddec_spin_density
 _atom_site_hse06_10hf_ddec_sum_bond_order
 _atom_site_hse06_10hf_magmom
 _atom_site_hse06_bader_spin_density
 _atom_site_hse06_ddec_charge
 _atom_site_hse06_ddec_spin_density
 _atom_site_hse06_ddec_sum_bond_order
 _atom_site_hse06_magmom
 _atom_site_pbe_bader_spin_density
 _atom_site_pbe_cm5_charge
 _atom_site_pbe_ddec_charge
 _atom_site_pbe_ddec_spin_density
 _atom_site_pbe_ddec_sum_bond_order
 _atom_site_pbe_magmom
Sr  Sr0  1  0.49999841  0.00000057  0.49999994  1  0  1.641668  0  1.085773  0  0  1.500565  0  1.462663  0  0  1.539727  0  1.414084  0  0  0.980882  1.471814  0  1.497077  0
Zn  Zn1  1  0.00000037  0.99999868  0.99999917  1  0  1.041444  0  1.833636  0  0  0.865746  0  2.27661  0  0  0.910269  0  2.226319  0  0  0.678859  0.8346  0  2.311089  0
H  H2  1  0.28332799  0.84043220  0.80097170  1  0  0.413412  0  0.900116  0  0  0.383094  0  0.96432  0  0  0.394027  0  0.94846  0  0  0.290091  0.375402  0  0.975467  0
H  H3  1  0.71667063  0.15956607  0.19903015  1  0  0.413398  0  0.900136  0  0  0.383068  0  0.964361  0  0  0.394001  0  0.948501  0  0  0.290073  0.37538  0  0.9755  0
H  H4  1  0.48659158  0.91807792  0.86887658  1  0  0.417066  0  0.894159  0  0  0.383606  0  0.962486  0  0  0.395275  0  0.945506  0  0  0.289368  0.375335  0  0.974511  0
H  H5  1  0.51340865  0.08192164  0.13112503  1  0  0.416892  0  0.894415  0  0  0.383509  0  0.962629  0  0  0.395182  0  0.945645  0  0  0.289316  0.375241  0  0.974649  0
H  H6  1  0.77312208  0.46208889  0.62175376  1  0  0.132145  0  0.92514  0  0  0.139491  0  0.98608  0  0  0.144135  0  0.982696  0  0  0.124824  0.136118  0  0.988698  0
H  H7  1  0.22687556  0.53791325  0.37824484  1  0  0.132187  0  0.925076  0  0  0.139497  0  0.986055  0  0  0.144158  0  0.982651  0  0  0.124845  0.136122  0  0.988672  0
H  H8  1  0.34521800  0.58373157  0.84645267  1  0  0.11483  0  0.974314  0  0  0.125311  0  1.033877  0  0  0.128875  0  1.032068  0  0  0.113094  0.1227  0  1.035269  0
H  H9  1  0.65478299  0.41626534  0.15354633  1  0  0.114814  0  0.974224  0  0  0.125296  0  1.033783  0  0  0.128859  0  1.031977  0  0  0.113087  0.122686  0  1.035174  0
H  H10  1  0.32654476  0.30344478  0.98726154  1  0  0.089153  0  0.948681  0  0  0.09882  0  1.010064  0  0  0.10187  0  1.007786  0  0  0.118297  0.096588  0  1.01175  0
H  H11  1  0.67345354  0.69655478  0.01273923  1  0  0.089134  0  0.948736  0  0  0.098807  0  1.010105  0  0  0.101856  0  1.007827  0  0  0.118292  0.096574  0  1.011793  0
C  C12  1  0.04833390  0.72099781  0.63915996  1  0  0.693487  0  3.886941  0  0  0.641469  0  4.183866  0  0  0.676022  0  4.173266  0  0  0.23645  0.617976  0  4.19037  0
C  C13  1  0.95166174  0.27900438  0.36084065  1  0  0.693501  0  3.886921  0  0  0.641496  0  4.183817  0  0  0.676048  0  4.173217  0  0  0.236484  0.617985  0  4.190344  0
C  C14  1  0.05624518  0.54724819  0.72354875  1  0  -0.009542  0  3.668524  0  0  0.009837  0  3.903437  0  0  0.007141  0  3.921539  0  0  0.013703  0.011539  0  3.8912  0
C  C15  1  0.94376058  0.45275261  0.27645147  1  0  -0.009587  0  3.668586  0  0  0.009778  0  3.903501  0  0  0.007083  0  3.921604  0  0  0.013666  0.011478  0  3.891271  0
C  C16  1  0.89914349  0.43111137  0.70116766  1  0  -0.082322  0  3.639664  0  0  -0.117218  0  3.888903  0  0  -0.118316  0  3.905967  0  0  -0.051785  -0.11654  0  3.877686  0
C  C17  1  0.10085678  0.56888816  0.29883204  1  0  -0.082283  0  3.639673  0  0  -0.117154  0  3.888906  0  0  -0.118266  0  3.905965  0  0  -0.0518  -0.116477  0  3.87769  0
C  C18  1  0.90453779  0.27504951  0.78292935  1  0  0.087362  0  3.718028  0  0  0.091744  0  3.961405  0  0  0.091388  0  3.980556  0  0  0.119468  0.091759  0  3.948563  0
C  C19  1  0.09546287  0.72494868  0.21706857  1  0  0.087238  0  3.717993  0  0  0.091632  0  3.961344  0  0  0.091276  0  3.980497  0  0  0.119427  0.091655  0  3.948496  0
C  C20  1  0.21635587  0.49956707  0.82616104  1  0  -0.101502  0  3.684037  0  0  -0.127805  0  3.9346  0  0  -0.131468  0  3.954865  0  0  -0.070103  -0.125201  0  3.921031  0
C  C21  1  0.78364763  0.50043502  0.17383723  1  0  -0.101453  0  3.683914  0  0  -0.127754  0  3.934478  0  0  -0.131417  0  3.954744  0  0  -0.070078  -0.125145  0  3.920901  0
C  C22  1  0.20611011  0.34354911  0.90553915  1  0  0.131981  0  3.689544  0  0  0.100657  0  3.94829  0  0  0.105017  0  3.966251  0  0  0.050544  0.097676  0  3.93639  0
C  C23  1  0.79388986  0.65645170  0.09445852  1  0  0.131949  0  3.689603  0  0  0.100628  0  3.948325  0  0  0.104987  0  3.966286  0  0  0.050516  0.097642  0  3.936433  0
C  C24  1  0.74202826  0.14229273  0.76422256  1  0  0.642969  0  3.905519  0  0  0.584797  0  4.210401  0  0  0.618869  0  4.201926  0  0  0.228559  0.561795  0  4.215247  0
C  C25  1  0.25797136  0.85770937  0.23577497  1  0  0.642883  0  3.905377  0  0  0.584713  0  4.210273  0  0  0.618784  0  4.201797  0  0  0.228483  0.561713  0  4.215112  0
N  N26  1  0.05219719  0.23441565  0.88481422  1  0  -0.319919  0  3.294404  0  0  -0.249767  0  3.555593  0  0  -0.264271  0  3.57178  0  0  -0.316039  -0.239848  0  3.544723  0
N  N27  1  0.94780078  0.76558520  0.11518546  1  0  -0.319827  0  3.294291  0  0  -0.249674  0  3.555451  0  0  -0.264178  0  3.571637  0  0  -0.315981  -0.239759  0  3.544585  0
O  O28  1  0.21863291  0.81240254  0.65379244  1  0  -0.716215  0  2.000331  0  0  -0.651654  0  2.238923  0  0  -0.678078  0  2.225336  0  0  -0.361365  -0.633243  0  2.247817  0
O  O29  1  0.78136662  0.18759963  0.34620891  1  0  -0.716195  0  2.000384  0  0  -0.651636  0  2.238971  0  0  -0.678057  0  2.225384  0  0  -0.361352  -0.633215  0  2.247865  0
O  O30  1  0.33158856  0.85669269  0.88772217  1  0  -0.847634  0  1.927316  0  0  -0.795644  0  2.138362  0  0  -0.817144  0  2.104287  0  0  -0.583869  -0.780401  0  2.161946  0
O  O31  1  0.66841361  0.14330686  0.11227934  1  0  -0.847476  0  1.927511  0  0  -0.795526  0  2.13845  0  0  -0.817031  0  2.104376  0  0  -0.583798  -0.780293  0  2.162025  0
O  O32  1  0.87329145  0.76360159  0.56063461  1  0  -0.689182  0  1.956928  0  0  -0.636258  0  2.204857  0  0  -0.661467  0  2.192858  0  0  -0.37189  -0.618448  0  2.212619  0
O  O33  1  0.12670808  0.23640057  0.43936675  1  0  -0.689203  0  1.956869  0  0  -0.636284  0  2.204796  0  0  -0.661493  0  2.192799  0  0  -0.371918  -0.61847  0  2.212569  0
O  O34  1  0.74752410  0.00989610  0.85201163  1  0  -0.639839  0  2.081083  0  0  -0.55896  0  2.324187  0  0  -0.587787  0  2.312196  0  0  -0.302128  -0.538854  0  2.331856  0
O  O35  1  0.25247353  0.99010605  0.14798792  1  0  -0.63977  0  2.081093  0  0  -0.558932  0  2.324175  0  0  -0.58776  0  2.312188  0  0  -0.302121  -0.538829  0  2.331837  0
O  O36  1  0.61172334  0.16798403  0.66733988  1  0  -0.657809  0  1.95275  0  0  -0.604682  0  2.194983  0  0  -0.629091  0  2.185152  0  0  -0.357078  -0.58756  0  2.201274  0
O  O37  1  0.38827651  0.83201685  0.33266257  1  0  -0.657756  0  1.952639  0  0  -0.604615  0  2.194848  0  0  -0.629025  0  2.185017  0  0  -0.357023  -0.587497  0  2.201135  0
