# generated using pymatgen
data_KH8PtC5N(ClO)2
_symmetry_space_group_name_H-M   'P 1'
_cell_length_a   7.67514760
_cell_length_b   8.90040905
_cell_length_c   14.22215079
_cell_angle_alpha   90.00014846
_cell_angle_beta   90.00050790
_cell_angle_gamma   89.99996610
_symmetry_Int_Tables_number   1
_chemical_formula_structural   KH8PtC5N(ClO)2
_chemical_formula_sum   'K4 H32 Pt4 C20 N4 Cl8 O8'
_cell_volume   971.54289809
_cell_formula_units_Z   4
loop_
 _symmetry_equiv_pos_site_id
 _symmetry_equiv_pos_as_xyz
  1  'x, y, z'
loop_
 _atom_site_type_symbol
 _atom_site_label
 _atom_site_symmetry_multiplicity
 _atom_site_fract_x
 _atom_site_fract_y
 _atom_site_fract_z
 _atom_site_occupancy
 _atom_site_hle17_bader_spin_density
 _atom_site_hle17_ddec_charge
 _atom_site_hle17_ddec_spin_density
 _atom_site_hle17_ddec_sum_bond_order
 _atom_site_hle17_magmom
 _atom_site_hse06_10hf_bader_spin_density
 _atom_site_hse06_10hf_ddec_charge
 _atom_site_hse06_10hf_ddec_spin_density
 _atom_site_hse06_10hf_ddec_sum_bond_order
 _atom_site_hse06_10hf_magmom
 _atom_site_hse06_bader_spin_density
 _atom_site_hse06_ddec_charge
 _atom_site_hse06_ddec_spin_density
 _atom_site_hse06_ddec_sum_bond_order
 _atom_site_hse06_magmom
 _atom_site_pbe_bader_spin_density
 _atom_site_pbe_cm5_charge
 _atom_site_pbe_ddec_charge
 _atom_site_pbe_ddec_spin_density
 _atom_site_pbe_ddec_sum_bond_order
 _atom_site_pbe_magmom
K  K0  1  0.49999950  0.49998804  0.49999983  1  0  0.921314  0  0.47725  0  0  0.853945  0  0.687672  0  0  0.8689  0  0.665157  0  0  0.633009  0.842808  0  0.70364  0
K  K1  1  0.99999900  0.49998903  0.50000103  1  0  0.930807  0  0.469546  0  0  0.868942  0  0.673896  0  0  0.884291  0  0.650683  0  0  0.63812  0.857413  0  0.690662  0
K  K2  1  0.99999883  0.99999864  0.50000003  1  0  0.951093  0  0.439292  0  0  0.91324  0  0.615495  0  0  0.925827  0  0.59523  0  0  0.697176  0.903641  0  0.630116  0
K  K3  1  0.50000227  0.00001327  0.49999872  1  0  0.935651  0  0.465408  0  0  0.89171  0  0.650793  0  0  0.904187  0  0.631045  0  0  0.705615  0.88229  0  0.664823  0
H  H4  1  0.55778666  0.81758744  0.75329243  1  0  0.08875  0  0.926921  0  0  0.097114  0  0.988313  0  0  0.099248  0  0.987112  0  0  0.112838  0.09545  0  0.989441  0
H  H5  1  0.44221776  0.18240992  0.75329656  1  0  0.088813  0  0.926857  0  0  0.097118  0  0.988296  0  0  0.09925  0  0.987097  0  0  0.11283  0.095451  0  0.989422  0
H  H6  1  0.55778145  0.18241108  0.24670328  1  0  0.088764  0  0.926874  0  0  0.097112  0  0.988303  0  0  0.099247  0  0.987099  0  0  0.112815  0.095444  0  0.989432  0
H  H7  1  0.44221733  0.81759203  0.24670422  1  0  0.088777  0  0.92692  0  0  0.097148  0  0.988339  0  0  0.099281  0  0.987139  0  0  0.112829  0.095479  0  0.98947  0
H  H8  1  0.94591082  0.88437978  0.75992111  1  0  0.082652  0  0.945905  0  0  0.098558  0  1.009001  0  0  0.099244  0  1.009927  0  0  0.095671  0.097938  0  1.008565  0
H  H9  1  0.05409240  0.11562097  0.75992326  1  0  0.082643  0  0.945815  0  0  0.098528  0  1.008954  0  0  0.099198  0  1.009887  0  0  0.095628  0.097909  0  1.008519  0
H  H10  1  0.94590555  0.11561741  0.24007858  1  0  0.082659  0  0.945856  0  0  0.098546  0  1.008976  0  0  0.099224  0  1.009915  0  0  0.095647  0.097924  0  1.008539  0
H  H11  1  0.05409052  0.88437894  0.24007846  1  0  0.082713  0  0.945907  0  0  0.09859  0  1.009015  0  0  0.099277  0  1.009946  0  0  0.095664  0.097969  0  1.008576  0
H  H12  1  0.77100134  0.00881675  0.78592378  1  0  0.092532  0  0.955831  0  0  0.103351  0  1.024414  0  0  0.10527  0  1.023555  0  0  0.088801  0.101887  0  1.025177  0
H  H13  1  0.22900231  0.99118186  0.78592608  1  0  0.092557  0  0.955831  0  0  0.103384  0  1.024395  0  0  0.105295  0  1.023532  0  0  0.08881  0.101917  0  1.025162  0
H  H14  1  0.77099505  0.99117941  0.21407577  1  0  0.092527  0  0.955812  0  0  0.103358  0  1.024384  0  0  0.105277  0  1.023526  0  0  0.088774  0.101888  0  1.02515  0
H  H15  1  0.22899668  0.00882020  0.21407578  1  0  0.092545  0  0.955836  0  0  0.103365  0  1.024396  0  0  0.105287  0  1.023539  0  0  0.088805  0.1019  0  1.025156  0
H  H16  1  0.72228401  0.88119384  0.93906436  1  0  0.074845  0  0.924827  0  0  0.093099  0  0.982914  0  0  0.094486  0  0.982623  0  0  0.088386  0.09202  0  0.983249  0
H  H17  1  0.27772213  0.11880316  0.93906619  1  0  0.074847  0  0.924751  0  0  0.093126  0  0.982813  0  0  0.094514  0  0.982523  0  0  0.0884  0.092047  0  0.983148  0
H  H18  1  0.72227582  0.11880234  0.06093496  1  0  0.07487  0  0.924825  0  0  0.093152  0  0.982886  0  0  0.094542  0  0.982594  0  0  0.088441  0.092074  0  0.983222  0
H  H19  1  0.27771473  0.88119551  0.06093521  1  0  0.074861  0  0.924787  0  0  0.09315  0  0.982836  0  0  0.09454  0  0.982542  0  0  0.088403  0.092071  0  0.983172  0
H  H20  1  0.95386776  0.88523628  0.93037004  1  0  0.078055  0  0.963315  0  0  0.097341  0  1.023338  0  0  0.097865  0  1.024378  0  0  0.094459  0.096892  0  1.022714  0
H  H21  1  0.04613824  0.11476069  0.93037214  1  0  0.078103  0  0.963355  0  0  0.097384  0  1.023378  0  0  0.097906  0  1.024426  0  0  0.094465  0.096934  0  1.022754  0
H  H22  1  0.95386231  0.11475642  0.06962900  1  0  0.078044  0  0.963324  0  0  0.097335  0  1.023362  0  0  0.097849  0  1.02441  0  0  0.094454  0.096885  0  1.022736  0
H  H23  1  0.04613098  0.88523697  0.06963024  1  0  0.078081  0  0.963322  0  0  0.097368  0  1.023352  0  0  0.097893  0  1.024393  0  0  0.094463  0.096919  0  1.022726  0
H  H24  1  0.96382540  0.63455664  0.86249545  1  0  0.064071  0  0.973966  0  0  0.069779  0  1.059798  0  0  0.070961  0  1.057912  0  0  0.085219  0.068704  0  1.061399  0
H  H25  1  0.03617949  0.36544116  0.86249651  1  0  0.064092  0  0.97399  0  0  0.069782  0  1.059848  0  0  0.070964  0  1.057965  0  0  0.085242  0.068706  0  1.061451  0
H  H26  1  0.96382220  0.36543829  0.13750503  1  0  0.064112  0  0.973951  0  0  0.069813  0  1.059813  0  0  0.070998  0  1.057925  0  0  0.085226  0.068737  0  1.061414  0
H  H27  1  0.03617611  0.63455763  0.13750512  1  0  0.064049  0  0.973977  0  0  0.069762  0  1.059799  0  0  0.070943  0  1.057914  0  0  0.085205  0.068687  0  1.061399  0
H  H28  1  0.80334845  0.61223430  0.95299261  1  0  0.076473  0  0.943867  0  0  0.091183  0  1.007065  0  0  0.092303  0  1.0067  0  0  0.095633  0.090288  0  1.007446  0
H  H29  1  0.19665401  0.38776500  0.95299659  1  0  0.076539  0  0.943728  0  0  0.091167  0  1.007039  0  0  0.092288  0  1.006675  0  0  0.095611  0.090273  0  1.007418  0
H  H30  1  0.80334767  0.38776297  0.04700429  1  0  0.076526  0  0.943751  0  0  0.091191  0  1.007019  0  0  0.092311  0  1.006656  0  0  0.095613  0.090295  0  1.007399  0
H  H31  1  0.19665177  0.61223595  0.04700722  1  0  0.07654  0  0.943818  0  0  0.091213  0  1.007053  0  0  0.092331  0  1.006689  0  0  0.095646  0.090317  0  1.007433  0
H  H32  1  0.58163198  0.63631281  0.84761915  1  0  0.239669  0  0.954381  0  0  0.222703  0  1.026476  0  0  0.229688  0  1.021422  0  0  0.264668  0.217729  0  1.030197  0
H  H33  1  0.41837267  0.36368269  0.84762416  1  0  0.239637  0  0.954334  0  0  0.222679  0  1.026456  0  0  0.229668  0  1.021387  0  0  0.264644  0.217704  0  1.030178  0
H  H34  1  0.58162902  0.36368233  0.15237668  1  0  0.239607  0  0.954366  0  0  0.222652  0  1.026481  0  0  0.229636  0  1.021431  0  0  0.264639  0.217678  0  1.030203  0
H  H35  1  0.41836822  0.63631366  0.15238002  1  0  0.23965  0  0.954372  0  0  0.222704  0  1.026469  0  0  0.229693  0  1.021404  0  0  0.264674  0.217732  0  1.030187  0
Pt  Pt36  1  0.72698860  0.45170192  0.73600824  1  0  0.376055  0  3.128136  0  0  0.306781  0  3.783646  0  0  0.342845  0  3.72918  0  0  0.501981  0.283777  0  3.820006  0
Pt  Pt37  1  0.27301684  0.54829873  0.73601355  1  0  0.375955  0  3.128215  0  0  0.306721  0  3.783729  0  0  0.342785  0  3.729266  0  0  0.501905  0.28372  0  3.820085  0
Pt  Pt38  1  0.72698342  0.54829763  0.26398759  1  0  0.375969  0  3.128198  0  0  0.30673  0  3.783717  0  0  0.342795  0  3.729254  0  0  0.50193  0.28373  0  3.820067  0
Pt  Pt39  1  0.27301173  0.45170781  0.26399274  1  0  0.376001  0  3.128143  0  0  0.306762  0  3.78366  0  0  0.342826  0  3.729194  0  0  0.501965  0.283762  0  3.820016  0
C  C40  1  0.73486127  0.74177605  0.65053970  1  0  0.659576  0  3.820707  0  0  0.61101  0  4.122917  0  0  0.645632  0  4.113874  0  0  0.210179  0.587086  0  4.128665  0
C  C41  1  0.26514538  0.25821750  0.65053677  1  0  0.659426  0  3.821204  0  0  0.610818  0  4.1234  0  0  0.645441  0  4.114358  0  0  0.210013  0.586897  0  4.129144  0
C  C42  1  0.73485247  0.25822462  0.34946038  1  0  0.659705  0  3.820821  0  0  0.6111  0  4.123052  0  0  0.645731  0  4.113997  0  0  0.210224  0.587175  0  4.128801  0
C  C43  1  0.26514538  0.74178117  0.34945612  1  0  0.659812  0  3.820643  0  0  0.611219  0  4.122889  0  0  0.645834  0  4.113861  0  0  0.210215  0.587295  0  4.128636  0
C  C44  1  0.69366678  0.77784765  0.75184850  1  0  -0.007004  0  3.539767  0  0  -0.023588  0  3.774733  0  0  -0.024803  0  3.786221  0  0  -0.004957  -0.022768  0  3.767063  0
C  C45  1  0.30633631  0.22215307  0.75185485  1  0  -0.007281  0  3.539938  0  0  -0.023674  0  3.774679  0  0  -0.024898  0  3.786152  0  0  -0.004996  -0.02285  0  3.766996  0
C  C46  1  0.69366157  0.22215192  0.24814787  1  0  -0.007109  0  3.539905  0  0  -0.023629  0  3.774816  0  0  -0.024844  0  3.786296  0  0  -0.004947  -0.022806  0  3.76713  0
C  C47  1  0.30633723  0.77785120  0.24814949  1  0  -0.007167  0  3.540031  0  0  -0.023773  0  3.775051  0  0  -0.024983  0  3.786539  0  0  -0.004977  -0.022954  0  3.767383  0
C  C48  1  0.81868749  0.89366373  0.79472286  1  0  -0.137355  0  3.624338  0  0  -0.176294  0  3.870393  0  0  -0.177533  0  3.883127  0  0  -0.160675  -0.17526  0  3.861667  0
C  C49  1  0.18131630  0.10633492  0.79472561  1  0  -0.137331  0  3.624454  0  0  -0.176276  0  3.870427  0  0  -0.177476  0  3.883128  0  0  -0.160675  -0.175251  0  3.861709  0
C  C50  1  0.81868166  0.10633577  0.20527692  1  0  -0.137408  0  3.624403  0  0  -0.176324  0  3.870384  0  0  -0.177566  0  3.883133  0  0  -0.160677  -0.175291  0  3.861662  0
C  C51  1  0.18131384  0.89366268  0.20527672  1  0  -0.137465  0  3.624598  0  0  -0.176352  0  3.870628  0  0  -0.177604  0  3.88338  0  0  -0.160699  -0.175311  0  3.861888  0
C  C52  1  0.83466719  0.84346175  0.89724744  1  0  -0.118965  0  3.657721  0  0  -0.161106  0  3.917796  0  0  -0.162917  0  3.931273  0  0  -0.16568  -0.159636  0  3.908334  0
C  C53  1  0.16533306  0.15653620  0.89724878  1  0  -0.119005  0  3.657938  0  0  -0.161161  0  3.91798  0  0  -0.162981  0  3.93145  0  0  -0.165667  -0.159694  0  3.908523  0
C  C54  1  0.83466095  0.15653437  0.10275031  1  0  -0.118927  0  3.657848  0  0  -0.161115  0  3.917952  0  0  -0.162915  0  3.931422  0  0  -0.165686  -0.15965  0  3.90849  0
C  C55  1  0.16533157  0.84346365  0.10275136  1  0  -0.118916  0  3.657817  0  0  -0.161098  0  3.917845  0  0  -0.162905  0  3.931326  0  0  -0.165639  -0.159631  0  3.908386  0
C  C56  1  0.83694205  0.67301339  0.88857914  1  0  0.016015  0  3.568211  0  0  -0.042108  0  3.82814  0  0  -0.037858  0  3.839589  0  0  -0.08604  -0.044788  0  3.820354  0
C  C57  1  0.16306197  0.32698340  0.88858286  1  0  0.015891  0  3.568276  0  0  -0.042186  0  3.828261  0  0  -0.03794  0  3.839718  0  0  -0.086082  -0.044862  0  3.820464  0
C  C58  1  0.83693714  0.32698161  0.11142003  1  0  0.015832  0  3.568443  0  0  -0.042274  0  3.82843  0  0  -0.038027  0  3.839881  0  0  -0.086089  -0.044945  0  3.820632  0
C  C59  1  0.16305943  0.67301532  0.11142009  1  0  0.015874  0  3.568319  0  0  -0.042188  0  3.828222  0  0  -0.037937  0  3.839669  0  0  -0.086076  -0.044879  0  3.82046  0
N  N60  1  0.70197598  0.64132484  0.81499779  1  0  -0.296835  0  3.331186  0  0  -0.226536  0  3.591368  0  0  -0.245646  0  3.604213  0  0  -0.482186  -0.213898  0  3.582685  0
N  N61  1  0.29802944  0.35867501  0.81500292  1  0  -0.296704  0  3.331293  0  0  -0.226514  0  3.591511  0  0  -0.245621  0  3.604361  0  0  -0.482139  -0.213878  0  3.582822  0
N  N62  1  0.70196964  0.35867360  0.18499862  1  0  -0.296651  0  3.331307  0  0  -0.226435  0  3.591552  0  0  -0.245545  0  3.6044  0  0  -0.48212  -0.2138  0  3.582865  0
N  N63  1  0.29802553  0.64132813  0.18500139  1  0  -0.296659  0  3.331106  0  0  -0.22645  0  3.59139  0  0  -0.245558  0  3.604237  0  0  -0.482144  -0.213812  0  3.5827  0
Cl  Cl64  1  0.75107074  0.25221312  0.63127714  1  0  -0.533064  0  1.152229  0  0  -0.501063  0  1.472145  0  0  -0.512597  0  1.446429  0  0  -0.293905  -0.493206  0  1.48983  0
Cl  Cl65  1  0.24893169  0.74778598  0.63128196  1  0  -0.533028  0  1.152127  0  0  -0.501037  0  1.472039  0  0  -0.512572  0  1.446325  0  0  -0.293902  -0.493175  0  1.489717  0
Cl  Cl66  1  0.75106844  0.74778643  0.36871669  1  0  -0.533011  0  1.152151  0  0  -0.501013  0  1.472065  0  0  -0.512549  0  1.446351  0  0  -0.29389  -0.493153  0  1.489738  0
Cl  Cl67  1  0.24892972  0.25221832  0.36872281  1  0  -0.533077  0  1.152251  0  0  -0.501073  0  1.472165  0  0  -0.512609  0  1.446448  0  0  -0.29391  -0.49322  0  1.489853  0
Cl  Cl68  1  0.69691992  0.29662393  0.86480713  1  0  -0.397857  0  1.200196  0  0  -0.353931  0  1.498144  0  0  -0.370004  0  1.477839  0  0  -0.240884  -0.342923  0  1.512005  0
Cl  Cl69  1  0.30308762  0.70337613  0.86481283  1  0  -0.397836  0  1.200264  0  0  -0.353925  0  1.49821  0  0  -0.369997  0  1.477907  0  0  -0.240859  -0.342914  0  1.512064  0
Cl  Cl70  1  0.69691385  0.70337339  0.13518715  1  0  -0.397841  0  1.200265  0  0  -0.353933  0  1.498221  0  0  -0.370007  0  1.477918  0  0  -0.240857  -0.342926  0  1.512079  0
Cl  Cl71  1  0.30307921  0.29662702  0.13519431  1  0  -0.397873  0  1.20024  0  0  -0.353961  0  1.498207  0  0  -0.370033  0  1.477904  0  0  -0.240885  -0.342954  0  1.512067  0
O  O72  1  0.75253896  0.59965332  0.62724639  1  0  -0.616008  0  2.287732  0  0  -0.553144  0  2.594611  0  0  -0.58326  0  2.582377  0  0  -0.425157  -0.53246  0  2.602507  0
O  O73  1  0.24746601  0.40035025  0.62725134  1  0  -0.616042  0  2.28751  0  0  -0.55317  0  2.59441  0  0  -0.583296  0  2.582174  0  0  -0.425187  -0.532485  0  2.602311  0
O  O74  1  0.75253435  0.40034510  0.37275097  1  0  -0.616038  0  2.287723  0  0  -0.553155  0  2.594608  0  0  -0.583276  0  2.582366  0  0  -0.425229  -0.532472  0  2.602503  0
O  O75  1  0.24746257  0.59966191  0.37275413  1  0  -0.616027  0  2.287626  0  0  -0.553142  0  2.594502  0  0  -0.583253  0  2.582268  0  0  -0.42518  -0.532461  0  2.602403  0
O  O76  1  0.74882922  0.84414875  0.59159234  1  0  -0.676343  0  1.999634  0  0  -0.635105  0  2.243862  0  0  -0.658718  0  2.234864  0  0  -0.44683  -0.61836  0  2.249583  0
O  O77  1  0.25117387  0.15586478  0.59160042  1  0  -0.675963  0  2.00042  0  0  -0.634716  0  2.244655  0  0  -0.658326  0  2.23565  0  0  -0.446512  -0.617976  0  2.250378  0
O  O78  1  0.74882796  0.15585529  0.40840500  1  0  -0.676331  0  1.999782  0  0  -0.635074  0  2.244027  0  0  -0.658692  0  2.235018  0  0  -0.44677  -0.618329  0  2.249747  0
O  O79  1  0.25117476  0.84415974  0.40840436  1  0  -0.676461  0  1.999556  0  0  -0.635212  0  2.243802  0  0  -0.658825  0  2.234804  0  0  -0.44683  -0.618466  0  2.249525  0
