# generated using pymatgen
data_ZnH9C13SN3O4
_symmetry_space_group_name_H-M   'P 1'
_cell_length_a   7.92010627
_cell_length_b   13.57498012
_cell_length_c   13.69880000
_cell_angle_alpha   90.00000000
_cell_angle_beta   98.40901581
_cell_angle_gamma   90.00000000
_symmetry_Int_Tables_number   1
_chemical_formula_structural   ZnH9C13SN3O4
_chemical_formula_sum   'Zn4 H36 C52 S4 N12 O16'
_cell_volume   1456.99648032
_cell_formula_units_Z   4
loop_
 _symmetry_equiv_pos_site_id
 _symmetry_equiv_pos_as_xyz
  1  'x, y, z'
loop_
 _atom_site_type_symbol
 _atom_site_label
 _atom_site_symmetry_multiplicity
 _atom_site_fract_x
 _atom_site_fract_y
 _atom_site_fract_z
 _atom_site_occupancy
 _atom_site_hle17_bader_spin_density
 _atom_site_hle17_ddec_charge
 _atom_site_hle17_ddec_spin_density
 _atom_site_hle17_ddec_sum_bond_order
 _atom_site_hle17_magmom
 _atom_site_hse06_10hf_bader_spin_density
 _atom_site_hse06_10hf_ddec_charge
 _atom_site_hse06_10hf_ddec_spin_density
 _atom_site_hse06_10hf_ddec_sum_bond_order
 _atom_site_hse06_10hf_magmom
 _atom_site_hse06_bader_spin_density
 _atom_site_hse06_ddec_charge
 _atom_site_hse06_ddec_spin_density
 _atom_site_hse06_ddec_sum_bond_order
 _atom_site_hse06_magmom
 _atom_site_pbe_bader_charge
 _atom_site_pbe_bader_spin_density
 _atom_site_pbe_cm5_charge
 _atom_site_pbe_ddec_charge
 _atom_site_pbe_ddec_spin_density
 _atom_site_pbe_ddec_sum_bond_order
 _atom_site_pbe_magmom
Zn  Zn0  1  0.44223456  0.57582552  0.69037416  1  0  1.070159  0  1.924161  0  0  0.885674  0  2.42657  0  0  0.93331  0  2.364691  0  1.288715  0  0.716962  0.852566  0  2.469105  0
Zn  Zn1  1  0.05776035  0.07582700  0.30962417  1  0  1.070132  0  1.924138  0  0  0.885612  0  2.42656  0  0  0.933248  0  2.364682  0  1.288715  0  0.716913  0.852498  0  2.469093  0
Zn  Zn2  1  0.55775653  0.42417226  0.30962333  1  0  1.070132  0  1.924111  0  0  0.885614  0  2.426536  0  0  0.933252  0  2.364657  0  1.288846  0  0.716914  0.852501  0  2.469072  0
Zn  Zn3  1  0.94224733  0.92417373  0.69037619  1  0  1.070137  0  1.924149  0  0  0.885621  0  2.426549  0  0  0.933255  0  2.364673  0  1.288823  0  0.716921  0.852511  0  2.469081  0
H  H4  1  0.34270118  0.57416732  0.06625510  1  0  0.13718  0  0.940932  0  0  0.144272  0  1.002117  0  0  0.147982  0  1.000351  0  0.158337  0  0.119871  0.141558  0  1.003612  0
H  H5  1  0.15730138  0.07416954  0.93374387  1  0  0.137194  0  0.941008  0  0  0.144213  0  1.002246  0  0  0.147925  0  1.000479  0  0.158401  0  0.119879  0.141499  0  1.003742  0
H  H6  1  0.65730011  0.42583046  0.93374617  1  0  0.137205  0  0.94098  0  0  0.14423  0  1.002213  0  0  0.147941  0  1.000447  0  0.158389  0  0.119854  0.141514  0  1.003715  0
H  H7  1  0.84269864  0.92583193  0.06625219  1  0  0.1372  0  0.940985  0  0  0.144243  0  1.002206  0  0  0.147954  0  1.000439  0  0.158394  0  0.11987  0.141526  0  1.003711  0
H  H8  1  0.25582901  0.68885699  0.19600752  1  0  0.103755  0  0.942497  0  0  0.1092  0  1.009245  0  0  0.112182  0  1.005884  0  0.152255  0  0.130087  0.106948  0  1.011748  0
H  H9  1  0.24417100  0.18885847  0.80399124  1  0  0.103717  0  0.942526  0  0  0.109205  0  1.009234  0  0  0.11219  0  1.005873  0  0.152227  0  0.130076  0.106952  0  1.011738  0
H  H10  1  0.74417229  0.31114300  0.80399303  1  0  0.103751  0  0.942496  0  0  0.109209  0  1.009221  0  0  0.112191  0  1.005861  0  0.152244  0  0.130095  0.106956  0  1.011724  0
H  H11  1  0.75582774  0.81114226  0.19600471  1  0  0.103751  0  0.94248  0  0  0.109191  0  1.009232  0  0  0.112171  0  1.005872  0  0.152252  0  0.130098  0.106938  0  1.011735  0
H  H12  1  0.19832265  0.92451701  0.00306687  1  0  0.113641  0  0.952795  0  0  0.120083  0  1.015903  0  0  0.123547  0  1.012721  0  0.207247  0  0.131445  0.117445  0  1.018356  0
H  H13  1  0.30167864  0.42451554  0.99693054  1  0  0.113647  0  0.9528  0  0  0.120057  0  1.015961  0  0  0.123547  0  1.012725  0  0.20717  0  0.13145  0.117419  0  1.018413  0
H  H14  1  0.80168120  0.07548372  0.99693389  1  0  0.113638  0  0.952825  0  0  0.120069  0  1.015925  0  0  0.123523  0  1.012737  0  0.207238  0  0.131452  0.117432  0  1.018378  0
H  H15  1  0.69832904  0.57548372  0.00306690  1  0  0.11365  0  0.952838  0  0  0.120045  0  1.01597  0  0  0.123522  0  1.012773  0  0.207455  0  0.131439  0.117408  0  1.018423  0
H  H16  1  0.28054132  0.81850433  0.86226314  1  0  0.132568  0  0.94771  0  0  0.138614  0  1.009245  0  0  0.141971  0  1.008233  0  0.158467  0  0.116221  0.136127  0  1.01019  0
H  H17  1  0.21946379  0.31850507  0.13773460  1  0  0.132513  0  0.947797  0  0  0.138607  0  1.009276  0  0  0.141963  0  1.008265  0  0.158529  0  0.116222  0.136122  0  1.010222  0
H  H18  1  0.71946380  0.18149419  0.13773700  1  0  0.132613  0  0.94774  0  0  0.138643  0  1.009264  0  0  0.142  0  1.008254  0  0.158481  0  0.116244  0.136157  0  1.01021  0
H  H19  1  0.78054516  0.68149492  0.86226222  1  0  0.132546  0  0.9478  0  0  0.138601  0  1.009317  0  0  0.141957  0  1.008307  0  0.158482  0  0.11621  0.136114  0  1.010263  0
H  H20  1  0.48585316  0.79402695  0.66251553  1  0  0.092509  0  0.921867  0  0  0.101632  0  0.98201  0  0  0.104473  0  0.979697  0  0.112418  0  0.121998  0.099496  0  0.983786  0
H  H21  1  0.01414302  0.29402695  0.33748363  1  0  0.092478  0  0.921888  0  0  0.101596  0  0.982047  0  0  0.104437  0  0.979734  0  0.11241  0  0.121976  0.099461  0  0.983822  0
H  H22  1  0.51414814  0.20597157  0.33748210  1  0  0.092484  0  0.921849  0  0  0.101612  0  0.981991  0  0  0.10445  0  0.979679  0  0.112401  0  0.121993  0.099477  0  0.983766  0
H  H23  1  0.98585572  0.70597230  0.66251743  1  0  0.09249  0  0.92189  0  0  0.101614  0  0.982031  0  0  0.104455  0  0.979719  0  0.112409  0  0.121979  0.099478  0  0.983807  0
H  H24  1  0.37887878  0.91943486  0.53418309  1  0  0.119235  0  0.938974  0  0  0.130103  0  0.995928  0  0  0.133579  0  0.994353  0  0.100801  0  0.114252  0.127561  0  0.997243  0
H  H25  1  0.12112123  0.41943340  0.46581567  1  0  0.119242  0  0.938985  0  0  0.130094  0  0.995947  0  0  0.133569  0  0.994374  0  0.100771  0  0.114253  0.127553  0  0.99726  0
H  H26  1  0.62112890  0.08056660  0.46581508  1  0  0.119266  0  0.93895  0  0  0.130111  0  0.995921  0  0  0.133586  0  0.994348  0  0.100759  0  0.11427  0.127571  0  0.997233  0
H  H27  1  0.87887623  0.58056586  0.53418601  1  0  0.119259  0  0.938914  0  0  0.130096  0  0.995897  0  0  0.133571  0  0.994324  0  0.100767  0  0.114261  0.127556  0  0.997207  0
H  H28  1  0.17889434  0.68055496  0.34408416  1  0  0.109466  0  0.963652  0  0  0.11511  0  1.032175  0  0  0.118575  0  1.030504  0  0.109119  0  0.106468  0.112616  0  1.033458  0
H  H29  1  0.32109928  0.18055349  0.65591260  1  0  0.109588  0  0.963705  0  0  0.115091  0  1.032409  0  0  0.118539  0  1.030778  0  0.109184  0  0.106426  0.112612  0  1.03365  0
H  H30  1  0.82110568  0.31944504  0.65591263  1  0  0.109562  0  0.963662  0  0  0.115068  0  1.032361  0  0  0.118527  0  1.030699  0  0.109198  0  0.106421  0.112588  0  1.033603  0
H  H31  1  0.67889818  0.81944503  0.34408762  1  0  0.10956  0  0.963743  0  0  0.115072  0  1.032417  0  0  0.118536  0  1.030747  0  0.109189  0  0.10641  0.112586  0  1.033677  0
H  H32  1  0.30156377  0.56371353  0.47802428  1  0  0.09008  0  0.950382  0  0  0.097389  0  1.013789  0  0  0.100206  0  1.011461  0  0.122761  0  0.118469  0.09527  0  1.015604  0
H  H33  1  0.19842986  0.06371354  0.52197248  1  0  0.09008  0  0.950472  0  0  0.097412  0  1.013831  0  0  0.10023  0  1.011502  0  0.122775  0  0.118483  0.095293  0  1.015646  0
H  H34  1  0.69843242  0.43628572  0.52197219  1  0  0.090119  0  0.950413  0  0  0.097438  0  1.013784  0  0  0.100255  0  1.011458  0  0.122791  0  0.118483  0.095318  0  1.015604  0
H  H35  1  0.80156888  0.93628719  0.47802566  1  0  0.090101  0  0.950405  0  0  0.097449  0  1.013748  0  0  0.100266  0  1.011422  0  0.122772  0  0.11848  0.095329  0  1.015566  0
H  H36  1  0.18654339  0.84885134  0.15693925  1  0  0.323984  0  0.89385  0  0  0.300736  0  0.95945  0  0  0.309875  0  0.952014  0  0.563225  0  0.317887  0.294231  0  0.964874  0
H  H37  1  0.31345789  0.34885429  0.84305816  1  0  0.323877  0  0.893936  0  0  0.300635  0  0.959509  0  0  0.309772  0  0.952079  0  0.563163  0  0.31784  0.294132  0  0.964932  0
H  H38  1  0.81345918  0.15114645  0.84306140  1  0  0.323912  0  0.893924  0  0  0.300657  0  0.959501  0  0  0.309794  0  0.952069  0  0.563172  0  0.317843  0.294152  0  0.964925  0
H  H39  1  0.68654596  0.65114718  0.15693750  1  0  0.323966  0  0.893836  0  0  0.300698  0  0.959451  0  0  0.309837  0  0.952016  0  0.563249  0  0.317877  0.294192  0  0.964875  0
C  C40  1  0.36083274  0.62095782  0.87417700  1  0  0.620851  0  3.960027  0  0  0.572062  0  4.254641  0  0  0.605292  0  4.247164  0  1.608137  0  0.199927  0.549586  0  4.258913  0
C  C41  1  0.13916855  0.12095856  0.12582041  1  0  0.620896  0  3.960026  0  0  0.572101  0  4.254685  0  0  0.605333  0  4.247208  0  1.608124  0  0.199854  0.549613  0  4.258954  0
C  C42  1  0.63916728  0.37904144  0.12582198  1  0  0.620862  0  3.960054  0  0  0.572063  0  4.254699  0  0  0.605296  0  4.247223  0  1.608119  0  0.199882  0.549577  0  4.258968  0
C  C43  1  0.86083785  0.87903996  0.87417546  1  0  0.620881  0  3.959935  0  0  0.572171  0  4.254495  0  0  0.605403  0  4.247015  0  1.60845  0  0.200026  0.549686  0  4.258766  0
C  C44  1  0.31208711  0.68799143  0.95390672  1  0  0.015678  0  3.678864  0  0  0.032575  0  3.910159  0  0  0.032423  0  3.929448  0  -0.009213  0  0.017551  0.032649  0  3.89733  0
C  C45  1  0.18791673  0.18798996  0.04609163  1  0  0.015765  0  3.678751  0  0  0.032561  0  3.910156  0  0  0.032406  0  3.92945  0  -0.009274  0  0.01749  0.032669  0  3.897284  0
C  C46  1  0.68791673  0.31200930  0.04609404  1  0  0.015779  0  3.678848  0  0  0.032606  0  3.910188  0  0  0.032452  0  3.92948  0  -0.009276  0  0.017556  0.032713  0  3.897315  0
C  C47  1  0.81209095  0.81200856  0.95390435  1  0  0.015827  0  3.678812  0  0  0.032586  0  3.910284  0  0  0.032432  0  3.929576  0  -0.009605  0  0.017613  0.032692  0  3.897411  0
C  C48  1  0.30752934  0.65026467  0.04855670  1  0  -0.111469  0  3.668125  0  0  -0.135467  0  3.919957  0  0  -0.142146  0  3.93991  0  0.047739  0  -0.063165  -0.131299  0  3.906918  0
C  C49  1  0.19247195  0.15026689  0.95144144  1  0  -0.111525  0  3.668124  0  0  -0.135396  0  3.919984  0  0  -0.142073  0  3.939937  0  0.047582  0  -0.063098  -0.131239  0  3.906934  0
C  C50  1  0.69247324  0.34973385  0.95144323  1  0  -0.111533  0  3.668181  0  0  -0.135443  0  3.920026  0  0  -0.14212  0  3.939975  0  0.048118  0  -0.063114  -0.131285  0  3.906975  0
C  C51  1  0.80753062  0.84973458  0.04855483  1  0  -0.111518  0  3.668147  0  0  -0.135438  0  3.920069  0  0  -0.142113  0  3.940018  0  0.048095  0  -0.06318  -0.131283  0  3.907022  0
C  C52  1  0.26274800  0.71201799  0.12090778  1  0  0.159894  0  3.59522  0  0  0.117344  0  3.852348  0  0  0.126759  0  3.865794  0  0.421957  0  0.072942  0.111161  0  3.843447  0
C  C53  1  0.23725457  0.21202020  0.87909046  1  0  0.159912  0  3.595252  0  0  0.117295  0  3.852378  0  0  0.126708  0  3.865825  0  0.422028  0  0.072909  0.111112  0  3.843483  0
C  C54  1  0.73725458  0.28797980  0.87909214  1  0  0.159859  0  3.595354  0  0  0.117278  0  3.852461  0  0  0.126693  0  3.865907  0  0.421615  0  0.072874  0.111094  0  3.843564  0
C  C55  1  0.76274928  0.78798126  0.12090592  1  0  0.159808  0  3.595372  0  0  0.117243  0  3.852514  0  0  0.126659  0  3.865961  0  0.421673  0  0.072866  0.111058  0  3.843615  0
C  C56  1  0.23196673  0.84686680  0.01017534  1  0  0.144683  0  3.593547  0  0  0.103998  0  3.847357  0  0  0.111624  0  3.862596  0  0.399303  0  0.068564  0.099057  0  3.837282  0
C  C57  1  0.26803456  0.34686607  0.98982426  1  0  0.144752  0  3.593428  0  0  0.104074  0  3.847235  0  0  0.111696  0  3.862477  0  0.399421  0  0.06865  0.099135  0  3.837163  0
C  C58  1  0.76803967  0.15313319  0.98982783  1  0  0.144683  0  3.593488  0  0  0.104067  0  3.84714  0  0  0.111712  0  3.862396  0  0.399382  0  0.068548  0.099125  0  3.837069  0
C  C59  1  0.73196801  0.65313392  0.01017274  1  0  0.144646  0  3.593587  0  0  0.104063  0  3.847289  0  0  0.11168  0  3.862524  0  0.399107  0  0.068604  0.099118  0  3.837218  0
C  C60  1  0.27541430  0.78784351  0.93513023  1  0  -0.108143  0  3.653059  0  0  -0.129488  0  3.899857  0  0  -0.135825  0  3.920321  0  -0.006768  0  -0.06539  -0.125598  0  3.886524  0
C  C61  1  0.22458826  0.28784057  0.06487020  1  0  -0.108163  0  3.653085  0  0  -0.129523  0  3.8999  0  0  -0.135864  0  3.920373  0  -0.006791  0  -0.065412  -0.125642  0  3.886556  0
C  C62  1  0.72458827  0.21215943  0.06487261  1  0  -0.108169  0  3.653171  0  0  -0.129506  0  3.899928  0  0  -0.135846  0  3.920392  0  -0.006871  0  -0.065359  -0.125625  0  3.886586  0
C  C63  1  0.77541304  0.71215942  0.93512669  1  0  -0.108147  0  3.653178  0  0  -0.129499  0  3.900013  0  0  -0.135837  0  3.920482  0  -0.00684  0  -0.06541  -0.125619  0  3.886673  0
C  C64  1  0.41999449  0.77191494  0.59032751  1  0  0.137238  0  3.678286  0  0  0.10586  0  3.92992  0  0  0.112071  0  3.948164  0  0.457032  0  0.054099  0.101847  0  3.917496  0
C  C65  1  0.08000169  0.27191495  0.40967165  1  0  0.137179  0  3.678291  0  0  0.105821  0  3.929939  0  0  0.112029  0  3.948179  0  0.457389  0  0.05408  0.101809  0  3.917513  0
C  C66  1  0.58000808  0.22808579  0.40966949  1  0  0.137217  0  3.678337  0  0  0.105842  0  3.929993  0  0  0.112059  0  3.948227  0  0.457194  0  0.054083  0.101828  0  3.917571  0
C  C67  1  0.91999961  0.72808725  0.59032962  1  0  0.137145  0  3.67839  0  0  0.105755  0  3.930024  0  0  0.111964  0  3.948261  0  0.457694  0  0.054054  0.101743  0  3.917601  0
C  C68  1  0.35972871  0.84125280  0.51909197  1  0  -0.111006  0  3.693434  0  0  -0.135363  0  3.943325  0  0  -0.140839  0  3.964519  0  0.052731  0  -0.072939  -0.131866  0  3.929208  0
C  C69  1  0.14026619  0.34125133  0.48090854  1  0  -0.110989  0  3.693391  0  0  -0.135294  0  3.943317  0  0  -0.140769  0  3.96451  0  0.052364  0  -0.072918  -0.131798  0  3.9292  0
C  C70  1  0.64027386  0.15874867  0.48090649  1  0  -0.111109  0  3.69344  0  0  -0.135415  0  3.943363  0  0  -0.140891  0  3.964557  0  0.052588  0  -0.072974  -0.131919  0  3.929247  0
C  C71  1  0.85973127  0.65874866  0.51909387  1  0  -0.110963  0  3.693282  0  0  -0.135286  0  3.943178  0  0  -0.140763  0  3.964376  0  0.052087  0  -0.072917  -0.131791  0  3.929061  0
C  C72  1  0.27037024  0.80922107  0.42903173  1  0  -0.006482  0  3.710193  0  0  0.012408  0  3.940657  0  0  0.01008  0  3.961253  0  -0.055777  0  0.004778  0.014001  0  3.926761  0
C  C73  1  0.22962594  0.30922034  0.57096817  1  0  -0.006435  0  3.71021  0  0  0.012367  0  3.940768  0  0  0.010043  0  3.96136  0  -0.055767  0  0.004761  0.013958  0  3.926877  0
C  C74  1  0.72963488  0.19077892  0.57096695  1  0  -0.006357  0  3.710081  0  0  0.012455  0  3.940647  0  0  0.010129  0  3.96124  0  -0.055738  0  0.004776  0.014046  0  3.926757  0
C  C75  1  0.77037025  0.69077891  0.42903341  1  0  -0.006477  0  3.710286  0  0  0.012432  0  3.940741  0  0  0.010104  0  3.961337  0  -0.055508  0  0.004783  0.014024  0  3.926847  0
C  C76  1  0.19115222  0.88133462  0.35175909  1  0  0.654896  0  3.917087  0  0  0.603702  0  4.212615  0  0  0.637898  0  4.203623  0  1.606996  0  0.213335  0.580512  0  4.217923  0
C  C77  1  0.30884396  0.38133610  0.64824153  1  0  0.654989  0  3.916899  0  0  0.603834  0  4.212439  0  0  0.63803  0  4.203442  0  1.607011  0  0.213387  0.580643  0  4.217752  0
C  C78  1  0.80885162  0.11866463  0.64824167  1  0  0.654821  0  3.917076  0  0  0.603601  0  4.212688  0  0  0.637799  0  4.203699  0  1.606938  0  0.213276  0.58041  0  4.217998  0
C  C79  1  0.69115223  0.61866536  0.35176150  1  0  0.654981  0  3.916796  0  0  0.603716  0  4.212449  0  0  0.637912  0  4.20346  0  1.606789  0  0.213336  0.580524  0  4.217759  0
C  C80  1  0.25018252  0.70807028  0.41262796  1  0  -0.113776  0  3.705947  0  0  -0.135074  0  3.95171  0  0  -0.140973  0  3.974244  0  0.037066  0  -0.07524  -0.13126  0  3.936677  0
C  C81  1  0.24981111  0.20807102  0.58737099  1  0  -0.113862  0  3.706187  0  0  -0.13504  0  3.95198  0  0  -0.140942  0  3.974508  0  0.037  0  -0.075154  -0.131223  0  3.936958  0
C  C82  1  0.74981622  0.29192824  0.58737091  1  0  -0.113867  0  3.706039  0  0  -0.135048  0  3.951838  0  0  -0.140947  0  3.974371  0  0.036961  0  -0.075181  -0.131231  0  3.936815  0
C  C83  1  0.75018508  0.79192750  0.41262913  1  0  -0.113773  0  3.706105  0  0  -0.134973  0  3.951874  0  0  -0.140871  0  3.974411  0  0.037  0  -0.075131  -0.131158  0  3.936845  0
C  C84  1  0.31599907  0.64312359  0.48670601  1  0  0.128485  0  3.685736  0  0  0.099211  0  3.932384  0  0  0.104855  0  3.951207  0  0.433  0  0.047968  0.095528  0  3.919664  0
C  C85  1  0.18399328  0.14312286  0.51329137  1  0  0.128389  0  3.685712  0  0  0.09915  0  3.932316  0  0  0.104796  0  3.95113  0  0.43302  0  0.047919  0.095465  0  3.9196  0
C  C86  1  0.68399457  0.35687640  0.51329170  1  0  0.128347  0  3.685651  0  0  0.099116  0  3.93224  0  0  0.104762  0  3.951059  0  0.433112  0  0.047922  0.095431  0  3.919523  0
C  C87  1  0.81600546  0.85687639  0.48670823  1  0  0.128326  0  3.685553  0  0  0.099035  0  3.93215  0  0  0.104676  0  3.95097  0  0.433141  0  0.04789  0.095354  0  3.919432  0
C  C88  1  0.81803610  0.51673299  0.75414859  1  0  0.30699  0  4.112582  0  0  0.293636  0  4.402595  0  0  0.317224  0  4.417395  0  0.511689  0  0.144818  0.277737  0  4.391678  0
C  C89  1  0.68194861  0.01672857  0.24586392  1  0  0.307031  0  4.112501  0  0  0.293676  0  4.4025  0  0  0.317261  0  4.417298  0  0.511958  0  0.14474  0.277778  0  4.391582  0
C  C90  1  0.18194222  0.48326774  0.24586097  1  0  0.307012  0  4.112562  0  0  0.29365  0  4.402581  0  0  0.317234  0  4.417385  0  0.511741  0  0.144706  0.277753  0  4.39166  0
C  C91  1  0.31805268  0.98326848  0.75415196  1  0  0.306867  0  4.112822  0  0  0.293506  0  4.402823  0  0  0.317095  0  4.417619  0  0.511924  0  0.144615  0.277606  0  4.391908  0
S  S92  1  0.00867011  0.48841398  0.80241787  1  0  -0.341714  0  2.040518  0  0  -0.329864  0  2.320593  0  0  -0.346495  0  2.31928  0  0.140147  0  -0.169763  -0.317742  0  2.320897  0
S  S93  1  0.49131458  0.98840955  0.19759565  1  0  -0.341799  0  2.04027  0  0  -0.329963  0  2.32036  0  0  -0.346593  0  2.319048  0  0.140025  0  -0.169811  -0.317837  0  2.320664  0
S  S94  1  0.99131459  0.51158970  0.19759441  1  0  -0.341745  0  2.040378  0  0  -0.329903  0  2.32048  0  0  -0.346534  0  2.319169  0  0.140028  0  -0.169757  -0.317779  0  2.320784  0
S  S95  1  0.50869182  0.01159044  0.80241993  1  0  -0.341689  0  2.040284  0  0  -0.329851  0  2.320394  0  0  -0.346484  0  2.319079  0  0.139799  0  -0.169713  -0.31773  0  2.320699  0
N  N96  1  0.22506816  0.80709363  0.09970653  1  0  -0.213051  0  3.471434  0  0  -0.138355  0  3.690732  0  0  -0.153491  0  3.707385  0  -1.285857  0  -0.335116  -0.128422  0  3.679678  0
N  N97  1  0.27493568  0.30709437  0.90029255  1  0  -0.212955  0  3.471437  0  0  -0.138233  0  3.690744  0  0  -0.153371  0  3.707405  0  -1.285824  0  -0.335094  -0.128305  0  3.679692  0
N  N98  1  0.77493696  0.19290562  0.90029580  1  0  -0.213006  0  3.471519  0  0  -0.138304  0  3.690777  0  0  -0.153444  0  3.707427  0  -1.285814  0  -0.335078  -0.128373  0  3.679722  0
N  N99  1  0.72507072  0.69290562  0.09970404  1  0  -0.212987  0  3.47164  0  0  -0.13827  0  3.690895  0  0  -0.15341  0  3.707555  0  -1.285842  0  -0.335082  -0.12833  0  3.679832  0
N  N100  1  0.39671422  0.67449970  0.57473317  1  0  -0.332952  0  3.292564  0  0  -0.249594  0  3.566212  0  0  -0.267589  0  3.580507  0  -1.261468  0  -0.327693  -0.237438  0  3.556454  0
N  N101  1  0.10327813  0.17449897  0.42526494  1  0  -0.33285  0  3.292456  0  0  -0.249574  0  3.566194  0  0  -0.267561  0  3.580479  0  -1.26146  0  -0.327677  -0.237415  0  3.556436  0
N  N102  1  0.60328197  0.32550029  0.42526403  1  0  -0.332805  0  3.292492  0  0  -0.249503  0  3.566186  0  0  -0.267497  0  3.58048  0  -1.261542  0  -0.327642  -0.237345  0  3.556426  0
N  N103  1  0.89672189  0.82550103  0.57473623  1  0  -0.332893  0  3.292519  0  0  -0.249525  0  3.56617  0  0  -0.26751  0  3.580456  0  -1.261578  0  -0.327666  -0.237373  0  3.556417  0
N  N104  1  0.67760015  0.53864536  0.71753541  1  0  -0.615449  0  3.028837  0  0  -0.548215  0  3.344932  0  0  -0.571997  0  3.340701  0  -1.377818  0  -0.433389  -0.531794  0  3.347474  0
N  N105  1  0.82238583  0.03864315  0.28246114  1  0  -0.615378  0  3.028999  0  0  -0.548137  0  3.345082  0  0  -0.571919  0  3.340851  0  -1.378047  0  -0.433232  -0.531713  0  3.347622  0
N  N106  1  0.32238200  0.46135906  0.28246425  1  0  -0.61542  0  3.028926  0  0  -0.548182  0  3.345016  0  0  -0.571966  0  3.340788  0  -1.377854  0  -0.433267  -0.531759  0  3.347553  0
N  N107  1  0.17761674  0.96135979  0.71754317  1  0  -0.615348  0  3.02929  0  0  -0.548109  0  3.345366  0  0  -0.571891  0  3.341137  0  -1.377826  0  -0.433225  -0.531687  0  3.347905  0
O  O108  1  0.36143389  0.66269489  0.78951238  1  0  -0.643066  0  2.055583  0  0  -0.573533  0  2.328696  0  0  -0.602707  0  2.313898  0  -1.159457  0  -0.32666  -0.553051  0  2.338061  0
O  O109  1  0.13856357  0.16269563  0.21048398  1  0  -0.643066  0  2.055601  0  0  -0.573491  0  2.328667  0  0  -0.602663  0  2.313865  0  -1.159382  0  -0.326627  -0.553026  0  2.338076  0
O  O110  1  0.63856103  0.33730510  0.21048690  1  0  -0.643067  0  2.055629  0  0  -0.57349  0  2.328691  0  0  -0.602664  0  2.313891  0  -1.159438  0  -0.326631  -0.553012  0  2.338069  0
O  O111  1  0.86143900  0.83730436  0.78951011  1  0  -0.643058  0  2.055531  0  0  -0.573532  0  2.328603  0  0  -0.602705  0  2.313804  0  -1.159498  0  -0.326688  -0.553057  0  2.337988  0
O  O112  1  0.39865935  0.53338936  0.89463293  1  0  -0.592467  0  1.950435  0  0  -0.550328  0  2.187556  0  0  -0.572022  0  2.17778  0  -1.171149  0  -0.307856  -0.535231  0  2.193898  0
O  O113  1  0.10133428  0.03339010  0.10536383  1  0  -0.592555  0  1.950418  0  0  -0.550381  0  2.187518  0  0  -0.572078  0  2.177744  0  -1.17115  0  -0.307826  -0.535281  0  2.193865  0
O  O114  1  0.60133812  0.46660989  0.10536510  1  0  -0.59252  0  1.950461  0  0  -0.550354  0  2.187565  0  0  -0.572054  0  2.177796  0  -1.171123  0  -0.307851  -0.535261  0  2.193919  0
O  O115  1  0.89866446  0.96660989  0.89463139  1  0  -0.592503  0  1.950382  0  0  -0.550397  0  2.187516  0  0  -0.572088  0  2.177732  0  -1.171114  0  -0.307906  -0.535297  0  2.193858  0
O  O116  1  0.20163218  0.97201321  0.37893141  1  0  -0.650631  0  2.110586  0  0  -0.579284  0  2.392166  0  0  -0.608353  0  2.375783  0  -1.163904  0  -0.322117  -0.558882  0  2.402535  0
O  O117  1  0.29835635  0.47201542  0.62106930  1  0  -0.650652  0  2.110431  0  0  -0.579365  0  2.392048  0  0  -0.60843  0  2.375658  0  -1.163878  0  -0.322173  -0.558967  0  2.402421  0
O  O118  1  0.79837295  0.02798604  0.62107019  1  0  -0.650618  0  2.11052  0  0  -0.579255  0  2.392119  0  0  -0.608319  0  2.375725  0  -1.163923  0  -0.32209  -0.558854  0  2.402488  0
O  O119  1  0.70162963  0.52798604  0.37893069  1  0  -0.650645  0  2.11042  0  0  -0.579294  0  2.392061  0  0  -0.608359  0  2.375667  0  -1.16402  0  -0.322106  -0.558894  0  2.402432  0
O  O120  1  0.11979385  0.84895962  0.27037466  1  0  -0.621096  0  1.980297  0  0  -0.578993  0  2.215557  0  0  -0.601449  0  2.206418  0  -1.197701  0  -0.318294  -0.563259  0  2.221309  0
O  O121  1  0.38020871  0.34895963  0.72962432  1  0  -0.621148  0  1.98035  0  0  -0.579021  0  2.215569  0  0  -0.601478  0  2.206437  0  -1.197732  0  -0.318294  -0.563292  0  2.221323  0
O  O122  1  0.88021000  0.15104111  0.72962538  1  0  -0.621041  0  1.980366  0  0  -0.578917  0  2.215658  0  0  -0.60136  0  2.206492  0  -1.197722  0  -0.318265  -0.563189  0  2.221411  0
O  O123  1  0.61979514  0.65104036  0.27037571  1  0  -0.621139  0  1.980143  0  0  -0.579006  0  2.215458  0  0  -0.601453  0  2.206297  0  -1.197726  0  -0.318305  -0.563273  0  2.22121  0
