# generated using pymatgen
data_ZnH14C14(N2Cl)2
_symmetry_space_group_name_H-M   'P 1'
_cell_length_a   7.65378605
_cell_length_b   8.89975075
_cell_length_c   11.00611519
_cell_angle_alpha   89.99982509
_cell_angle_beta   90.00026097
_cell_angle_gamma   97.23604647
_symmetry_Int_Tables_number   1
_chemical_formula_structural   ZnH14C14(N2Cl)2
_chemical_formula_sum   'Zn2 H28 C28 N8 Cl4'
_cell_volume   743.73033751
_cell_formula_units_Z   2
loop_
 _symmetry_equiv_pos_site_id
 _symmetry_equiv_pos_as_xyz
  1  'x, y, z'
loop_
 _atom_site_type_symbol
 _atom_site_label
 _atom_site_symmetry_multiplicity
 _atom_site_fract_x
 _atom_site_fract_y
 _atom_site_fract_z
 _atom_site_occupancy
 _atom_site_hle17_bader_spin_density
 _atom_site_hle17_ddec_charge
 _atom_site_hle17_ddec_spin_density
 _atom_site_hle17_ddec_sum_bond_order
 _atom_site_hle17_magmom
 _atom_site_hse06_10hf_bader_spin_density
 _atom_site_hse06_10hf_ddec_charge
 _atom_site_hse06_10hf_ddec_spin_density
 _atom_site_hse06_10hf_ddec_sum_bond_order
 _atom_site_hse06_10hf_magmom
 _atom_site_hse06_bader_spin_density
 _atom_site_hse06_ddec_charge
 _atom_site_hse06_ddec_spin_density
 _atom_site_hse06_ddec_sum_bond_order
 _atom_site_hse06_magmom
 _atom_site_pbe_bader_spin_density
 _atom_site_pbe_cm5_charge
 _atom_site_pbe_ddec_charge
 _atom_site_pbe_ddec_spin_density
 _atom_site_pbe_ddec_sum_bond_order
 _atom_site_pbe_magmom
Zn  Zn0  1  0.19485243  0.80258130  0.50077638  1  0  0.825584  0  2.184935  0  0  0.647534  0  2.694916  0  0  0.685851  0  2.649245  0  0  0.568462  0.620227  0  2.727132  0
Zn  Zn1  1  0.80514702  0.19741773  0.00077425  1  0  0.825573  0  2.184974  0  0  0.647517  0  2.694978  0  0  0.685832  0  2.649306  0  0  0.568456  0.620212  0  2.727193  0
H  H2  1  0.84458784  0.85996930  0.02350358  1  0  0.095393  0  0.974891  0  0  0.106923  0  1.036968  0  0  0.108486  0  1.035967  0  0  0.115897  0.105749  0  1.03778  0
H  H3  1  0.15541192  0.14003078  0.52350086  1  0  0.095406  0  0.974891  0  0  0.106937  0  1.036967  0  0  0.108499  0  1.035968  0  0  0.115914  0.105761  0  1.037779  0
H  H4  1  0.65226548  0.62767657  0.89728417  1  0  0.125012  0  0.984069  0  0  0.131813  0  1.04822  0  0  0.135364  0  1.04688  0  0  0.096657  0.128578  0  1.050468  0
H  H5  1  0.34773411  0.37232350  0.39728287  1  0  0.124954  0  0.984095  0  0  0.13174  0  1.048271  0  0  0.135291  0  1.046931  0  0  0.096618  0.128505  0  1.05052  0
H  H6  1  0.44328412  0.77973465  0.74377535  1  0  0.107877  0  0.978674  0  0  0.113053  0  1.05325  0  0  0.115852  0  1.05032  0  0  0.113761  0.111028  0  1.055052  0
H  H7  1  0.55671549  0.22026362  0.24377509  1  0  0.107869  0  0.978695  0  0  0.113042  0  1.053275  0  0  0.115833  0  1.050362  0  0  0.113757  0.111016  0  1.05508  0
H  H8  1  0.48920948  0.18377457  0.83341723  1  0  0.089045  0  0.960496  0  0  0.098865  0  1.033502  0  0  0.10014  0  1.032882  0  0  0.10381  0.097811  0  1.034164  0
H  H9  1  0.51078955  0.81622456  0.33341899  1  0  0.089069  0  0.960455  0  0  0.098836  0  1.033494  0  0  0.100111  0  1.032872  0  0  0.103808  0.097781  0  1.034159  0
H  H10  1  0.37787763  0.04672453  0.73295035  1  0  0.095534  0  0.954477  0  0  0.107746  0  1.024652  0  0  0.108875  0  1.024367  0  0  0.105301  0.106829  0  1.025049  0
H  H11  1  0.62212096  0.95327605  0.23295394  1  0  0.095504  0  0.954501  0  0  0.107703  0  1.024668  0  0  0.108822  0  1.024394  0  0  0.105277  0.106785  0  1.025065  0
H  H12  1  0.65161531  0.93560506  0.58914872  1  0  0.093615  0  0.957129  0  0  0.101954  0  1.025624  0  0  0.104708  0  1.024307  0  0  0.095862  0.099497  0  1.027592  0
H  H13  1  0.34838406  0.06439822  0.08914910  1  0  0.093648  0  0.957082  0  0  0.10198  0  1.02558  0  0  0.104737  0  1.024262  0  0  0.095857  0.099523  0  1.027548  0
H  H14  1  0.85079126  0.03762608  0.42266452  1  0  0.091497  0  0.957754  0  0  0.102023  0  1.018463  0  0  0.104285  0  1.018216  0  0  0.094247  0.10094  0  1.017868  0
H  H15  1  0.14920604  0.96237506  0.92266611  1  0  0.091532  0  0.957702  0  0  0.102057  0  1.018416  0  0  0.10432  0  1.018169  0  0  0.094258  0.100974  0  1.017822  0
H  H16  1  0.94335475  0.31124224  0.40469705  1  0  0.09746  0  0.957595  0  0  0.10713  0  1.019855  0  0  0.110058  0  1.019101  0  0  0.097269  0.105173  0  1.020185  0
H  H17  1  0.05664392  0.68876008  0.90469720  1  0  0.097456  0  0.957616  0  0  0.107127  0  1.019876  0  0  0.110056  0  1.019121  0  0  0.097268  0.10517  0  1.020205  0
H  H18  1  0.63247713  0.38948985  0.72031554  1  0  0.09634  0  0.958112  0  0  0.108119  0  1.019856  0  0  0.11077  0  1.019155  0  0  0.09773  0.106467  0  1.02012  0
H  H19  1  0.36752400  0.61051076  0.22031553  1  0  0.096317  0  0.95807  0  0  0.1081  0  1.01981  0  0  0.110751  0  1.019109  0  0  0.097731  0.106449  0  1.020075  0
H  H20  1  0.77429844  0.60201447  0.61152689  1  0  0.093525  0  0.915818  0  0  0.107354  0  0.980035  0  0  0.108109  0  0.979692  0  0  0.108991  0.106301  0  0.980792  0
H  H21  1  0.22570560  0.39798419  0.11152787  1  0  0.093582  0  0.915667  0  0  0.107417  0  0.979929  0  0  0.108171  0  0.979585  0  0  0.109016  0.106366  0  0.980687  0
H  H22  1  0.99273500  0.55972480  0.59279588  1  0  0.08608  0  0.945048  0  0  0.100129  0  1.015181  0  0  0.100972  0  1.014375  0  0  0.109063  0.09949  0  1.015763  0
H  H23  1  0.00726813  0.44027732  0.09279515  1  0  0.085958  0  0.945108  0  0  0.100102  0  1.015191  0  0  0.100951  0  1.01437  0  0  0.10907  0.099464  0  1.015775  0
H  H24  1  0.64203953  0.46714490  0.35314049  1  0  0.111443  0  0.96345  0  0  0.124265  0  1.024925  0  0  0.125962  0  1.023796  0  0  0.124937  0.122741  0  1.026288  0
H  H25  1  0.35796109  0.53285530  0.85313836  1  0  0.111446  0  0.963432  0  0  0.1243  0  1.024878  0  0  0.125996  0  1.02375  0  0  0.124946  0.122758  0  1.026262  0
H  H26  1  0.02276905  0.84142241  0.23612772  1  0  0.101493  0  0.974741  0  0  0.10873  0  1.042844  0  0  0.11044  0  1.042162  0  0  0.112537  0.107648  0  1.042841  0
H  H27  1  0.97723052  0.15857588  0.73612668  1  0  0.101523  0  0.97472  0  0  0.108757  0  1.042825  0  0  0.110468  0  1.042143  0  0  0.112545  0.107674  0  1.042826  0
H  H28  1  0.73231433  0.64967022  0.15560022  1  0  0.129338  0  0.968822  0  0  0.138938  0  1.026997  0  0  0.141647  0  1.027553  0  0  0.105445  0.137201  0  1.026499  0
H  H29  1  0.26768345  0.35032834  0.65560007  1  0  0.129323  0  0.968869  0  0  0.138965  0  1.026988  0  0  0.141674  0  1.027542  0  0  0.105461  0.137227  0  1.026489  0
C  C30  1  0.74638359  0.86465813  0.95307755  1  0  0.071173  0  3.721563  0  0  0.026348  0  3.9935  0  0  0.036414  0  4.008041  0  0  0.02002  0.019218  0  3.983874  0
C  C31  1  0.25361520  0.13534290  0.45307563  1  0  0.071167  0  3.72152  0  0  0.026338  0  3.993456  0  0  0.036405  0  4.007998  0  0  0.020003  0.01921  0  3.983828  0
C  C32  1  0.64783710  0.74853411  0.88757759  1  0  -0.20543  0  3.76276  0  0  -0.218882  0  4.030312  0  0  -0.228973  0  4.050283  0  0  -0.117102  -0.211848  0  4.017041  0
C  C33  1  0.35216243  0.25146599  0.38757479  1  0  -0.205357  0  3.762735  0  0  -0.218801  0  4.030297  0  0  -0.228892  0  4.050267  0  0  -0.117063  -0.211768  0  4.017029  0
C  C34  1  0.54142502  0.82199407  0.81092449  1  0  0.016327  0  3.653024  0  0  -0.044054  0  3.911706  0  0  -0.035272  0  3.925623  0  0  0.029439  -0.048739  0  3.900993  0
C  C35  1  0.45857370  0.17800400  0.31092312  1  0  0.016259  0  3.653074  0  0  -0.044117  0  3.911755  0  0  -0.035334  0  3.925667  0  0  0.029397  -0.048804  0  3.901049  0
C  C36  1  0.50807273  0.09489110  0.76735137  1  0  -0.079072  0  3.658996  0  0  -0.15528  0  3.897161  0  0  -0.152674  0  3.908281  0  0  -0.051931  -0.156866  0  3.889804  0
C  C37  1  0.49192573  0.90510711  0.26735194  1  0  -0.079026  0  3.659001  0  0  -0.155103  0  3.897013  0  0  -0.152491  0  3.908137  0  0  -0.051882  -0.156689  0  3.889656  0
C  C38  1  0.62809567  0.15670964  0.66518011  1  0  0.071935  0  3.756603  0  0  0.094858  0  3.998921  0  0  0.093951  0  4.023887  0  0  -0.015493  0.09549  0  3.982069  0
C  C39  1  0.37190642  0.84329113  0.16517772  1  0  0.07185  0  3.756643  0  0  0.094749  0  3.998959  0  0  0.093842  0  4.02392  0  0  -0.015532  0.095381  0  3.982108  0
C  C40  1  0.69005458  0.05750979  0.58141599  1  0  -0.107786  0  3.727321  0  0  -0.137133  0  3.984815  0  0  -0.139023  0  4.005312  0  0  -0.094324  -0.135818  0  3.971332  0
C  C41  1  0.30994718  0.94249238  0.08141588  1  0  -0.107832  0  3.727295  0  0  -0.137164  0  3.984773  0  0  -0.139054  0  4.005268  0  0  -0.094308  -0.135851  0  3.971301  0
C  C42  1  0.80272878  0.11420431  0.48841870  1  0  -0.055233  0  3.789602  0  0  -0.066474  0  4.043783  0  0  -0.067759  0  4.065045  0  0  -0.09309  -0.065571  0  4.028718  0
C  C43  1  0.19727318  0.88579887  0.98841700  1  0  -0.055297  0  3.789583  0  0  -0.066545  0  4.043789  0  0  -0.067832  0  4.065053  0  0  -0.093136  -0.065642  0  4.028723  0
C  C44  1  0.85532625  0.26949758  0.47849139  1  0  -0.131189  0  3.754921  0  0  -0.153982  0  4.002782  0  0  -0.157724  0  4.025295  0  0  -0.097015  -0.151041  0  3.986959  0
C  C45  1  0.14467679  0.73050449  0.97848990  1  0  -0.131162  0  3.754971  0  0  -0.153968  0  4.002823  0  0  -0.157709  0  4.025338  0  0  -0.097006  -0.151026  0  3.986998  0
C  C46  1  0.79405538  0.37005079  0.56122608  1  0  0.069094  0  3.774647  0  0  0.09395  0  4.011914  0  0  0.092965  0  4.037823  0  0  -0.015596  0.094895  0  3.99416  0
C  C47  1  0.20594722  0.62994917  0.06122551  1  0  0.068965  0  3.774695  0  0  0.093877  0  4.011976  0  0  0.092886  0  4.037894  0  0  -0.015635  0.094824  0  3.994221  0
C  C48  1  0.67944396  0.31263373  0.65399258  1  0  -0.167443  0  3.722304  0  0  -0.193564  0  3.962086  0  0  -0.19751  0  3.98483  0  0  -0.09346  -0.191356  0  3.947  0
C  C49  1  0.32055841  0.68736934  0.15399132  1  0  -0.167289  0  3.722278  0  0  -0.193412  0  3.962035  0  0  -0.197357  0  3.984781  0  0  -0.0934  -0.191206  0  3.946952  0
C  C50  1  0.85816180  0.53726068  0.55611700  1  0  -0.058054  0  3.650556  0  0  -0.139308  0  3.896581  0  0  -0.135327  0  3.906806  0  0  -0.044397  -0.141871  0  3.889597  0
C  C51  1  0.14184208  0.46273928  0.05611664  1  0  -0.057909  0  3.650297  0  0  -0.139341  0  3.896467  0  0  -0.135352  0  3.906685  0  0  -0.04444  -0.141904  0  3.889487  0
C  C52  1  0.74858716  0.55787490  0.34096004  1  0  0.023308  0  3.658523  0  0  -0.03968  0  3.914876  0  0  -0.030093  0  3.92832  0  0  0.028677  -0.045793  0  3.906022  0
C  C53  1  0.25141191  0.44212421  0.84095780  1  0  0.023286  0  3.658596  0  0  -0.039737  0  3.914957  0  0  -0.030149  0  3.928398  0  0  0.02866  -0.045835  0  3.906109  0
C  C54  1  0.94485195  0.74887147  0.28304868  1  0  0.070007  0  3.715137  0  0  0.024259  0  3.990523  0  0  0.034309  0  4.005138  0  0  0.020015  0.017993  0  3.979779  0
C  C55  1  0.05514546  0.25112783  0.78304719  1  0  0.069933  0  3.715158  0  0  0.024187  0  3.990549  0  0  0.034235  0  4.005167  0  0  0.01997  0.017922  0  3.979805  0
C  C56  1  0.79685605  0.65261248  0.24319163  1  0  -0.206607  0  3.770989  0  0  -0.217051  0  4.035359  0  0  -0.227344  0  4.056067  0  0  -0.115398  -0.21032  0  4.021329  0
C  C57  1  0.20314243  0.34738693  0.74319128  1  0  -0.206561  0  3.771038  0  0  -0.217032  0  4.0354  0  0  -0.227324  0  4.056105  0  0  -0.115394  -0.2103  0  4.021363  0
N  N58  1  0.70476847  0.00058389  0.91810800  1  0  -0.286274  0  3.184513  0  0  -0.233115  0  3.469221  0  0  -0.249233  0  3.483885  0  0  -0.256516  -0.222087  0  3.460409  0
N  N59  1  0.29523272  0.99941724  0.41810770  1  0  -0.286254  0  3.184469  0  0  -0.233093  0  3.469185  0  0  -0.249212  0  3.483851  0  0  -0.256482  -0.222062  0  3.460366  0
N  N60  1  0.57802909  0.97245027  0.83183092  1  0  0.081381  0  3.554672  0  0  0.200453  0  3.724804  0  0  0.192413  0  3.749106  0  0  -0.140459  0.205421  0  3.708766  0
N  N61  1  0.42197123  0.02754886  0.33183071  1  0  0.081396  0  3.554715  0  0  0.200445  0  3.724816  0  0  0.192403  0  3.749122  0  0  -0.14045  0.205413  0  3.70878  0
N  N62  1  0.86422723  0.59648407  0.43196959  1  0  0.075053  0  3.537411  0  0  0.194881  0  3.709961  0  0  0.185966  0  3.734628  0  0  -0.141075  0.199773  0  3.694442  0
N  N63  1  0.13577387  0.40351588  0.93196797  1  0  0.074982  0  3.537332  0  0  0.194832  0  3.70994  0  0  0.185912  0  3.73461  0  0  -0.141095  0.199726  0  3.694417  0
N  N64  1  0.98535693  0.71394489  0.39777137  1  0  -0.284212  0  3.186226  0  0  -0.232148  0  3.469495  0  0  -0.247823  0  3.483378  0  0  -0.255493  -0.220925  0  3.459254  0
N  N65  1  0.01464231  0.28605291  0.89776967  1  0  -0.284149  0  3.186165  0  0  -0.23208  0  3.469428  0  0  -0.247756  0  3.48331  0  0  -0.255443  -0.220859  0  3.459189  0
Cl  Cl66  1  0.39212463  0.63673865  0.51995987  1  0  -0.571096  0  0.921426  0  0  -0.506226  0  1.192782  0  0  -0.520818  0  1.170564  0  0  -0.31044  -0.495296  0  1.209304  0
Cl  Cl67  1  0.60787459  0.36325804  0.01996033  1  0  -0.571097  0  0.921444  0  0  -0.506223  0  1.192802  0  0  -0.520816  0  1.170594  0  0  -0.310439  -0.49529  0  1.209323  0
Cl  Cl68  1  0.08740425  0.87343334  0.67887529  1  0  -0.5651  0  0.955284  0  0  -0.502417  0  1.235585  0  0  -0.517949  0  1.215728  0  0  -0.306326  -0.49093  0  1.248992  0
Cl  Cl69  1  0.91259367  0.12656514  0.17887458  1  0  -0.565082  0  0.955286  0  0  -0.502402  0  1.235589  0  0  -0.517931  0  1.215731  0  0  -0.306313  -0.490911  0  1.248994  0
