# generated using pymatgen
data_HgH9C7I2N
_symmetry_space_group_name_H-M   'P 1'
_cell_length_a   4.31332523
_cell_length_b   15.38831300
_cell_length_c   18.26988450
_cell_angle_alpha   109.88816036
_cell_angle_beta   96.78362878
_cell_angle_gamma   98.08021770
_symmetry_Int_Tables_number   1
_chemical_formula_structural   HgH9C7I2N
_chemical_formula_sum   'Hg4 H36 C28 I8 N4'
_cell_volume   1110.93714776
_cell_formula_units_Z   4
loop_
 _symmetry_equiv_pos_site_id
 _symmetry_equiv_pos_as_xyz
  1  'x, y, z'
loop_
 _atom_site_type_symbol
 _atom_site_label
 _atom_site_symmetry_multiplicity
 _atom_site_fract_x
 _atom_site_fract_y
 _atom_site_fract_z
 _atom_site_occupancy
 _atom_site_pbe_bader_charge
 _atom_site_pbe_bader_spin_density
 _atom_site_pbe_cm5_charge
 _atom_site_pbe_ddec_charge
 _atom_site_pbe_ddec_spin_density
 _atom_site_pbe_ddec_sum_bond_order
 _atom_site_pbe_magmom
Hg  Hg0  1  0.05036921  0.72250099  0.50960239  1  0.465369  0  0.349013  0.335638  0  2.754204  0
Hg  Hg1  1  0.31967120  0.77733713  0.99045968  1  0.465562  0  0.349256  0.336693  0  2.754171  0
Hg  Hg2  1  0.94957717  0.27749495  0.49040737  1  0.46505  0  0.34902  0.335609  0  2.754356  0
Hg  Hg3  1  0.68030968  0.22266168  0.00953270  1  0.465551  0  0.349229  0.336687  0  2.754007  0
H  H4  1  0.70154528  0.71683785  0.34340727  1  0.06309  0  0.09607  0.074778  0  1.047472  0
H  H5  1  0.14280060  0.78333524  0.15666243  1  0.084065  0  0.096282  0.075153  0  1.047338  0
H  H6  1  0.29846305  0.28317080  0.65660294  1  0.063192  0  0.096141  0.074827  0  1.047388  0
H  H7  1  0.85721868  0.21665443  0.84332510  1  0.08414  0  0.096331  0.075195  0  1.047373  0
H  H8  1  0.68114418  0.45523439  0.15268225  1  0.065899  0  0.089531  0.099818  0  1.04958  0
H  H9  1  0.57406194  0.04524871  0.34717906  1  0.105176  0  0.089459  0.099678  0  1.050042  0
H  H10  1  0.31886969  0.54477920  0.84732679  1  0.065835  0  0.089524  0.099748  0  1.049322  0
H  H11  1  0.42594151  0.95473812  0.65281434  1  0.105169  0  0.089465  0.09965  0  1.049958  0
H  H12  1  0.12671842  0.51376699  0.39329191  1  0.110221  0  0.090406  0.076001  0  1.050276  0
H  H13  1  0.72104964  0.98639208  0.10659717  1  0.077414  0  0.090425  0.076828  0  1.050572  0
H  H14  1  0.87330909  0.48623885  0.60671364  1  0.109911  0  0.090404  0.075966  0  1.050441  0
H  H15  1  0.27895221  0.01361025  0.89339790  1  0.07752  0  0.090438  0.076878  0  1.050578  0
H  H16  1  0.43172130  0.57277054  0.12258299  1  0.056262  0  0.075707  0.127904  0  1.047289  0
H  H17  1  0.23868536  0.92746271  0.37747265  1  0.087824  0  0.075292  0.127365  0  1.046604  0
H  H18  1  0.56831368  0.42723602  0.87742243  1  0.056021  0  0.075619  0.127804  0  1.047384  0
H  H19  1  0.76134657  0.07252484  0.62252065  1  0.087574  0  0.07529  0.12725  0  1.046542  0
H  H20  1  0.63718916  0.68913824  0.17900265  1  0.030703  0  0.08409  0.122704  0  1.023017  0
H  H21  1  0.27083658  0.81111818  0.32093845  1  0.038604  0  0.084212  0.122669  0  1.023251  0
H  H22  1  0.36281821  0.31087254  0.82100158  1  0.030559  0  0.084032  0.122663  0  1.023116  0
H  H23  1  0.72917717  0.18886655  0.67905188  1  0.03846  0  0.084227  0.122716  0  1.023369  0
H  H24  1  0.27142334  0.64527966  0.20088552  1  0.042674  0  0.086919  0.127873  0  1.021508  0
H  H25  1  0.92694825  0.85496744  0.29924605  1  0.075709  0  0.086955  0.12818  0  1.020245  0
H  H26  1  0.72858879  0.35472408  0.79911571  1  0.042688  0  0.086891  0.127838  0  1.021532  0
H  H27  1  0.07307008  0.14502433  0.70074918  1  0.075977  0  0.086937  0.128173  0  1.020339  0
H  H28  1  0.91625836  0.33477328  0.18142684  1  0.038542  0  0.070798  0.107007  0  1.075654  0
H  H29  1  0.89950728  0.16578842  0.31830810  1  0.059472  0  0.07086  0.106799  0  1.076001  0
H  H30  1  0.08371316  0.66522903  0.81857887  1  0.038545  0  0.070807  0.107056  0  1.075676  0
H  H31  1  0.10046102  0.83420896  0.68169447  1  0.059528  0  0.070827  0.106724  0  1.075953  0
H  H32  1  0.89052462  0.33406124  0.27787960  1  0.047235  0  0.079627  0.125616  0  1.036857  0
H  H33  1  0.77890540  0.16615144  0.22171009  1  0.042822  0  0.079696  0.125414  0  1.036261  0
H  H34  1  0.10944777  0.66594599  0.72212865  1  0.047278  0  0.079579  0.125597  0  1.036964  0
H  H35  1  0.22107453  0.83384947  0.77829108  1  0.042853  0  0.079674  0.125471  0  1.03628  0
H  H36  1  0.25688515  0.37922084  0.25759660  1  0.046619  0  0.0853  0.136938  0  1.011353  0
H  H37  1  0.12081934  0.12142755  0.24242606  1  0.072824  0  0.085253  0.136297  0  1.012073  0
H  H38  1  0.74310462  0.62077724  0.74240568  1  0.046492  0  0.085308  0.136933  0  1.011519  0
H  H39  1  0.87917223  0.87857687  0.75757863  1  0.072362  0  0.085343  0.136463  0  1.01189  0
C  C40  1  0.75842308  0.64663516  0.31947198  1  0.504565  0  0.028269  -0.002914  0  3.931357  0
C  C41  1  0.29369373  0.85355956  0.18054120  1  0.491695  0  0.0274  -0.003279  0  3.933097  0
C  C42  1  0.24157879  0.35336716  0.68053239  1  0.505804  0  0.028223  -0.002919  0  3.931191  0
C  C43  1  0.70633015  0.14643714  0.81945232  1  0.491485  0  0.027512  -0.003311  0  3.933178  0
C  C44  1  0.66819059  0.59069508  0.23920385  1  0.006721  0  -0.003932  0.146698  0  3.969256  0
C  C45  1  0.33954036  0.90959849  0.26076732  1  -0.050775  0  -0.00395  0.145161  0  3.971241  0
C  C46  1  0.33183395  0.40932415  0.76080547  1  0.006178  0  -0.004039  0.146578  0  3.969616  0
C  C47  1  0.66047334  0.09038976  0.73922294  1  -0.051078  0  -0.003941  0.145345  0  3.971168  0
C  C48  1  0.74856777  0.50137328  0.21483290  1  -0.043761  0  -0.071426  -0.148986  0  3.851888  0
C  C49  1  0.53343977  0.99900836  0.28506113  1  -0.03313  0  -0.071439  -0.149044  0  3.850407  0
C  C50  1  0.25144668  0.49863046  0.78516621  1  -0.04416  0  -0.071429  -0.148867  0  3.85234  0
C  C51  1  0.46656351  0.00099256  0.71493795  1  -0.033128  0  -0.071479  -0.149172  0  3.850565  0
C  C52  1  0.91413012  0.47046330  0.26888936  1  0.036167  0  -0.002367  0.148483  0  3.962322  0
C  C53  1  0.67554888  0.02988810  0.23094856  1  0.028666  0  -0.003279  0.148082  0  3.958973  0
C  C54  1  0.08587729  0.52954394  0.73111878  1  0.036481  0  -0.00228  0.148525  0  3.961977  0
C  C55  1  0.32445123  0.97010437  0.76904582  1  0.028387  0  -0.003335  0.148125  0  3.958681  0
C  C56  1  0.99551743  0.53257665  0.34775463  1  0.416292  0  0.027521  0.002823  0  3.929905  0
C  C57  1  0.61629944  0.96759564  0.15211814  1  0.443042  0  0.027749  0.001403  0  3.928714  0
C  C58  1  0.00449844  0.46742567  0.65224795  1  0.416536  0  0.027457  0.002727  0  3.930031  0
C  C59  1  0.38370943  0.03240669  0.84788315  1  0.443177  0  0.027762  0.001255  0  3.928738  0
C  C60  1  0.49362122  0.62608049  0.18245006  1  -0.048471  0  -0.247367  -0.41961  0  3.966968  0
C  C61  1  0.18691352  0.87418999  0.31757585  1  -0.117968  0  -0.246764  -0.418316  0  3.965851  0
C  C62  1  0.50639740  0.37392607  0.81755052  1  -0.047894  0  -0.247154  -0.419405  0  3.967073  0
C  C63  1  0.81310995  0.12580248  0.68242137  1  -0.117886  0  -0.246735  -0.418251  0  3.965981  0
C  C64  1  0.99837316  0.37457484  0.24482540  1  -0.046863  0  -0.249287  -0.412534  0  3.947076  0
C  C65  1  0.87941059  0.12587970  0.25497451  1  -0.085619  0  -0.248608  -0.410285  0  3.946539  0
C  C66  1  0.00159547  0.62543381  0.75517768  1  -0.046549  0  -0.249266  -0.412505  0  3.94718  0
C  C67  1  0.12057168  0.87412120  0.74502891  1  -0.084979  0  -0.248617  -0.410445  0  3.946386  0
I  I68  1  0.81834138  0.87474272  0.50589852  1  -0.288052  0  -0.146135  -0.251199  0  1.589596  0
I  I69  1  0.93648352  0.62538173  0.99408984  1  -0.288351  0  -0.145944  -0.251638  0  1.590139  0
I  I70  1  0.18159987  0.12525252  0.49410761  1  -0.28808  0  -0.146163  -0.251226  0  1.589649  0
I  I71  1  0.06348515  0.37462340  0.00591005  1  -0.288368  0  -0.145951  -0.251671  0  1.59013  0
I  I72  1  0.45954950  0.63664869  0.57207209  1  -0.264697  0  -0.123866  -0.220435  0  1.709972  0
I  I73  1  0.75309087  0.86364276  0.92843951  1  -0.263881  0  -0.124002  -0.220861  0  1.711887  0
I  I74  1  0.54043416  0.36335431  0.42793855  1  -0.264539  0  -0.123858  -0.220405  0  1.709956  0
I  I75  1  0.24690306  0.13635816  0.07155713  1  -0.263877  0  -0.123997  -0.220831  0  1.711761  0
N  N76  1  0.91818943  0.61802876  0.37179151  1  -1.238352  0  -0.318826  -0.176529  0  3.592145  0
N  N77  1  0.42980793  0.88208142  0.12818217  1  -1.233287  0  -0.318869  -0.176364  0  3.590887  0
N  N78  1  0.08182449  0.38198130  0.62821926  1  -1.239217  0  -0.318792  -0.176439  0  3.59247  0
N  N79  1  0.57020801  0.11791389  0.87180689  1  -1.233024  0  -0.319026  -0.176365  0  3.591483  0
