# generated using pymatgen
data_GdH8C9O8
_symmetry_space_group_name_H-M   'P 1'
_cell_length_a   5.84382477
_cell_length_b   10.23007403
_cell_length_c   19.50540672
_cell_angle_alpha   81.29726822
_cell_angle_beta   81.39060815
_cell_angle_gamma   73.40143882
_symmetry_Int_Tables_number   1
_chemical_formula_structural   GdH8C9O8
_chemical_formula_sum   'Gd4 H32 C36 O32'
_cell_volume   1097.63007646
_cell_formula_units_Z   4
loop_
 _symmetry_equiv_pos_site_id
 _symmetry_equiv_pos_as_xyz
  1  'x, y, z'
loop_
 _atom_site_type_symbol
 _atom_site_label
 _atom_site_symmetry_multiplicity
 _atom_site_fract_x
 _atom_site_fract_y
 _atom_site_fract_z
 _atom_site_occupancy
 _atom_site_hle17_bader_spin_density
 _atom_site_hle17_ddec_charge
 _atom_site_hle17_ddec_spin_density
 _atom_site_hle17_ddec_sum_bond_order
 _atom_site_hle17_magmom
 _atom_site_hse06_10hf_bader_spin_density
 _atom_site_hse06_10hf_ddec_charge
 _atom_site_hse06_10hf_ddec_spin_density
 _atom_site_hse06_10hf_ddec_sum_bond_order
 _atom_site_hse06_10hf_magmom
 _atom_site_hse06_bader_spin_density
 _atom_site_hse06_ddec_charge
 _atom_site_hse06_ddec_spin_density
 _atom_site_hse06_ddec_sum_bond_order
 _atom_site_hse06_magmom
 _atom_site_pbe_bader_spin_density
 _atom_site_pbe_cm5_charge
 _atom_site_pbe_ddec_charge
 _atom_site_pbe_ddec_spin_density
 _atom_site_pbe_ddec_sum_bond_order
 _atom_site_pbe_magmom
Gd  Gd0  1  0.95933040  0.69348623  0.03114928  1  0  2.161455  0  1.77707  0  0  2.069695  0  2.130656  0  0  2.124526  0  2.075659  0  0  1.469514  2.028647  0  2.172502  0
Gd  Gd1  1  0.68398857  0.80657288  0.46879888  1  0  2.16072  0  1.77678  0  0  2.069449  0  2.129573  0  0  2.12352  0  2.075847  0  0  1.468999  2.028552  0  2.171134  0
Gd  Gd2  1  0.04067169  0.30651073  0.96885014  1  0  2.161488  0  1.777079  0  0  2.069653  0  2.130784  0  0  2.124581  0  2.075616  0  0  1.469469  2.028615  0  2.17264  0
Gd  Gd3  1  0.31601219  0.19342821  0.53120139  1  0  2.160797  0  1.776797  0  0  2.069485  0  2.129661  0  0  2.123597  0  2.075869  0  0  1.468936  2.028592  0  2.17127  0
H  H4  1  0.16101055  0.58083621  0.27277157  1  0  0.111313  0  0.936204  0  0  0.120415  0  0.995701  0  0  0.124585  0  0.99264  0  0  0.108083  0.11745  0  0.997687  0
H  H5  1  0.01490491  0.91921160  0.22707238  1  0  0.111188  0  0.936345  0  0  0.120877  0  0.995324  0  0  0.124959  0  0.992354  0  0  0.108316  0.117913  0  0.99733  0
H  H6  1  0.83899570  0.41914745  0.72723074  1  0  0.111288  0  0.936202  0  0  0.120413  0  0.99568  0  0  0.124585  0  0.992616  0  0  0.108064  0.117452  0  0.997671  0
H  H7  1  0.98508114  0.08079774  0.77292954  1  0  0.111225  0  0.936274  0  0  0.120873  0  0.995305  0  0  0.124964  0  0.992325  0  0  0.108312  0.117919  0  0.997315  0
H  H8  1  0.43093527  0.47357134  0.36680024  1  0  0.103962  0  0.981896  0  0  0.112711  0  1.043095  0  0  0.116376  0  1.041017  0  0  0.103786  0.109966  0  1.04491  0
H  H9  1  0.27205525  0.02617576  0.13311510  1  0  0.104381  0  0.982095  0  0  0.112745  0  1.043701  0  0  0.116408  0  1.04162  0  0  0.103821  0.11006  0  1.045404  0
H  H10  1  0.56908343  0.52641947  0.63319969  1  0  0.103949  0  0.981879  0  0  0.112678  0  1.043105  0  0  0.116341  0  1.041026  0  0  0.103782  0.109936  0  1.044919  0
H  H11  1  0.72794523  0.97382222  0.86688367  1  0  0.104293  0  0.982232  0  0  0.112656  0  1.043838  0  0  0.11632  0  1.041756  0  0  0.103784  0.109975  0  1.04554  0
H  H12  1  0.85548831  0.34643410  0.33434983  1  0  0.100671  0  0.96354  0  0  0.108945  0  1.026265  0  0  0.112661  0  1.023678  0  0  0.101745  0.10619  0  1.028278  0
H  H13  1  0.53699403  0.15327162  0.16563713  1  0  0.100982  0  0.962107  0  0  0.10888  0  1.02523  0  0  0.112595  0  1.022665  0  0  0.102137  0.10606  0  1.027353  0
H  H14  1  0.14453415  0.65356590  0.66564669  1  0  0.100612  0  0.96357  0  0  0.108984  0  1.026205  0  0  0.112668  0  1.023653  0  0  0.101736  0.106216  0  1.028219  0
H  H15  1  0.46301305  0.84672436  0.83436472  1  0  0.101017  0  0.96201  0  0  0.108901  0  1.025155  0  0  0.112618  0  1.022585  0  0  0.102162  0.106077  0  1.027274  0
H  H16  1  0.00132018  0.30984416  0.21101629  1  0  0.096205  0  0.966122  0  0  0.106313  0  1.028552  0  0  0.10808  0  1.030331  0  0  0.10269  0.10505  0  1.027413  0
H  H17  1  0.52227276  0.19015503  0.28893213  1  0  0.096475  0  0.964914  0  0  0.105932  0  1.028087  0  0  0.107731  0  1.029826  0  0  0.102726  0.104754  0  1.026717  0
H  H18  1  0.99869694  0.69015890  0.78897878  1  0  0.09624  0  0.966276  0  0  0.10635  0  1.028679  0  0  0.108118  0  1.030455  0  0  0.102681  0.105082  0  1.027535  0
H  H19  1  0.47772257  0.80984709  0.71106784  1  0  0.096484  0  0.964945  0  0  0.105927  0  1.028129  0  0  0.107726  0  1.029867  0  0  0.102706  0.104745  0  1.026754  0
H  H20  1  0.50159358  0.75997747  0.96000195  1  0  0.450692  0  0.816877  0  0  0.427411  0  0.877035  0  0  0.436087  0  0.864445  0  0  0.325492  0.421257  0  0.885621  0
H  H21  1  0.22152291  0.74005981  0.54002707  1  0  0.450269  0  0.81927  0  0  0.42717  0  0.877546  0  0  0.435835  0  0.864988  0  0  0.32547  0.421055  0  0.886395  0
H  H22  1  0.49840955  0.24001948  0.03999645  1  0  0.45079  0  0.816762  0  0  0.427519  0  0.876874  0  0  0.436195  0  0.864281  0  0  0.325557  0.421368  0  0.885463  0
H  H23  1  0.77846796  0.25994328  0.45996996  1  0  0.450292  0  0.819281  0  0  0.427192  0  0.877528  0  0  0.435857  0  0.864971  0  0  0.325494  0.42108  0  0.886373  0
H  H24  1  0.65100599  0.60961541  0.94898576  1  0  0.443751  0  0.860452  0  0  0.411016  0  0.927406  0  0  0.421586  0  0.912164  0  0  0.308451  0.403609  0  0.938065  0
H  H25  1  0.20998954  0.89034232  0.55107238  1  0  0.443134  0  0.861293  0  0  0.41014  0  0.928686  0  0  0.420774  0  0.913372  0  0  0.308005  0.402702  0  0.939368  0
H  H26  1  0.34899150  0.39037747  0.05101522  1  0  0.443845  0  0.860346  0  0  0.411103  0  0.927311  0  0  0.421677  0  0.912062  0  0  0.30848  0.4037  0  0.937966  0
H  H27  1  0.79001127  0.10965980  0.44892732  1  0  0.44319  0  0.86121  0  0  0.410183  0  0.928624  0  0  0.420817  0  0.913309  0  0  0.308015  0.402745  0  0.939308  0
H  H28  1  0.58250448  0.79497111  0.15236504  1  0  0.447451  0  0.804467  0  0  0.431203  0  0.854011  0  0  0.438892  0  0.843124  0  0  0.335133  0.425849  0  0.861563  0
H  H29  1  0.52954772  0.70507127  0.34768466  1  0  0.447169  0  0.804961  0  0  0.430709  0  0.854757  0  0  0.438378  0  0.8439  0  0  0.334755  0.425413  0  0.862204  0
H  H30  1  0.41749687  0.20502077  0.84763777  1  0  0.447435  0  0.804447  0  0  0.431189  0  0.854031  0  0  0.438881  0  0.843138  0  0  0.335108  0.425839  0  0.861578  0
H  H31  1  0.47045966  0.29493183  0.65231316  1  0  0.447194  0  0.804922  0  0  0.430733  0  0.854724  0  0  0.438402  0  0.843868  0  0  0.334757  0.425443  0  0.862164  0
H  H32  1  0.43780326  0.81268478  0.08626780  1  0  0.449833  0  0.844479  0  0  0.417355  0  0.909884  0  0  0.429032  0  0.892882  0  0  0.306352  0.409083  0  0.921914  0
H  H33  1  0.33645508  0.68743671  0.41377655  1  0  0.450111  0  0.844498  0  0  0.417746  0  0.909679  0  0  0.429411  0  0.892695  0  0  0.306161  0.409457  0  0.921728  0
H  H34  1  0.56219230  0.18731020  0.91373569  1  0  0.449803  0  0.844521  0  0  0.417308  0  0.909947  0  0  0.428986  0  0.892945  0  0  0.306316  0.409039  0  0.921974  0
H  H35  1  0.66355482  0.31256231  0.58622263  1  0  0.450145  0  0.844461  0  0  0.417787  0  0.909615  0  0  0.429451  0  0.892632  0  0  0.306165  0.409499  0  0.921661  0
C  C36  1  0.66456111  0.42324958  0.17262021  1  0  -0.041146  0  3.682865  0  0  -0.026416  0  3.912184  0  0  -0.02899  0  3.931159  0  0  0.004967  -0.024787  0  3.899779  0
C  C37  1  0.26018028  0.07697410  0.32731621  1  0  -0.040605  0  3.679565  0  0  -0.026163  0  3.908998  0  0  -0.028764  0  3.928093  0  0  0.005549  -0.024624  0  3.896595  0
C  C38  1  0.33543974  0.57675355  0.82737891  1  0  -0.040821  0  3.682828  0  0  -0.026352  0  3.912371  0  0  -0.028949  0  3.931388  0  0  0.005051  -0.024722  0  3.899964  0
C  C39  1  0.73981265  0.92303314  0.67268344  1  0  -0.040683  0  3.679571  0  0  -0.026194  0  3.909017  0  0  -0.028804  0  3.928119  0  0  0.005624  -0.024646  0  3.896607  0
C  C40  1  0.42768820  0.50211888  0.18994835  1  0  -0.085206  0  3.738533  0  0  -0.070017  0  3.970838  0  0  -0.077691  0  3.993448  0  0  -0.013431  -0.065182  0  3.955531  0
C  C41  1  0.11954140  0.99809644  0.30994215  1  0  -0.086201  0  3.738027  0  0  -0.071097  0  3.970734  0  0  -0.078777  0  3.993304  0  0  -0.014285  -0.066312  0  3.955755  0
C  C42  1  0.57231768  0.49787706  0.81005130  1  0  -0.085368  0  3.738669  0  0  -0.070012  0  3.970916  0  0  -0.077678  0  3.993521  0  0  -0.013433  -0.065184  0  3.955616  0
C  C43  1  0.88044292  0.00191288  0.69005807  1  0  -0.086286  0  3.738156  0  0  -0.071148  0  3.97083  0  0  -0.078824  0  3.993401  0  0  -0.014287  -0.06637  0  3.955861  0
C  C44  1  0.34579123  0.52100756  0.26013674  1  0  -0.065638  0  3.722143  0  0  -0.089849  0  3.97225  0  0  -0.089397  0  3.991525  0  0  -0.079976  -0.08932  0  3.957874  0
C  C45  1  0.12709319  0.97906452  0.23975891  1  0  -0.064405  0  3.722425  0  0  -0.088613  0  3.971898  0  0  -0.088091  0  3.991217  0  0  -0.080098  -0.088544  0  3.958161  0
C  C46  1  0.65421347  0.47898735  0.73986289  1  0  -0.065608  0  3.722305  0  0  -0.089873  0  3.972377  0  0  -0.089419  0  3.991648  0  0  -0.07998  -0.08935  0  3.958017  0
C  C47  1  0.87289612  0.02094582  0.76024098  1  0  -0.064325  0  3.72223  0  0  -0.088505  0  3.9717  0  0  -0.08799  0  3.99101  0  0  -0.080047  -0.088447  0  3.957986  0
C  C48  1  0.49703630  0.46400083  0.31208405  1  0  -0.089672  0  3.766752  0  0  -0.103449  0  4.020776  0  0  -0.106025  0  4.03977  0  0  -0.093701  -0.101925  0  4.007771  0
C  C49  1  0.27357927  0.03584347  0.18783033  1  0  -0.091213  0  3.770033  0  0  -0.104947  0  4.024234  0  0  -0.107518  0  4.043165  0  0  -0.093732  -0.103279  0  4.011429  0
C  C50  1  0.50297834  0.53599511  0.68791549  1  0  -0.089635  0  3.766686  0  0  -0.103406  0  4.020773  0  0  -0.105979  0  4.039754  0  0  -0.093689  -0.101889  0  4.007774  0
C  C51  1  0.72642001  0.96415968  0.81217033  1  0  -0.091203  0  3.770074  0  0  -0.104945  0  4.024276  0  0  -0.107513  0  4.043206  0  0  -0.093756  -0.10328  0  4.011476  0
C  C52  1  0.73464875  0.39001946  0.29424374  1  0  -0.045499  0  3.734244  0  0  -0.06142  0  3.988009  0  0  -0.060908  0  4.005617  0  0  -0.080526  -0.061502  0  3.976133  0
C  C53  1  0.41934141  0.10980787  0.20570147  1  0  -0.045301  0  3.735549  0  0  -0.060776  0  3.9891  0  0  -0.060259  0  4.006692  0  0  -0.081021  -0.060944  0  3.977315  0
C  C54  1  0.26536506  0.60998159  0.70575394  1  0  -0.045375  0  3.734207  0  0  -0.061375  0  3.987946  0  0  -0.060833  0  4.00556  0  0  -0.080474  -0.061446  0  3.976057  0
C  C55  1  0.58066302  0.89019116  0.79429799  1  0  -0.045286  0  3.735462  0  0  -0.06074  0  3.989007  0  0  -0.060224  0  4.006595  0  0  -0.081022  -0.060902  0  3.977209  0
C  C56  1  0.81722932  0.36921207  0.22488005  1  0  -0.08132  0  3.71428  0  0  -0.103736  0  3.962474  0  0  -0.107084  0  3.98475  0  0  -0.081732  -0.101651  0  3.947609  0
C  C57  1  0.41132308  0.13082533  0.27506194  1  0  -0.080458  0  3.71227  0  0  -0.102299  0  3.960522  0  0  -0.10567  0  3.982766  0  0  -0.081165  -0.100142  0  3.945396  0
C  C58  1  0.18278288  0.63079000  0.77511698  1  0  -0.081461  0  3.714574  0  0  -0.103825  0  3.962846  0  0  -0.107168  0  3.985103  0  0  -0.081735  -0.101739  0  3.947967  0
C  C59  1  0.58867125  0.86917782  0.72493847  1  0  -0.080544  0  3.712378  0  0  -0.102375  0  3.960607  0  0  -0.10574  0  3.98285  0  0  -0.08121  -0.100219  0  3.945466  0
C  C60  1  0.77266029  0.39215279  0.10026483  1  0  0.721813  0  3.838104  0  0  0.670719  0  4.139469  0  0  0.707057  0  4.126237  0  0  0.229875  0.645868  0  4.147675  0
C  C61  1  0.26468548  0.10805753  0.39969323  1  0  0.721358  0  3.83617  0  0  0.671002  0  4.136627  0  0  0.707265  0  4.123532  0  0  0.230375  0.646267  0  4.144749  0
C  C62  1  0.22734161  0.60785032  0.89973326  1  0  0.721673  0  3.838211  0  0  0.670688  0  4.139503  0  0  0.707031  0  4.126254  0  0  0.229875  0.645834  0  4.147711  0
C  C63  1  0.73531946  0.89193948  0.60030848  1  0  0.721593  0  3.836058  0  0  0.671089  0  4.136715  0  0  0.707355  0  4.123608  0  0  0.230356  0.646344  0  4.144843  0
C  C64  1  0.26265744  0.56768106  0.13580331  1  0  0.65207  0  3.891404  0  0  0.602081  0  4.191359  0  0  0.636285  0  4.183468  0  0  0.201483  0.579004  0  4.196026  0
C  C65  1  0.96572062  0.93262185  0.36405282  1  0  0.649674  0  3.893019  0  0  0.599753  0  4.193241  0  0  0.633965  0  4.185295  0  0  0.200493  0.576669  0  4.197803  0
C  C66  1  0.73734344  0.43231386  0.86419668  1  0  0.652094  0  3.891259  0  0  0.602064  0  4.19123  0  0  0.636259  0  4.183347  0  0  0.201476  0.578986  0  4.195898  0
C  C67  1  0.03426496  0.06737511  0.63594581  1  0  0.649853  0  3.892629  0  0  0.599866  0  4.192922  0  0  0.63408  0  4.18498  0  0  0.20056  0.576785  0  4.197483  0
C  C68  1  0.88392525  0.01905922  0.98203971  1  0  0.566094  0  3.905286  0  0  0.522876  0  4.203154  0  0  0.552659  0  4.194251  0  0  0.228705  0.502391  0  4.209194  0
C  C69  1  0.88504802  0.48094374  0.51799906  1  0  0.564716  0  3.903937  0  0  0.521339  0  4.20244  0  0  0.551201  0  4.193348  0  0  0.227958  0.501071  0  4.207843  0
C  C70  1  0.11604732  0.98092756  0.01796514  1  0  0.566084  0  3.905014  0  0  0.523068  0  4.202636  0  0  0.552881  0  4.193685  0  0  0.228824  0.502575  0  4.20869  0
C  C71  1  0.11492815  0.51908404  0.48199949  1  0  0.564323  0  3.903685  0  0  0.520777  0  4.202477  0  0  0.550624  0  4.193412  0  0  0.227724  0.50051  0  4.207876  0
O  O72  1  0.78548709  0.27689396  0.08095392  1  0  -0.683833  0  1.968894  0  0  -0.642452  0  2.204279  0  0  -0.667918  0  2.194456  0  0  -0.353907  -0.624371  0  2.210718  0
O  O73  1  0.14280135  0.22323742  0.41906149  1  0  -0.684014  0  1.969244  0  0  -0.642923  0  2.204394  0  0  -0.668354  0  2.194685  0  0  -0.35417  -0.625024  0  2.210591  0
O  O74  1  0.21451464  0.72310709  0.91904371  1  0  -0.683759  0  1.968908  0  0  -0.642391  0  2.204232  0  0  -0.667857  0  2.194438  0  0  -0.353901  -0.624312  0  2.210667  0
O  O75  1  0.85718663  0.77677503  0.58094202  1  0  -0.683885  0  1.969479  0  0  -0.642755  0  2.204714  0  0  -0.668186  0  2.195021  0  0  -0.354103  -0.624862  0  2.210905  0
O  O76  1  0.05813270  0.64901694  0.15160235  1  0  -0.664898  0  1.936446  0  0  -0.625068  0  2.167011  0  0  -0.649507  0  2.15838  0  0  -0.370185  -0.608075  0  2.172455  0
O  O77  1  0.85817069  0.85135840  0.34825085  1  0  -0.663211  0  1.936528  0  0  -0.62317  0  2.16673  0  0  -0.647504  0  2.158095  0  0  -0.369164  -0.606274  0  2.17224  0
O  O78  1  0.94186168  0.35096258  0.84839847  1  0  -0.664886  0  1.936296  0  0  -0.625051  0  2.166853  0  0  -0.649516  0  2.158252  0  0  -0.370155  -0.608061  0  2.172308  0
O  O79  1  0.14183544  0.14864886  0.65174943  1  0  -0.663358  0  1.935877  0  0  -0.623267  0  2.166088  0  0  -0.647606  0  2.157443  0  0  -0.369256  -0.606369  0  2.171615  0
O  O80  1  0.33108483  0.54268332  0.07167811  1  0  -0.702257  0  2.04655  0  0  -0.643808  0  2.277381  0  0  -0.669567  0  2.267867  0  0  -0.364055  -0.625873  0  2.283604  0
O  O81  1  0.94507348  0.95758488  0.42819278  1  0  -0.701694  0  2.046155  0  0  -0.644061  0  2.278165  0  0  -0.669687  0  2.268387  0  0  -0.364175  -0.626093  0  2.284534  0
O  O82  1  0.66892317  0.45730958  0.92832445  1  0  -0.70228  0  2.046555  0  0  -0.643729  0  2.277241  0  0  -0.669456  0  2.26769  0  0  -0.364068  -0.62577  0  2.283445  0
O  O83  1  0.05492037  0.04241930  0.57180757  1  0  -0.701713  0  2.046317  0  0  -0.644074  0  2.278387  0  0  -0.669703  0  2.268603  0  0  -0.364136  -0.6261  0  2.284755  0
O  O84  1  0.78170663  0.92671838  0.98230097  1  0  -0.606234  0  2.084995  0  0  -0.567581  0  2.326119  0  0  -0.590534  0  2.317877  0  0  -0.345558  -0.551548  0  2.331738  0
O  O85  1  0.69073133  0.57325580  0.51774357  1  0  -0.605964  0  2.083333  0  0  -0.567244  0  2.324466  0  0  -0.590096  0  2.316187  0  0  -0.34495  -0.55112  0  2.329811  0
O  O86  1  0.21828247  0.07328687  0.01770180  1  0  -0.606493  0  2.084185  0  0  -0.567913  0  2.325255  0  0  -0.590897  0  2.316994  0  0  -0.345774  -0.551879  0  2.330886  0
O  O87  1  0.30930219  0.42673601  0.48225490  1  0  -0.606055  0  2.08197  0  0  -0.567329  0  2.323234  0  0  -0.590187  0  2.314952  0  0  -0.345019  -0.551195  0  2.32858  0
O  O88  1  0.81503949  0.14359734  0.95444992  1  0  -0.675731  0  2.096464  0  0  -0.623703  0  2.325981  0  0  -0.649528  0  2.317255  0  0  -0.344083  -0.605623  0  2.331871  0
O  O89  1  0.91332837  0.35639980  0.54561953  1  0  -0.674843  0  2.096414  0  0  -0.622894  0  2.325934  0  0  -0.648644  0  2.317195  0  0  -0.343941  -0.604743  0  2.331488  0
O  O90  1  0.18494237  0.85640887  0.04554924  1  0  -0.675529  0  2.097001  0  0  -0.623556  0  2.326431  0  0  -0.649371  0  2.317687  0  0  -0.344014  -0.605474  0  2.332317  0
O  O91  1  0.08668759  0.64358799  0.45438469  1  0  -0.674317  0  2.097234  0  0  -0.622387  0  2.326896  0  0  -0.648112  0  2.318164  0  0  -0.343678  -0.604242  0  2.332442  0
O  O92  1  0.66448489  0.69984137  0.95923154  1  0  -0.889826  0  1.887871  0  0  -0.849294  0  2.091473  0  0  -0.869525  0  2.063151  0  0  -0.647566  -0.8347  0  2.110769  0
O  O93  1  0.32369806  0.80017421  0.54063583  1  0  -0.888904  0  1.890869  0  0  -0.848123  0  2.093876  0  0  -0.868257  0  2.065301  0  0  -0.647479  -0.83364  0  2.113726  0
O  O94  1  0.33552061  0.30014943  0.04076775  1  0  -0.890017  0  1.887725  0  0  -0.849448  0  2.091299  0  0  -0.869688  0  2.062964  0  0  -0.647649  -0.834849  0  2.110602  0
O  O95  1  0.67629917  0.19983200  0.45936353  1  0  -0.888967  0  1.890779  0  0  -0.84817  0  2.093758  0  0  -0.868315  0  2.065185  0  0  -0.647523  -0.833693  0  2.113643  0
O  O96  1  0.87428817  0.47580163  0.06042604  1  0  -0.774835  0  2.154886  0  0  -0.729873  0  2.41498  0  0  -0.758234  0  2.40524  0  0  -0.417415  -0.709236  0  2.420919  0
O  O97  1  0.41033228  0.02445443  0.43951133  1  0  -0.773871  0  2.151001  0  0  -0.729068  0  2.410524  0  0  -0.757303  0  2.400843  0  0  -0.416824  -0.708736  0  2.416648  0
O  O98  1  0.12571460  0.52419739  0.93957333  1  0  -0.774901  0  2.154878  0  0  -0.729961  0  2.414926  0  0  -0.758328  0  2.405182  0  0  -0.417459  -0.70933  0  2.420871  0
O  O99  1  0.58965836  0.97555178  0.56048771  1  0  -0.774028  0  2.150617  0  0  -0.729223  0  2.410315  0  0  -0.757461  0  2.400626  0  0  -0.416883  -0.708894  0  2.416449  0
O  O100  1  0.59665443  0.77236668  0.10505885  1  0  -0.899509  0  1.885102  0  0  -0.864391  0  2.079497  0  0  -0.883274  0  2.048658  0  0  -0.634271  -0.850741  0  2.10117  0
O  O101  1  0.47386897  0.72766423  0.39498892  1  0  -0.899303  0  1.885786  0  0  -0.864079  0  2.080282  0  0  -0.882841  0  2.0495  0  0  -0.633575  -0.85038  0  2.101837  0
O  O102  1  0.40334452  0.22763033  0.89494364  1  0  -0.899456  0  1.885123  0  0  -0.864312  0  2.079542  0  0  -0.883222  0  2.048721  0  0  -0.634215  -0.850654  0  2.101207  0
O  O103  1  0.52613889  0.27233785  0.60500897  1  0  -0.899364  0  1.885688  0  0  -0.864137  0  2.080221  0  0  -0.882906  0  2.049439  0  0  -0.633603  -0.850423  0  2.101769  0
