# generated using pymatgen
data_CoH16C20(NO)6
_symmetry_space_group_name_H-M   'P 1'
_cell_length_a   10.99939307
_cell_length_b   11.32955055
_cell_length_c   12.67440662
_cell_angle_alpha   98.25104937
_cell_angle_beta   90.02046200
_cell_angle_gamma   119.04356419
_symmetry_Int_Tables_number   1
_chemical_formula_structural   CoH16C20(NO)6
_chemical_formula_sum   'Co2 H32 C40 N12 O12'
_cell_volume   1362.06855144
_cell_formula_units_Z   2
loop_
 _symmetry_equiv_pos_site_id
 _symmetry_equiv_pos_as_xyz
  1  'x, y, z'
loop_
 _atom_site_type_symbol
 _atom_site_label
 _atom_site_symmetry_multiplicity
 _atom_site_fract_x
 _atom_site_fract_y
 _atom_site_fract_z
 _atom_site_occupancy
 _atom_site_pbe_cm5_charge
 _atom_site_pbe_ddec_charge
 _atom_site_pbe_ddec_spin_density
 _atom_site_pbe_ddec_sum_bond_order
 _atom_site_pbe_magmom
Co  Co0  1  0.31675933  0.99999025  0.75005205  1  0.695964  0.545644  -1.11581  2.990201  -0.953
Co  Co1  1  0.68324424  0.00001276  0.24994631  1  0.69596  0.545716  1.115827  2.990103  0.953
H  H2  1  0.15970275  0.05841161  0.91435165  1  0.120902  0.094104  0.000144  1.024076  0.0
H  H3  1  0.89894280  0.05863628  0.41421359  1  0.121229  0.094591  -0.000144  1.02366  0.0
H  H4  1  0.84029791  0.94158012  0.08564576  1  0.120911  0.094142  -0.000144  1.024024  0.0
H  H5  1  0.10106913  0.94136889  0.58578274  1  0.1213  0.094635  0.000144  1.023622  0.0
H  H6  1  0.93848345  0.06845915  0.92148022  1  0.108285  0.127901  3.7e-05  1.042659  0.0
H  H7  1  0.13043035  0.06912835  0.42132829  1  0.108199  0.128299  -3.7e-05  1.042746  0.0
H  H8  1  0.06150757  0.93151512  0.07851608  1  0.108243  0.127914  -3.7e-05  1.042691  0.0
H  H9  1  0.86957450  0.93086266  0.57866191  1  0.108229  0.128344  3.7e-05  1.042617  0.0
H  H10  1  0.68770197  0.91684122  0.89766597  1  0.109329  0.118751  -2.1e-05  1.016177  0.0
H  H11  1  0.22937596  0.91737508  0.39753116  1  0.109191  0.118691  2e-05  1.016109  0.0
H  H12  1  0.31229871  0.08315054  0.10233066  1  0.109322  0.118665  2.1e-05  1.016199  0.0
H  H13  1  0.77062360  0.08261262  0.60246406  1  0.109212  0.118742  -2.1e-05  1.016122  0.0
H  H14  1  0.46127032  0.91433379  0.88856768  1  0.116851  0.087153  8e-06  1.081513  0.0
H  H15  1  0.45303752  0.91438618  0.38841203  1  0.117278  0.087851  -8e-06  1.080778  0.0
H  H16  1  0.53873499  0.08566905  0.11143461  1  0.116834  0.087107  -8e-06  1.081527  0.0
H  H17  1  0.54696388  0.08561066  0.61158617  1  0.117284  0.087826  8e-06  1.080725  0.0
H  H18  1  0.52802239  0.15755172  0.93111228  1  0.120961  0.091587  0.000137  1.034221  0.0
H  H19  1  0.62961544  0.15736363  0.43108958  1  0.120877  0.091631  -0.000137  1.034291  0.0
H  H20  1  0.47198750  0.84245845  0.06888719  1  0.12094  0.091585  -0.000137  1.034275  0.0
H  H21  1  0.37038090  0.84264491  0.56890017  1  0.120876  0.091554  0.000137  1.034212  0.0
H  H22  1  0.60340946  0.37045428  0.05167104  1  0.115948  0.131842  -1.9e-05  1.010167  0.0
H  H23  1  0.76711644  0.37026768  0.55167832  1  0.116037  0.131911  1.9e-05  1.009975  0.0
H  H24  1  0.39658816  0.62954955  0.94833219  1  0.11592  0.131797  1.8e-05  1.010182  0.0
H  H25  1  0.23288070  0.62974611  0.44830907  1  0.116028  0.131971  -1.9e-05  1.0098  0.0
H  H26  1  0.36161806  0.46342384  0.84070376  1  0.120275  0.13084  2e-06  0.982384  0.0
H  H27  1  0.10172908  0.46358614  0.34068978  1  0.120291  0.1309  -2e-06  0.982034  0.0
H  H28  1  0.63835678  0.53656716  0.15931011  1  0.120368  0.130887  -2e-06  0.982359  0.0
H  H29  1  0.89827186  0.53641705  0.65930467  1  0.120264  0.130911  2e-06  0.981992  0.0
H  H30  1  0.29926776  0.24698668  0.72603286  1  0.125285  0.097689  4.8e-05  1.019234  0.0
H  H31  1  0.94765750  0.24716071  0.22598354  1  0.125409  0.097807  -4.8e-05  1.019156  0.0
H  H32  1  0.70072027  0.75301070  0.27397647  1  0.12527  0.097638  -4.8e-05  1.019323  0.0
H  H33  1  0.05234636  0.75283923  0.77401435  1  0.125412  0.097808  4.8e-05  1.019105  0.0
C  C34  1  0.09303321  0.03373910  0.84221623  1  0.043654  0.081792  0.003097  3.935486  0.003
C  C35  1  0.94094973  0.03407200  0.34207684  1  0.04336  0.081209  -0.003096  3.936637  -0.003
C  C36  1  0.90696682  0.96624956  0.15778071  1  0.043598  0.081724  -0.003096  3.935581  -0.003
C  C37  1  0.05905716  0.96592491  0.65791980  1  0.043288  0.081226  0.003097  3.936405  0.003
C  C38  1  0.96758750  0.03469169  0.84540753  1  -0.079151  -0.160327  -0.000119  3.904519  0.0
C  C39  1  0.06746307  0.03527567  0.34526145  1  -0.079369  -0.161387  0.00012  3.906474  0.0
C  C40  1  0.03240625  0.96528984  0.15458753  1  -0.079054  -0.160305  0.000119  3.904518  0.0
C  C41  1  0.93253986  0.96471513  0.65473346  1  -0.079438  -0.161492  -0.00012  3.906172  0.0
C  C42  1  0.88420007  0.99966361  0.75006604  1  0.015273  0.109101  0.003475  3.969614  0.004
C  C43  1  0.11579428  0.00032095  0.24993027  1  0.015262  0.109097  -0.003474  3.969751  -0.004
C  C44  1  0.75042191  0.99970206  0.75004982  1  0.016039  0.113028  0.002646  3.968989  0.003
C  C45  1  0.24957479  0.00028356  0.24994586  1  0.016076  0.113032  -0.002647  3.969024  -0.003
C  C46  1  0.66089455  0.95361089  0.83141358  1  -0.078533  -0.153444  0.00032  3.918525  0.0
C  C47  1  0.29293275  0.95407954  0.33129445  1  -0.078125  -0.152504  -0.00032  3.91722  0.0
C  C48  1  0.33910791  0.04638080  0.16858462  1  -0.078565  -0.153373  -0.00032  3.918366  0.0
C  C49  1  0.70707054  0.04591017  0.66870187  1  -0.078186  -0.152661  0.00032  3.917274  0.0
C  C50  1  0.53475316  0.95340509  0.82833889  1  0.04187  0.080236  0.002465  3.906463  0.003
C  C51  1  0.41873020  0.95361634  0.32820144  1  0.0418  0.079621  -0.002467  3.906009  -0.003
C  C52  1  0.46525338  0.04659475  0.17166135  1  0.041929  0.080306  -0.002465  3.906294  -0.003
C  C53  1  0.58127233  0.04637729  0.67179943  1  0.041801  0.079757  0.002467  3.906008  0.003
C  C54  1  0.49189318  0.22687326  0.91343678  1  0.050162  0.101677  0.004114  3.895245  0.005
C  C55  1  0.73501319  0.22677621  0.41340646  1  0.050428  0.101547  -0.004111  3.895119  -0.005
C  C56  1  0.50810638  0.77313261  0.08656677  1  0.050289  0.101737  -0.004114  3.895427  -0.005
C  C57  1  0.26498506  0.77323434  0.58658438  1  0.050376  0.101737  0.00411  3.895185  0.005
C  C58  1  0.53286752  0.34852955  0.98248316  1  -0.07354  -0.160272  -0.002216  3.907072  -0.003
C  C59  1  0.81569537  0.34842742  0.48246686  1  -0.073661  -0.160374  0.002214  3.906697  0.003
C  C60  1  0.46712351  0.65147199  0.01752524  1  -0.073604  -0.160357  0.002216  3.906986  0.003
C  C61  1  0.18430316  0.65158733  0.51752227  1  -0.073742  -0.160503  -0.002214  3.906821  -0.003
C  C62  1  0.48341565  0.43722916  0.96233259  1  0.013341  0.100582  0.005257  3.979728  0.007
C  C63  1  0.95380140  0.43722760  0.46230854  1  0.013118  0.100443  -0.005253  3.980189  -0.007
C  C64  1  0.51656389  0.56276395  0.03768004  1  0.01324  0.100573  -0.005257  3.979645  -0.007
C  C65  1  0.04619550  0.56278207  0.53767901  1  0.013295  0.10048  0.005253  3.980321  0.007
C  C66  1  0.40103410  0.39948740  0.86569171  1  -0.073379  -0.156932  -0.002472  3.922915  -0.003
C  C67  1  0.99840181  0.39957938  0.36566529  1  -0.073284  -0.156954  0.002468  3.923211  0.003
C  C68  1  0.59894309  0.60050466  0.13432155  1  -0.073524  -0.157044  0.002472  3.923138  0.003
C  C69  1  0.00159758  0.60042800  0.63432743  1  -0.073333  -0.157009  -0.002469  3.923043  -0.003
C  C70  1  0.36484373  0.27681354  0.79985525  1  0.045238  0.0829  0.004307  3.92396  0.005
C  C71  1  0.91192180  0.27690997  0.29980600  1  0.045064  0.082604  -0.004304  3.924518  -0.005
C  C72  1  0.63514343  0.72318391  0.20015252  1  0.045355  0.083049  -0.004306  3.924177  -0.005
C  C73  1  0.08808196  0.72309523  0.70018955  1  0.045065  0.082609  0.004304  3.924289  0.005
N  N74  1  0.20746677  0.81997144  0.93896429  1  0.092106  0.706862  -0.007022  4.42929  -0.01
N  N75  1  0.61239756  0.81994720  0.43886905  1  0.091759  0.706625  0.007012  4.429087  0.01
N  N76  1  0.79253425  0.18002646  0.06103328  1  0.092024  0.706738  0.007022  4.429374  0.01
N  N77  1  0.38762091  0.18008197  0.56114362  1  0.091833  0.706636  -0.007015  4.428699  -0.01
N  N78  1  0.13934437  0.99990899  0.75006434  1  -0.339695  -0.201915  0.004525  3.68033  0.006
N  N79  1  0.86066302  0.00008891  0.24993324  1  -0.339698  -0.201953  -0.004524  3.680403  -0.006
N  N80  1  0.49463691  0.99995486  0.75007079  1  -0.332123  -0.183144  0.004794  3.628334  0.007
N  N81  1  0.50536696  0.00004692  0.24993212  1  -0.332211  -0.183159  -0.004794  3.628304  -0.007
N  N82  1  0.40470241  0.18731763  0.82447999  1  -0.335449  -0.184604  0.001403  3.626798  0.002
N  N83  1  0.78261482  0.18733234  0.32442449  1  -0.335454  -0.184091  -0.001413  3.626708  -0.002
N  N84  1  0.59529561  0.81268517  0.17552309  1  -0.335522  -0.184655  -0.001404  3.627058  -0.002
N  N85  1  0.21738753  0.81267187  0.67557012  1  -0.335385  -0.184117  0.001413  3.626697  0.002
O  O86  1  0.28062879  0.94417640  0.91805856  1  -0.216226  -0.517892  -0.017608  2.138098  -0.022
O  O87  1  0.66374219  0.94415615  0.41794242  1  -0.216519  -0.517909  0.017621  2.137505  0.022
O  O88  1  0.71937271  0.05582245  0.08194075  1  -0.216225  -0.51786  0.01761  2.138101  0.022
O  O89  1  0.33626095  0.05584962  0.58206348  1  -0.216663  -0.518084  -0.017631  2.137302  -0.022
O  O90  1  0.08472663  0.78023080  0.96394523  1  -0.199289  -0.444838  -0.011766  1.907521  -0.018
O  O91  1  0.69514655  0.77991301  0.46387420  1  -0.198773  -0.444517  0.011772  1.907308  0.018
O  O92  1  0.91527397  0.21976809  0.03605329  1  -0.199225  -0.444733  0.011766  1.907593  0.018
O  O93  1  0.30486886  0.22009550  0.53609265  1  -0.198738  -0.444293  -0.011781  1.90683  -0.018
O  O94  1  0.26213992  0.74460133  0.93330308  1  -0.196418  -0.447038  -0.007383  1.938355  -0.011
O  O95  1  0.48230270  0.74484330  0.43321811  1  -0.196444  -0.447269  0.007353  1.938746  0.011
O  O96  1  0.73785876  0.25539550  0.06669512  1  -0.196415  -0.447059  0.007383  1.938307  0.011
O  O97  1  0.51772171  0.25520498  0.56685197  1  -0.196373  -0.447296  -0.00735  1.938812  -0.011
