# generated using pymatgen
data_AgH8C12N5O4
_symmetry_space_group_name_H-M   'P 1'
_cell_length_a   8.46512135
_cell_length_b   8.51935490
_cell_length_c   9.84514168
_cell_angle_alpha   74.73418464
_cell_angle_beta   78.45918728
_cell_angle_gamma   69.94158996
_symmetry_Int_Tables_number   1
_chemical_formula_structural   AgH8C12N5O4
_chemical_formula_sum   'Ag2 H16 C24 N10 O8'
_cell_volume   638.66909627
_cell_formula_units_Z   2
loop_
 _symmetry_equiv_pos_site_id
 _symmetry_equiv_pos_as_xyz
  1  'x, y, z'
loop_
 _atom_site_type_symbol
 _atom_site_label
 _atom_site_symmetry_multiplicity
 _atom_site_fract_x
 _atom_site_fract_y
 _atom_site_fract_z
 _atom_site_occupancy
 _atom_site_hle17_bader_spin_density
 _atom_site_hle17_ddec_charge
 _atom_site_hle17_ddec_spin_density
 _atom_site_hle17_ddec_sum_bond_order
 _atom_site_hle17_magmom
 _atom_site_hse06_10hf_bader_spin_density
 _atom_site_hse06_10hf_ddec_charge
 _atom_site_hse06_10hf_ddec_spin_density
 _atom_site_hse06_10hf_ddec_sum_bond_order
 _atom_site_hse06_10hf_magmom
 _atom_site_hse06_bader_spin_density
 _atom_site_hse06_ddec_charge
 _atom_site_hse06_ddec_spin_density
 _atom_site_hse06_ddec_sum_bond_order
 _atom_site_hse06_magmom
 _atom_site_pbe_bader_spin_density
 _atom_site_pbe_cm5_charge
 _atom_site_pbe_ddec_charge
 _atom_site_pbe_ddec_spin_density
 _atom_site_pbe_ddec_sum_bond_order
 _atom_site_pbe_magmom
Ag  Ag0  1  0.42345980  0.70513183  0.53437483  1  0  0.514464  0  1.390913  0  0  0.359246  0  1.834788  0  0  0.390037  0  1.79029  0  0  0.458506  0.339839  0  1.865591  0
Ag  Ag1  1  0.57654075  0.29487145  0.46562614  1  0  0.51444  0  1.390936  0  0  0.359212  0  1.834827  0  0  0.390002  0  1.790326  0  0  0.458483  0.339799  0  1.865621  0
H  H2  1  0.14565618  0.62637181  0.42008349  1  0  0.094101  0  0.94257  0  0  0.106589  0  0.998352  0  0  0.108634  0  0.997103  0  0  0.120128  0.105259  0  0.998992  0
H  H3  1  0.85434397  0.37362888  0.57991510  1  0  0.094108  0  0.942499  0  0  0.106593  0  0.998295  0  0  0.108639  0  0.997045  0  0  0.120124  0.105264  0  0.998935  0
H  H4  1  0.03279401  0.67198947  0.19182182  1  0  0.130623  0  0.969205  0  0  0.13591  0  1.034715  0  0  0.140169  0  1.032162  0  0  0.11151  0.13302  0  1.036595  0
H  H5  1  0.96720576  0.32800864  0.80817643  1  0  0.130583  0  0.969157  0  0  0.135877  0  1.034675  0  0  0.140133  0  1.032131  0  0  0.111494  0.132986  0  1.036556  0
H  H6  1  0.38952676  0.94950009  0.98805992  1  0  0.115982  0  0.943767  0  0  0.127628  0  1.003673  0  0  0.130314  0  1.00308  0  0  0.11556  0.125745  0  1.004019  0
H  H7  1  0.61046898  0.05050309  0.01193991  1  0  0.115969  0  0.94376  0  0  0.127627  0  1.003662  0  0  0.130275  0  1.003118  0  0  0.11555  0.125744  0  1.004011  0
H  H8  1  0.48039027  0.90111111  0.22668577  1  0  0.080861  0  0.936278  0  0  0.089964  0  1.001808  0  0  0.092153  0  1.000019  0  0  0.117238  0.088291  0  1.00338  0
H  H9  1  0.51960428  0.09889204  0.77331428  1  0  0.080874  0  0.936226  0  0  0.089986  0  1.001758  0  0  0.092172  0  0.999977  0  0  0.117234  0.088317  0  1.003325  0
H  H10  1  0.53910923  0.63716752  0.83576794  1  0  0.097485  0  0.946366  0  0  0.106634  0  1.007465  0  0  0.10924  0  1.005248  0  0  0.118442  0.104356  0  1.009798  0
H  H11  1  0.46089219  0.36282934  0.16423437  1  0  0.097563  0  0.946314  0  0  0.106681  0  1.007439  0  0  0.109279  0  1.005233  0  0  0.118456  0.104403  0  1.009774  0
H  H12  1  0.76789296  0.67307511  0.93985041  1  0  0.129635  0  0.972473  0  0  0.129287  0  1.047036  0  0  0.13479  0  1.042528  0  0  0.10823  0.125367  0  1.050272  0
H  H13  1  0.23211083  0.32692179  0.06014842  1  0  0.12965  0  0.972486  0  0  0.129329  0  1.047027  0  0  0.134817  0  1.042531  0  0  0.108231  0.125408  0  1.050271  0
H  H14  1  0.95174257  0.88959623  0.51169385  1  0  0.110444  0  0.979172  0  0  0.114115  0  1.05341  0  0  0.117472  0  1.051625  0  0  0.109251  0.111719  0  1.054786  0
H  H15  1  0.04825877  0.11040448  0.48830351  1  0  0.110408  0  0.979164  0  0  0.114097  0  1.053387  0  0  0.117453  0  1.051602  0  0  0.109246  0.111701  0  1.054763  0
H  H16  1  0.71873099  0.84399318  0.42744854  1  0  0.094395  0  0.932382  0  0  0.099969  0  1.000089  0  0  0.103212  0  0.996178  0  0  0.117934  0.097704  0  1.00272  0
H  H17  1  0.28126555  0.15601130  0.57255186  1  0  0.094379  0  0.932319  0  0  0.099956  0  1.00002  0  0  0.103201  0  0.996111  0  0  0.117932  0.097691  0  1.002651  0
C  C18  1  0.19510973  0.69831083  0.32199659  1  0  0.128105  0  3.675781  0  0  0.099851  0  3.921983  0  0  0.106078  0  3.94076  0  0  0.047837  0.096308  0  3.908522  0
C  C19  1  0.80489168  0.30168603  0.67800470  1  0  0.128089  0  3.6756  0  0  0.099819  0  3.921825  0  0  0.106045  0  3.940603  0  0  0.047819  0.096274  0  3.908366  0
C  C20  1  0.13559526  0.72053540  0.19441516  1  0  -0.118887  0  3.65505  0  0  -0.142827  0  3.903575  0  0  -0.148584  0  3.923369  0  0  -0.075228  -0.140005  0  3.890607  0
C  C21  1  0.86440538  0.27946016  0.80558759  1  0  -0.118801  0  3.654983  0  0  -0.142751  0  3.903486  0  0  -0.148512  0  3.923285  0  0  -0.075189  -0.139931  0  3.890518  0
C  C22  1  0.20787492  0.80990379  0.07091257  1  0  0.036301  0  3.782621  0  0  0.049349  0  4.020153  0  0  0.050636  0  4.040414  0  0  0.011452  0.048634  0  4.006351  0
C  C23  1  0.79212532  0.19009305  0.92909097  1  0  0.036249  0  3.782772  0  0  0.049372  0  4.020247  0  0  0.05066  0  4.040495  0  0  0.011445  0.048666  0  4.006442  0
C  C24  1  0.33375035  0.87681475  0.08173941  1  0  -0.115924  0  3.671285  0  0  -0.139825  0  3.920742  0  0  -0.145076  0  3.941082  0  0  -0.072444  -0.135143  0  3.906044  0
C  C25  1  0.66624823  0.12318720  0.91826324  1  0  -0.115884  0  3.671254  0  0  -0.139818  0  3.920707  0  0  -0.145039  0  3.941059  0  0  -0.072446  -0.135141  0  3.906014  0
C  C26  1  0.38313767  0.85082698  0.21403490  1  0  0.117319  0  3.724175  0  0  0.085206  0  3.979396  0  0  0.090573  0  4.000063  0  0  0.040652  0.081371  0  3.964984  0
C  C27  1  0.61686012  0.14917367  0.78596718  1  0  0.117223  0  3.724081  0  0  0.085102  0  3.979308  0  0  0.090468  0  3.999968  0  0  0.040606  0.081261  0  3.964898  0
C  C28  1  0.15469226  0.83383684  0.93390273  1  0  0.348467  0  3.699585  0  0  0.31064  0  3.987194  0  0  0.32665  0  3.994904  0  0  0.225439  0.299832  0  3.981941  0
C  C29  1  0.84530713  0.16616256  0.06609834  1  0  0.348492  0  3.699581  0  0  0.31058  0  3.987269  0  0  0.326592  0  3.994977  0  0  0.225404  0.299767  0  3.982022  0
C  C30  1  0.01208107  0.81748727  0.78429273  1  0  0.353924  0  3.688719  0  0  0.317948  0  3.967257  0  0  0.334181  0  3.976295  0  0  0.224943  0.30602  0  3.962286  0
C  C31  1  0.98792231  0.18251091  0.21570587  1  0  0.353833  0  3.688728  0  0  0.317853  0  3.967324  0  0  0.33409  0  3.976361  0  0  0.224937  0.305925  0  3.962346  0
C  C32  1  0.63382837  0.69239919  0.76857991  1  0  0.118735  0  3.692127  0  0  0.087144  0  3.944036  0  0  0.093438  0  3.963151  0  0  0.044311  0.082834  0  3.931929  0
C  C33  1  0.36617500  0.30759899  0.23141869  1  0  0.118733  0  3.692164  0  0  0.087177  0  3.944086  0  0  0.093477  0  3.963194  0  0  0.044312  0.082862  0  3.931986  0
C  C34  1  0.76259309  0.71087558  0.82551791  1  0  -0.129544  0  3.65883  0  0  -0.151979  0  3.911353  0  0  -0.158106  0  3.93016  0  0  -0.079213  -0.147965  0  3.898903  0
C  C35  1  0.23741591  0.28912015  0.17448127  1  0  -0.12964  0  3.658948  0  0  -0.152063  0  3.911471  0  0  -0.158191  0  3.930321  0  0  -0.079236  -0.148055  0  3.899025  0
C  C36  1  0.88083354  0.78288362  0.73299372  1  0  0.033062  0  3.790118  0  0  0.045855  0  4.023769  0  0  0.046585  0  4.045847  0  0  0.008574  0.04543  0  4.009468  0
C  C37  1  0.11917106  0.21711459  0.26700770  1  0  0.033178  0  3.789977  0  0  0.045883  0  4.023791  0  0  0.046612  0  4.045862  0  0  0.008621  0.045474  0  4.009476  0
C  C38  1  0.86538153  0.83089689  0.58761590  1  0  -0.125262  0  3.703048  0  0  -0.148548  0  3.954391  0  0  -0.154454  0  3.975367  0  0  -0.076914  -0.145414  0  3.941203  0
C  C39  1  0.13461985  0.16910383  0.41238552  1  0  -0.125232  0  3.702967  0  0  -0.148513  0  3.954354  0  0  -0.15442  0  3.975334  0  0  -0.076942  -0.145381  0  3.941155  0
C  C40  1  0.73325824  0.80751580  0.54001298  1  0  0.11581  0  3.689816  0  0  0.089327  0  3.937728  0  0  0.095723  0  3.954982  0  0  0.045715  0.084845  0  3.926621  0
C  C41  1  0.26674109  0.19248745  0.45998618  1  0  0.115788  0  3.689788  0  0  0.089315  0  3.937697  0  0  0.095708  0  3.954955  0  0  0.045703  0.084829  0  3.926595  0
N  N42  1  0.31653281  0.76178394  0.33289612  1  0  -0.296804  0  3.307108  0  0  -0.214071  0  3.589885  0  0  -0.23214  0  3.606379  0  0  -0.340359  -0.201103  0  3.577861  0
N  N43  1  0.68346253  0.23821664  0.66710133  1  0  -0.296757  0  3.30695  0  0  -0.214024  0  3.589752  0  0  -0.232093  0  3.606248  0  0  -0.340315  -0.201047  0  3.577718  0
N  N44  1  0.21292158  0.90824946  0.80856038  1  0  -0.254165  0  2.898283  0  0  -0.239958  0  3.190186  0  0  -0.248275  0  3.201558  0  0  -0.211252  -0.234227  0  3.183267  0
N  N45  1  0.78707698  0.09175249  0.19144024  1  0  -0.254205  0  2.898213  0  0  -0.239975  0  3.190137  0  0  -0.248291  0  3.20151  0  0  -0.211269  -0.234243  0  3.183218  0
N  N46  1  0.12152538  0.89685331  0.71186301  1  0  -0.275512  0  2.960389  0  0  -0.246657  0  3.256766  0  0  -0.256685  0  3.268284  0  0  -0.210767  -0.240683  0  3.250298  0
N  N47  1  0.87847641  0.10314613  0.28813761  1  0  -0.275473  0  2.960213  0  0  -0.246594  0  3.256565  0  0  -0.256621  0  3.268081  0  0  -0.21075  -0.240618  0  3.250091  0
N  N48  1  0.61798124  0.73984416  0.62874750  1  0  -0.28905  0  3.325737  0  0  -0.203494  0  3.605937  0  0  -0.222194  0  3.622749  0  0  -0.339608  -0.191312  0  3.59531  0
N  N49  1  0.38201771  0.26015650  0.37125132  1  0  -0.289037  0  3.325751  0  0  -0.203487  0  3.605942  0  0  -0.222183  0  3.622749  0  0  -0.339572  -0.191296  0  3.595306  0
N  N50  1  0.27621288  0.44000316  0.76322779  1  0  0.684555  0  4.168825  0  0  0.730966  0  4.442193  0  0  0.746451  0  4.466938  0  0  0.086793  0.712002  0  4.437263  0
N  N51  1  0.72378609  0.55999751  0.23677205  1  0  0.684375  0  4.169091  0  0  0.730839  0  4.442388  0  0  0.746213  0  4.467296  0  0  0.086738  0.711877  0  4.437456  0
O  O52  1  0.02694573  0.77386942  0.92594279  1  0  -0.236702  0  2.324111  0  0  -0.158348  0  2.536814  0  0  -0.176519  0  2.540685  0  0  -0.083453  -0.146601  0  2.534551  0
O  O53  1  0.97305767  0.22612878  0.07405886  1  0  -0.236654  0  2.324146  0  0  -0.158262  0  2.536862  0  0  -0.176431  0  2.540732  0  0  -0.083408  -0.146521  0  2.534604  0
O  O54  1  0.26177559  0.49094047  0.63021702  1  0  -0.517307  0  1.828237  0  0  -0.4998  0  2.081012  0  0  -0.514283  0  2.07611  0  0  -0.221137  -0.486716  0  2.087513  0
O  O55  1  0.73822014  0.50906270  0.36978180  1  0  -0.517225  0  1.828316  0  0  -0.499723  0  2.081056  0  0  -0.514174  0  2.076205  0  0  -0.221115  -0.486643  0  2.087558  0
O  O56  1  0.34860965  0.50907853  0.82071970  1  0  -0.4834  0  1.760487  0  0  -0.47789  0  1.977102  0  0  -0.488935  0  1.977781  0  0  -0.207341  -0.466906  0  1.980258  0
O  O57  1  0.65138890  0.49092341  0.17927991  1  0  -0.483353  0  1.760576  0  0  -0.477857  0  1.977163  0  0  -0.488867  0  1.977893  0  0  -0.207321  -0.466872  0  1.980316  0
O  O58  1  0.21933210  0.32029675  0.83475960  1  0  -0.461719  0  1.765626  0  0  -0.462252  0  1.981216  0  0  -0.471087  0  1.97926  0  0  -0.194787  -0.452519  0  1.98559  0
O  O59  1  0.78066447  0.67970387  0.16524068  1  0  -0.461668  0  1.76571  0  0  -0.462213  0  1.981259  0  0  -0.471011  0  1.979353  0  0  -0.194785  -0.452484  0  1.985634  0
