# generated using pymatgen
data_CdH44C52N6(OF)8
_symmetry_space_group_name_H-M   'P 1'
_cell_length_a   12.96546639
_cell_length_b   13.26758445
_cell_length_c   16.39532602
_cell_angle_alpha   111.29591022
_cell_angle_beta   109.17090000
_cell_angle_gamma   93.02790285
_symmetry_Int_Tables_number   1
_chemical_formula_structural   CdH44C52N6(OF)8
_chemical_formula_sum   'Cd2 H88 C104 N12 O16 F16'
_cell_volume   2434.10886269
_cell_formula_units_Z   2
loop_
 _symmetry_equiv_pos_site_id
 _symmetry_equiv_pos_as_xyz
  1  'x, y, z'
loop_
 _atom_site_type_symbol
 _atom_site_label
 _atom_site_symmetry_multiplicity
 _atom_site_fract_x
 _atom_site_fract_y
 _atom_site_fract_z
 _atom_site_occupancy
 _atom_site_pbe_bader_charge
 _atom_site_pbe_bader_spin_density
 _atom_site_pbe_cm5_charge
 _atom_site_pbe_ddec_charge
 _atom_site_pbe_ddec_spin_density
 _atom_site_pbe_ddec_sum_bond_order
 _atom_site_pbe_magmom
Cd  Cd0  1  0.61351023  0.37751768  0.24994951  1  1.23787  0  0.775245  0.727569  0  2.216317  0
Cd  Cd1  1  0.38649045  0.62248314  0.75005194  1  1.237889  0  0.775228  0.72759  0  2.216299  0
H  H2  1  0.52834079  0.22432824  0.02976712  1  0.093178  0  0.116074  0.084522  0  1.013429  0
H  H3  1  0.47165875  0.77567091  0.97023172  1  0.093146  0  0.116052  0.084498  0  1.013426  0
H  H4  1  0.84757920  0.32565168  0.23338478  1  0.13034  0  0.112631  0.080287  0  1.043501  0
H  H5  1  0.15242115  0.67435159  0.76661425  1  0.130334  0  0.11261  0.080249  0  1.043551  0
H  H6  1  0.59544013  0.11433501  0.90463942  1  0.108422  0  0.111335  0.125546  0  1.026904  0
H  H7  1  0.40456039  0.88566497  0.09536052  1  0.108419  0  0.111341  0.125541  0  1.026905  0
H  H8  1  0.92808774  0.22225231  0.11763597  1  0.104844  0  0.101664  0.10904  0  1.040056  0
H  H9  1  0.07191277  0.77775178  0.88236273  1  0.10485  0  0.101649  0.109049  0  1.040061  0
H  H10  1  0.74075179  0.02708338  0.86886760  1  0.149176  0  0.105951  0.131023  0  1.023351  0
H  H11  1  0.25924725  0.97291742  0.13113159  1  0.149174  0  0.10594  0.131029  0  1.023403  0
H  H12  1  0.83304352  0.14705679  0.89348471  1  0.100279  0  0.10229  0.123138  0  0.990612  0
H  H13  1  0.16695471  0.85294400  0.10651243  1  0.100116  0  0.102285  0.123149  0  0.990701  0
H  H14  1  0.36121982  0.25612497  0.09033322  1  0.120078  0  0.111371  0.081676  0  1.043089  0
H  H15  1  0.63878102  0.74387667  0.90966913  1  0.120079  0  0.111322  0.081582  0  1.043096  0
H  H16  1  0.55314471  0.56210558  0.17683696  1  0.112601  0  0.11612  0.089873  0  1.038909  0
H  H17  1  0.44685549  0.43789276  0.82316365  1  0.112599  0  0.116113  0.089895  0  1.038894  0
H  H18  1  0.20237617  0.29447667  0.97801249  1  0.091351  0  0.103541  0.120246  0  1.021372  0
H  H19  1  0.79762403  0.70552166  0.02198689  1  0.091357  0  0.10358  0.120254  0  1.021414  0
H  H20  1  0.40338187  0.61468999  0.06879343  1  0.117049  0  0.107124  0.119787  0  1.027753  0
H  H21  1  0.59661849  0.38530917  0.93120685  1  0.117031  0  0.107146  0.119817  0  1.027787  0
H  H22  1  0.22456818  0.56593848  0.94666290  1  0.071926  0  0.100893  0.117432  0  0.983881  0
H  H23  1  0.77543545  0.43406068  0.05333762  1  0.071925  0  0.100924  0.117436  0  0.983878  0
H  H24  1  0.17203081  0.42500079  0.87362431  1  0.143655  0  0.103473  0.124881  0  1.030111  0
H  H25  1  0.82797152  0.57499590  0.12637516  1  0.14383  0  0.103447  0.12487  0  1.030161  0
H  H26  1  0.44161637  0.43593166  0.35228955  1  0.148391  0  0.119886  0.102748  0  1.008214  0
H  H27  1  0.55838497  0.56406833  0.64771244  1  0.148375  0  0.119885  0.102719  0  1.008269  0
H  H28  1  0.72779243  0.63463831  0.39375071  1  0.123477  0  0.109078  0.077285  0  1.056539  0
H  H29  1  0.27220956  0.36536085  0.60624999  1  0.123517  0  0.109077  0.077261  0  1.056507  0
H  H30  1  0.38787072  0.59295159  0.45769164  1  0.103359  0  0.108508  0.117476  0  1.020481  0
H  H31  1  0.61213028  0.40705086  0.54230854  1  0.103336  0  0.108511  0.117501  0  1.020465  0
H  H32  1  0.68353649  0.80121132  0.49770380  1  0.085783  0  0.099521  0.108455  0  1.038534  0
H  H33  1  0.31646648  0.19878867  0.50229679  1  0.08581  0  0.099511  0.108431  0  1.038518  0
H  H34  1  0.55930529  0.83385628  0.62498187  1  0.165883  0  0.105305  0.127337  0  1.032859  0
H  H35  1  0.44069278  0.16614370  0.37501743  1  0.165845  0  0.10534  0.127423  0  1.032859  0
H  H36  1  0.41815657  0.78465849  0.55009142  1  0.082981  0  0.100619  0.114457  0  0.989455  0
H  H37  1  0.58184168  0.21533818  0.44990575  1  0.082983  0  0.100637  0.114482  0  0.989434  0
H  H38  1  0.68617116  0.15140064  0.25858551  1  0.130127  0  0.113042  0.083171  0  1.039093  0
H  H39  1  0.31382920  0.84859853  0.74141537  1  0.1301  0  0.113045  0.083169  0  1.039079  0
H  H40  1  0.76861176  0.46750037  0.46812577  1  0.10359  0  0.117278  0.088235  0  1.006047  0
H  H41  1  0.23138647  0.53250043  0.53187381  1  0.103621  0  0.117303  0.088268  0  1.006028  0
H  H42  1  0.79460662  0.07621123  0.37090600  1  0.116385  0  0.102101  0.112635  0  1.032083  0
H  H43  1  0.20539258  0.92379040  0.62909591  1  0.116348  0  0.102107  0.112621  0  1.032053  0
H  H44  1  0.87610329  0.40432411  0.59091144  1  0.113594  0  0.112271  0.125247  0  1.026618  0
H  H45  1  0.12389705  0.59567916  0.40908942  1  0.113633  0  0.112272  0.125235  0  1.026586  0
H  H46  1  0.97452424  0.26554586  0.62251882  1  0.149442  0  0.105355  0.130683  0  1.029312  0
H  H47  1  0.02547579  0.73445577  0.37748331  1  0.149472  0  0.105336  0.13067  0  1.029295  0
H  H48  1  0.85078519  0.18011418  0.60078283  1  0.106239  0  0.102605  0.122661  0  0.9931  0
H  H49  1  0.14921598  0.81988498  0.39921766  1  0.106253  0  0.102604  0.122666  0  0.993093  0
H  H50  1  0.12701132  0.20962965  0.74027280  1  0.070896  0  0.0944  0.10158  0  1.028516  0
H  H51  1  0.87298986  0.79036950  0.25972586  1  0.070731  0  0.094407  0.101572  0  1.028528  0
H  H52  1  0.99667810  0.07603689  0.75243096  1  0.048233  0  0.09566  0.097294  0  0.997055  0
H  H53  1  0.00332046  0.92396143  0.24756617  1  0.04826  0  0.095658  0.097293  0  0.997062  0
H  H54  1  0.07007864  0.94592241  0.82453256  1  0.06665  0  0.090629  0.086945  0  1.042458  0
H  H55  1  0.92991927  0.05407674  0.17546647  1  0.066673  0  0.09063  0.086952  0  1.042464  0
H  H56  1  0.27519653  0.95374470  0.88823859  1  0.059476  0  0.094977  0.094636  0  1.030117  0
H  H57  1  0.72480170  0.04625610  0.11176283  1  0.059499  0  0.094962  0.094629  0  1.030067  0
H  H58  1  0.40377791  0.08387873  0.87270290  1  0.072921  0  0.101667  0.105299  0  1.0278  0
H  H59  1  0.59622164  0.91612044  0.12729839  1  0.072918  0  0.10168  0.105353  0  1.027791  0
H  H60  1  0.36475033  0.31901439  0.86030832  1  0.070446  0  0.104493  0.082308  0  0.987756  0
H  H61  1  0.63525085  0.68098477  0.13969217  1  0.070429  0  0.104498  0.082338  0  0.987774  0
H  H62  1  0.31271973  0.25361690  0.73551797  1  0.07593  0  0.094884  0.064078  0  1.005094  0
H  H63  1  0.68728128  0.74638143  0.26448224  1  0.075902  0  0.094887  0.064063  0  1.005117  0
H  H64  1  0.54806981  0.12275226  0.74007901  1  0.062706  0  0.097552  0.108744  0  0.996979  0
H  H65  1  0.45192957  0.87724607  0.25992016  1  0.062713  0  0.097557  0.108726  0  0.997003  0
H  H66  1  0.43413690  0.16034727  0.66630868  1  0.025059  0  0.081399  0.073379  0  1.036011  0
H  H67  1  0.56586296  0.83965354  0.33369256  1  0.02501  0  0.081408  0.07342  0  1.036003  0
H  H68  1  0.40877903  0.05400154  0.70476064  1  0.043446  0  0.085613  0.083236  0  1.023497  0
H  H69  1  0.59122067  0.94599844  0.29523910  1  0.043347  0  0.085583  0.083172  0  1.023515  0
H  H70  1  0.77423109  0.74426186  0.78407763  1  0.060329  0  0.09539  0.099901  0  1.031792  0
H  H71  1  0.22576616  0.25573811  0.21592268  1  0.060368  0  0.095402  0.099899  0  1.031837  0
H  H72  1  0.77976053  0.88929347  0.72301817  1  0.085322  0  0.094419  0.098449  0  1.029665  0
H  H73  1  0.22024065  0.11070569  0.27698171  1  0.085336  0  0.094427  0.098461  0  1.0296  0
H  H74  1  0.89070246  0.88368468  0.62321651  1  0.040717  0  0.087025  0.075581  0  1.048492  0
H  H75  1  0.10930051  0.11631532  0.37678591  1  0.040775  0  0.087041  0.075636  0  1.048529  0
H  H76  1  0.99078238  0.72884806  0.58093826  1  0.05497  0  0.092414  0.092579  0  1.030443  0
H  H77  1  0.00922191  0.27115030  0.41906525  1  0.054942  0  0.092424  0.092566  0  1.030481  0
H  H78  1  0.98651803  0.58506811  0.64380522  1  0.083061  0  0.098266  0.103526  0  1.036877  0
H  H79  1  0.01348054  0.41493023  0.35619618  1  0.083057  0  0.098256  0.103533  0  1.036886  0
H  H80  1  0.94662333  0.52430378  0.75423191  1  0.071288  0  0.090431  0.060995  0  1.01585  0
H  H81  1  0.05337735  0.47569704  0.24577015  1  0.07126  0  0.090423  0.061002  0  1.015839  0
H  H82  1  0.89144428  0.61122997  0.83514882  1  0.0266  0  0.088086  0.053767  0  1.001983  0
H  H83  1  0.10855705  0.38877002  0.16485317  1  0.026645  0  0.088093  0.053794  0  1.001888  0
H  H84  1  0.67621615  0.37278833  0.70859049  1  0.038564  0  0.091786  0.100021  0  1.021081  0
H  H85  1  0.32378274  0.62721164  0.29140780  1  0.038589  0  0.091798  0.100024  0  1.021085  0
H  H86  1  0.76817231  0.46864841  0.82328153  1  0.018025  0  0.078063  0.068241  0  1.062344  0
H  H87  1  0.23182625  0.53134991  0.17671743  1  0.018017  0  0.078026  0.068175  0  1.062359  0
H  H88  1  0.82181490  0.36985340  0.74746027  1  0.020579  0  0.08257  0.08185  0  1.017853  0
H  H89  1  0.17818367  0.63014493  0.25253929  1  0.020578  0  0.082563  0.081837  0  1.017862  0
C  C90  1  0.61659038  0.22291894  0.04591754  1  0.476216  0  0.049355  0.107789  0  3.943097  0
C  C91  1  0.38341014  0.77708104  0.95408180  1  0.476476  0  0.049365  0.107815  0  3.943034  0
C  C92  1  0.79450501  0.27926612  0.15945604  1  0.44838  0  0.04008  0.089776  0  3.959024  0
C  C93  1  0.20549584  0.72073550  0.84054263  1  0.448395  0  0.04012  0.089803  0  3.959079  0
C  C94  1  0.65428379  0.16207101  0.97634779  1  0.055205  0  -0.080187  -0.179888  0  3.915868  0
C  C95  1  0.34571608  0.83792979  0.02365162  1  0.055218  0  -0.080179  -0.179859  0  3.915819  0
C  C96  1  0.83886605  0.22112456  0.09389042  1  -0.017102  0  -0.088877  -0.186485  0  3.934665  0
C  C97  1  0.16113430  0.77887871  0.90610922  1  -0.017085  0  -0.088885  -0.186524  0  3.934748  0
C  C98  1  0.76792252  0.16022261  0.99993508  1  -0.097633  0  0.016349  0.178775  0  3.918592  0
C  C99  1  0.23207750  0.83977901  0.00006399  1  -0.097634  0  0.016375  0.178869  0  3.918688  0
C  C100  1  0.80956433  0.09346478  0.92487071  1  -0.051023  0  -0.153539  -0.236363  0  3.938046  0
C  C101  1  0.19043553  0.90653602  0.07512748  1  -0.0508  0  -0.1536  -0.236585  0  3.9383  0
C  C102  1  0.90739309  0.04544946  0.96234721  1  0.112544  0  -0.020538  -0.057629  0  4.050495  0
C  C103  1  0.09260644  0.95455380  0.03765161  1  0.112595  0  -0.020439  -0.057438  0  4.050443  0
C  C104  1  0.01702322  0.10051074  0.99539745  1  0.479204  0  0.086667  0.11455  0  4.101371  0
C  C105  1  0.98297615  0.89949171  0.00460170  1  0.479575  0  0.086535  0.114337  0  4.101598  0
C  C106  1  0.10709610  0.05613670  0.03148363  1  0.513889  0  0.090937  0.124257  0  4.097416  0
C  C107  1  0.89290327  0.94386574  0.96851429  1  0.51377  0  0.091084  0.124447  0  4.09716  0
C  C108  1  0.36675555  0.33455881  0.08331433  1  0.442504  0  0.043764  0.094262  0  3.953873  0
C  C109  1  0.63324399  0.66544035  0.91668573  1  0.442592  0  0.043851  0.09444  0  3.953606  0
C  C110  1  0.47409804  0.50526867  0.13125148  1  0.451009  0  0.043214  0.097833  0  3.940497  0
C  C111  1  0.52590232  0.49473049  0.86874941  1  0.451018  0  0.043178  0.09778  0  3.940286  0
C  C112  1  0.27853968  0.35671315  0.02064082  1  -0.023884  0  -0.085817  -0.18333  0  3.924246  0
C  C113  1  0.72146281  0.64328437  0.97936076  1  -0.023906  0  -0.085875  -0.183306  0  3.924172  0
C  C114  1  0.39003678  0.53350745  0.07000271  1  -0.002071  0  -0.085743  -0.186999  0  3.938248  0
C  C115  1  0.60996603  0.46649172  0.92999882  1  -0.00214  0  -0.085734  -0.186997  0  3.938163  0
C  C116  1  0.28944502  0.45831613  0.01296627  1  -0.010766  0  0.014072  0.171253  0  3.929454  0
C  C117  1  0.71055747  0.54168139  0.98703347  1  -0.010724  0  0.014108  0.171208  0  3.929545  0
C  C118  1  0.19581603  0.48641518  0.94628273  1  -0.021102  0  -0.154288  -0.224716  0  3.92704  0
C  C119  1  0.80418434  0.51358398  0.05371694  1  -0.021358  0  -0.154304  -0.224694  0  3.927007  0
C  C120  1  0.09467191  0.49267960  0.97258299  1  0.096048  0  -0.019937  -0.056778  0  4.036303  0
C  C121  1  0.90533025  0.50732038  0.02741677  1  0.09616  0  -0.019942  -0.056751  0  4.036171  0
C  C122  1  0.08932240  0.58583826  0.04534020  1  0.484781  0  0.085267  0.110339  0  4.107812  0
C  C123  1  0.91067959  0.41416089  0.95465745  1  0.484752  0  0.085255  0.110217  0  4.107817  0
C  C124  1  0.99779042  0.59342038  0.07226534  1  0.53056  0  0.087294  0.120024  0  4.103552  0
C  C125  1  0.00221239  0.40657877  0.92773314  1  0.530595  0  0.087315  0.120101  0  4.103581  0
C  C126  1  0.49422352  0.51782026  0.38704151  1  0.435524  0  0.047587  0.098934  0  3.930811  0
C  C127  1  0.50577977  0.48218138  0.61296025  1  0.435509  0  0.047622  0.099022  0  3.930632  0
C  C128  1  0.65268290  0.62933282  0.40904250  1  0.439617  0  0.038174  0.0888  0  3.966713  0
C  C129  1  0.34731957  0.37066882  0.59095844  1  0.439637  0  0.038228  0.088928  0  3.966788  0
C  C130  1  0.46472549  0.60641895  0.44638735  1  0.007543  0  -0.082124  -0.176368  0  3.936883  0
C  C131  1  0.53527487  0.39358020  0.55361232  1  0.007501  0  -0.082082  -0.176358  0  3.93703  0
C  C132  1  0.62755004  0.72187112  0.46758309  1  0.003162  0  -0.08988  -0.184889  0  3.948455  0
C  C133  1  0.37245064  0.27812968  0.53241714  1  0.002958  0  -0.089881  -0.184895  0  3.948256  0
C  C134  1  0.53135394  0.71147647  0.48744580  1  -0.04649  0  0.016472  0.178533  0  3.917146  0
C  C135  1  0.46865049  0.28852681  0.51255552  1  -0.046216  0  0.016469  0.178591  0  3.917093  0
C  C136  1  0.50127908  0.80925925  0.55173105  1  -0.055886  0  -0.153368  -0.225855  0  3.927499  0
C  C137  1  0.49871883  0.19073990  0.44826675  1  -0.055886  0  -0.153435  -0.226037  0  3.927359  0
C  C138  1  0.50219784  0.90719187  0.52590813  1  0.091251  0  -0.018009  -0.053218  0  4.03292  0
C  C139  1  0.49779746  0.09280644  0.47408998  1  0.091246  0  -0.018071  -0.05326  0  4.032893  0
C  C140  1  0.41429354  0.91090842  0.45076849  1  0.531376  0  0.084906  0.11277  0  4.099294  0
C  C141  1  0.58570306  0.08909238  0.54923128  1  0.531419  0  0.084922  0.112816  0  4.099136  0
C  C142  1  0.41131014  0.00060354  0.42564182  1  0.495405  0  0.08786  0.120451  0  4.102977  0
C  C143  1  0.58868629  0.99939643  0.57435706  1  0.495439  0  0.087877  0.120446  0  4.102948  0
C  C144  1  0.72959566  0.20497809  0.33297073  1  0.455282  0  0.042833  0.095734  0  3.953553  0
C  C145  1  0.27040323  0.79502189  0.66702940  1  0.455149  0  0.042856  0.095743  0  3.953627  0
C  C146  1  0.77441199  0.38096331  0.44991119  1  0.496769  0  0.049464  0.106934  0  3.94372  0
C  C147  1  0.22558640  0.61903831  0.55008929  1  0.496827  0  0.049405  0.106864  0  3.943779  0
C  C148  1  0.78953095  0.16327709  0.39685257  1  -0.03442  0  -0.090816  -0.195558  0  3.944261  0
C  C149  1  0.21046826  0.83672455  0.60314874  1  -0.034247  0  -0.090835  -0.195538  0  3.944292  0
C  C150  1  0.83473629  0.34550373  0.51802123  1  0.001143  0  -0.07918  -0.175699  0  3.912782  0
C  C151  1  0.16526455  0.65449790  0.48197989  1  0.001146  0  -0.079127  -0.175595  0  3.9128  0
C  C152  1  0.84295872  0.23425223  0.49207711  1  -0.077561  0  0.014766  0.175089  0  3.92018  0
C  C153  1  0.15704228  0.76575024  0.50792491  1  -0.077619  0  0.014757  0.175052  0  3.920228  0
C  C154  1  0.90715188  0.19680399  0.56763328  1  -0.034052  0  -0.153546  -0.235483  0  3.933927  0
C  C155  1  0.09284896  0.80319765  0.43236845  1  -0.034061  0  -0.153517  -0.235462  0  3.933959  0
C  C156  1  0.95429094  0.09607760  0.53272625  1  0.139233  0  -0.019406  -0.05347  0  4.054789  0
C  C157  1  0.04570795  0.90392237  0.46727266  1  0.13927  0  -0.019366  -0.053422  0  4.054769  0
C  C158  1  0.06204809  0.10359913  0.53277244  1  0.461543  0  0.0905  0.121213  0  4.092639  0
C  C159  1  0.93795276  0.89640249  0.46722685  1  0.46153  0  0.090448  0.121168  0  4.092777  0
C  C160  1  0.10633370  0.01026538  0.50117143  1  0.486974  0  0.08791  0.114528  0  4.096354  0
C  C161  1  0.89366698  0.98973542  0.49882819  1  0.486974  0  0.087883  0.114433  0  4.096518  0
C  C162  1  0.27370437  0.15443699  0.80457644  1  -0.044217  0  -0.022938  0.06617  0  3.993565  0
C  C163  1  0.72629534  0.84556299  0.19542390  1  -0.044204  0  -0.022948  0.06614  0  3.993687  0
C  C164  1  0.15879923  0.15156332  0.77085001  1  -0.052281  0  -0.103579  -0.155266  0  3.997994  0
C  C165  1  0.84120194  0.84843584  0.22914926  1  -0.052264  0  -0.10361  -0.155284  0  3.998077  0
C  C166  1  0.08594715  0.07721203  0.77845207  1  -0.048447  0  -0.100744  -0.084733  0  4.038288  0
C  C167  1  0.91405158  0.92278712  0.22154656  1  -0.048322  0  -0.100712  -0.084683  0  4.038275  0
C  C168  1  0.12721914  0.00494756  0.81986659  1  -0.022831  0  -0.104089  -0.103472  0  4.035043  0
C  C169  1  0.87277959  0.99505159  0.18013265  1  -0.022848  0  -0.104118  -0.103537  0  4.035082  0
C  C170  1  0.24176887  0.00849818  0.85455432  1  -0.114239  0  -0.0966  -0.077108  0  4.021953  0
C  C171  1  0.75823083  0.99150181  0.14544663  1  -0.114237  0  -0.096588  -0.077081  0  4.02188  0
C  C172  1  0.31459020  0.08247537  0.84656765  1  -0.047829  0  -0.097281  -0.140692  0  3.976088  0
C  C173  1  0.68540934  0.91752379  0.15343302  1  -0.047841  0  -0.097276  -0.140734  0  3.976168  0
C  C174  1  0.35145650  0.23990229  0.80057320  1  0.421968  0  -0.068422  -0.020081  0  3.933761  0
C  C175  1  0.64854452  0.76009605  0.19942762  1  0.421963  0  -0.068401  -0.020069  0  3.933848  0
C  C176  1  0.46164314  0.13378920  0.72525638  1  0.398259  0  -0.152403  -0.1756  0  3.950677  0
C  C177  1  0.53835706  0.86620914  0.27474362  1  0.398421  0  -0.152403  -0.175579  0  3.950654  0
C  C178  1  0.88225652  0.65696539  0.72001840  1  -0.067273  0  -0.021352  0.07313  0  3.995896  0
C  C179  1  0.11774302  0.34303378  0.27998472  1  -0.06729  0  -0.021416  0.072992  0  3.996132  0
C  C180  1  0.82333735  0.74228111  0.74099775  1  -0.025275  0  -0.095402  -0.131451  0  3.975288  0
C  C181  1  0.17666169  0.25771970  0.25900327  1  -0.025241  0  -0.095366  -0.131346  0  3.975296  0
C  C182  1  0.82601177  0.82345523  0.70614926  1  -0.054833  0  -0.099802  -0.08869  0  4.012743  0
C  C183  1  0.17398957  0.17654476  0.29385212  1  -0.054924  0  -0.099805  -0.088678  0  4.012605  0
C  C184  1  0.88723424  0.81931280  0.64930348  1  -0.049794  0  -0.097823  -0.088513  0  4.031592  0
C  C185  1  0.11276694  0.18068636  0.35069823  1  -0.049832  0  -0.097834  -0.088618  0  4.031688  0
C  C186  1  0.94402140  0.73318095  0.62613385  1  -0.042023  0  -0.097856  -0.078231  0  4.003525  0
C  C187  1  0.05597978  0.26681822  0.37386786  1  -0.042029  0  -0.097908  -0.078195  0  4.00356  0
C  C188  1  0.94139759  0.65206400  0.66135982  1  -0.046435  0  -0.094418  -0.137696  0  3.958447  0
C  C189  1  0.05860016  0.34793434  0.33864075  1  -0.046457  0  -0.094392  -0.137708  0  3.958568  0
C  C190  1  0.87953179  0.57152651  0.75958125  1  0.408861  0  -0.073563  -0.022582  0  3.943856  0
C  C191  1  0.12046694  0.42847266  0.24042105  1  0.408925  0  -0.073532  -0.022539  0  3.943755  0
C  C192  1  0.75982738  0.42371051  0.74946763  1  0.463196  0  -0.159344  -0.179795  0  3.973591  0
C  C193  1  0.24017135  0.57628865  0.25053161  1  0.463193  0  -0.159329  -0.179724  0  3.973525  0
N  N194  1  0.68513066  0.28047016  0.13629098  1  -1.241883  0  -0.3337  -0.237841  0  3.526863  0
N  N195  1  0.31487002  0.71953064  0.86370864  1  -1.242155  0  -0.333703  -0.237847  0  3.526848  0
N  N196  1  0.46342034  0.40749980  0.13799408  1  -1.231467  0  -0.331949  -0.237526  0  3.505515  0
N  N197  1  0.53657854  0.59250018  0.86200727  1  -1.231445  0  -0.33197  -0.237606  0  3.505481  0
N  N198  1  0.58685671  0.52856035  0.36830402  1  -1.235157  0  -0.333507  -0.245039  0  3.506423  0
N  N199  1  0.41314170  0.47143715  0.63169465  1  -1.235177  0  -0.333601  -0.245205  0  3.506472  0
N  N200  1  0.72169306  0.31183853  0.35862950  1  -1.254137  0  -0.332766  -0.239274  0  3.521197  0
N  N201  1  0.27830681  0.68816228  0.64137113  1  -1.254212  0  -0.33279  -0.23932  0  3.521265  0
N  N202  1  0.45793551  0.16465598  0.21435019  1  0.823058  0  0.09016  0.713487  0  4.43393  0
N  N203  1  0.54206290  0.83534153  0.78564849  1  0.822897  0  0.090247  0.713648  0  4.433726  0
N  N204  1  0.83151464  0.54442966  0.28611149  1  0.80994  0  0.089651  0.710623  0  4.436306  0
N  N205  1  0.16848491  0.45556950  0.71388796  1  0.809948  0  0.089596  0.71064  0  4.436402  0
O  O206  1  0.46116085  0.26445544  0.26792108  1  -0.586652  0  -0.210885  -0.473426  0  1.99743  0
O  O207  1  0.53883756  0.73554206  0.73207698  1  -0.586742  0  -0.210882  -0.473464  0  1.997364  0
O  O208  1  0.50027305  0.14785965  0.15219023  1  -0.549857  0  -0.20561  -0.470158  0  1.951272  0
O  O209  1  0.49972536  0.85213785  0.84780844  1  -0.549842  0  -0.205681  -0.470265  0  1.951266  0
O  O210  1  0.41403025  0.08582224  0.22502511  1  -0.54241  0  -0.187309  -0.442325  0  1.980585  0
O  O211  1  0.58596816  0.91417525  0.77497296  1  -0.542173  0  -0.187324  -0.442324  0  1.980476  0
O  O212  1  0.72982261  0.53297606  0.23319144  1  -0.572317  0  -0.209698  -0.482129  0  2.020949  0
O  O213  1  0.27017694  0.46702309  0.76680740  1  -0.57231  0  -0.209668  -0.482156  0  2.02107  0
O  O214  1  0.85281743  0.50768285  0.34987598  1  -0.551705  0  -0.198813  -0.465524  0  1.957325  0
O  O215  1  0.14718180  0.49231465  0.65012229  1  -0.551699  0  -0.198786  -0.465495  0  1.957273  0
O  O216  1  0.90849708  0.59148392  0.27346105  1  -0.55123  0  -0.190697  -0.448499  0  1.990559  0
O  O217  1  0.09150262  0.40851606  0.72653929  1  -0.551251  0  -0.190701  -0.448524  0  1.990562  0
O  O218  1  0.45957908  0.21618775  0.80955798  1  -1.059042  0  -0.239828  -0.196588  0  2.531737  0
O  O219  1  0.54042194  0.78381058  0.19044223  1  -1.059035  0  -0.23982  -0.196561  0  2.531757  0
O  O220  1  0.77278112  0.49874659  0.70822777  1  -1.049881  0  -0.240029  -0.196954  0  2.52137  0
O  O221  1  0.22721940  0.50125339  0.29177279  1  -1.049899  0  -0.24001  -0.196976  0  2.521315  0
F  F222  1  0.03691574  0.20087947  0.99280749  1  -0.6317  0  -0.083469  -0.114738  0  1.423426  0
F  F223  1  0.96308379  0.79912380  0.00719316  1  -0.631933  0  -0.083464  -0.114709  0  1.423584  0
F  F224  1  0.21163574  0.11326053  0.06099280  1  -0.627803  0  -0.071191  -0.092854  0  1.427949  0
F  F225  1  0.78836494  0.88674026  0.93900377  1  -0.627778  0  -0.071237  -0.0929  0  1.427863  0
F  F226  1  0.17760163  0.67203796  0.09285454  1  -0.637764  0  -0.07743  -0.100182  0  1.407622  0
F  F227  1  0.82239873  0.32796118  0.90714207  1  -0.637743  0  -0.077426  -0.10016  0  1.407641  0
F  F228  1  0.00014399  0.68687573  0.14441031  1  -0.629287  0  -0.081608  -0.105946  0  1.412388  0
F  F229  1  0.99985751  0.31312507  0.85558892  1  -0.62933  0  -0.081623  -0.10595  0  1.412443  0
F  F230  1  0.32780379  0.82321682  0.39946999  1  -0.637986  0  -0.0747  -0.103657  0  1.433329  0
F  F231  1  0.67219346  0.17678315  0.60052972  1  -0.637986  0  -0.074671  -0.103638  0  1.433301  0
F  F232  1  0.32166683  0.99617111  0.35141873  1  -0.629731  0  -0.081481  -0.105984  0  1.39827  0
F  F233  1  0.67833059  0.00382968  0.64858065  1  -0.629673  0  -0.081498  -0.105989  0  1.398319  0
F  F234  1  0.12677424  0.20439516  0.56556612  1  -0.628292  0  -0.070893  -0.094103  0  1.424534  0
F  F235  1  0.87322627  0.79560893  0.43443258  1  -0.628253  0  -0.070839  -0.094042  0  1.424619  0
F  F236  1  0.21241097  0.02393625  0.50370223  1  -0.63018  0  -0.083881  -0.113745  0  1.412961  0
F  F237  1  0.78759134  0.97606456  0.49629660  1  -0.63013  0  -0.083854  -0.113678  0  1.413053  0
