# generated using pymatgen
data_TbH13(CO)10
_symmetry_space_group_name_H-M   'P 1'
_cell_length_a   6.42888023
_cell_length_b   12.16649888
_cell_length_c   19.19072586
_cell_angle_alpha   72.12560456
_cell_angle_beta   80.41063007
_cell_angle_gamma   74.69497646
_symmetry_Int_Tables_number   1
_chemical_formula_structural   TbH13(CO)10
_chemical_formula_sum   'Tb4 H52 C40 O40'
_cell_volume   1371.92228785
_cell_formula_units_Z   4
loop_
 _symmetry_equiv_pos_site_id
 _symmetry_equiv_pos_as_xyz
  1  'x, y, z'
loop_
 _atom_site_type_symbol
 _atom_site_label
 _atom_site_symmetry_multiplicity
 _atom_site_fract_x
 _atom_site_fract_y
 _atom_site_fract_z
 _atom_site_occupancy
 _atom_site_hle17_bader_spin_density
 _atom_site_hle17_ddec_charge
 _atom_site_hle17_ddec_spin_density
 _atom_site_hle17_ddec_sum_bond_order
 _atom_site_hle17_magmom
 _atom_site_hse06_10hf_bader_spin_density
 _atom_site_hse06_10hf_ddec_charge
 _atom_site_hse06_10hf_ddec_spin_density
 _atom_site_hse06_10hf_ddec_sum_bond_order
 _atom_site_hse06_10hf_magmom
 _atom_site_hse06_bader_spin_density
 _atom_site_hse06_ddec_charge
 _atom_site_hse06_ddec_spin_density
 _atom_site_hse06_ddec_sum_bond_order
 _atom_site_hse06_magmom
 _atom_site_pbe_bader_charge
 _atom_site_pbe_bader_spin_density
 _atom_site_pbe_cm5_charge
 _atom_site_pbe_ddec_charge
 _atom_site_pbe_ddec_spin_density
 _atom_site_pbe_ddec_sum_bond_order
 _atom_site_pbe_magmom
Tb  Tb0  1  0.37095857  0.17544888  0.98162756  1  0  2.225515  0  1.616239  0  0  2.074534  0  2.086553  0  0  2.122581  0  2.04606  0  2.163562  0  1.511765  2.037964  0  2.118516  0
Tb  Tb1  1  0.52832946  0.32451787  0.51848558  1  0  2.150508  0  1.761389  0  0  2.074012  0  2.0871  0  0  2.122106  0  2.046516  0  2.164283  0  1.511698  2.037415  0  2.119134  0
Tb  Tb2  1  0.62904370  0.82455025  0.01837227  1  0  2.225514  0  1.616243  0  0  2.074532  0  2.086566  0  0  2.122583  0  2.046069  0  2.163472  0  1.511768  2.037961  0  2.118528  0
Tb  Tb3  1  0.47167043  0.67548214  0.48151452  1  0  2.150438  0  1.761503  0  0  2.073997  0  2.087125  0  0  2.12209  0  2.046544  0  2.164231  0  1.511685  2.037404  0  2.119154  0
H  H4  1  0.59161215  0.22044278  0.35453923  1  0  0.421743  0  0.865672  0  0  0.389948  0  0.944088  0  0  0.402794  0  0.925928  0  0.659877  0  0.3106  0.380901  0  0.954297  0
H  H5  1  0.16698800  0.27945570  0.14549302  1  0  0.420875  0  0.867097  0  0  0.389322  0  0.945048  0  0  0.402154  0  0.926911  0  0.657631  0  0.310515  0.380297  0  0.955366  0
H  H6  1  0.40838788  0.77955458  0.64546072  1  0  0.42179  0  0.865605  0  0  0.389999  0  0.944015  0  0  0.402846  0  0.925852  0  0.659872  0  0.310622  0.380955  0  0.954222  0
H  H7  1  0.83301413  0.72054609  0.85450695  1  0  0.420795  0  0.867185  0  0  0.389255  0  0.945142  0  0  0.402087  0  0.927004  0  0.657426  0  0.310478  0.380232  0  0.955439  0
H  H8  1  0.26038171  0.44281151  0.93416934  1  0  0.462564  0  0.820968  0  0  0.43183  0  0.882105  0  0  0.442548  0  0.866325  0  0.673996  0  0.313075  0.424295  0  0.89318  0
H  H9  1  0.63738620  0.05718983  0.56582305  1  0  0.461729  0  0.822073  0  0  0.430767  0  0.883564  0  0  0.441494  0  0.867774  0  0.673115  0  0.313013  0.423205  0  0.894667  0
H  H10  1  0.73961818  0.55718851  0.06583076  1  0  0.462567  0  0.820966  0  0  0.431835  0  0.882101  0  0  0.442552  0  0.866321  0  0.674008  0  0.313067  0.424301  0  0.893173  0
H  H11  1  0.36261688  0.94280841  0.43417806  1  0  0.461573  0  0.822248  0  0  0.430594  0  0.883772  0  0  0.441328  0  0.867973  0  0.673132  0  0.312911  0.423032  0  0.894875  0
H  H12  1  0.48065071  0.40762738  0.97155550  1  0  0.437997  0  0.812282  0  0  0.425591  0  0.85357  0  0  0.433019  0  0.843007  0  0.616642  0  0.339618  0.420226  0  0.861306  0
H  H13  1  0.85984398  0.09231632  0.52846622  1  0  0.440755  0  0.807946  0  0  0.427845  0  0.85064  0  0  0.435336  0  0.839942  0  0.606607  0  0.340651  0.422422  0  0.85849  0
H  H14  1  0.51934806  0.59237174  0.02844467  1  0  0.43799  0  0.812315  0  0  0.425581  0  0.85359  0  0  0.43301  0  0.843025  0  0.61659  0  0.339615  0.420216  0  0.861326  0
H  H15  1  0.14015576  0.90768281  0.47153455  1  0  0.440771  0  0.807865  0  0  0.42786  0  0.850605  0  0  0.435353  0  0.839906  0  0.606611  0  0.340645  0.422437  0  0.858458  0
H  H16  1  0.81358212  0.07919553  0.93293282  1  0  0.436547  0  0.868753  0  0  0.406381  0  0.93177  0  0  0.41737  0  0.915695  0  0.644963  0  0.300724  0.39868  0  0.943027  0
H  H17  1  0.82583222  0.42086965  0.56709561  1  0  0.436536  0  0.868867  0  0  0.405347  0  0.933741  0  0  0.416381  0  0.917586  0  0.634636  0  0.300497  0.397637  0  0.945007  0
H  H18  1  0.18641926  0.92080448  0.06706737  1  0  0.436516  0  0.868786  0  0  0.406345  0  0.931815  0  0  0.417334  0  0.915739  0  0.64497  0  0.300711  0.398643  0  0.943072  0
H  H19  1  0.17416916  0.57913037  0.43290459  1  0  0.436577  0  0.868822  0  0  0.405384  0  0.933697  0  0  0.416419  0  0.91754  0  0.634641  0  0.300516  0.397672  0  0.944967  0
H  H20  1  0.83590419  0.20875405  0.92909007  1  0  0.447006  0  0.848606  0  0  0.417186  0  0.910343  0  0  0.4282  0  0.894181  0  0.652421  0  0.300135  0.40944  0  0.921666  0
H  H21  1  0.97394601  0.29131911  0.57096513  1  0  0.445723  0  0.850516  0  0  0.415638  0  0.912618  0  0  0.426691  0  0.896431  0  0.66819  0  0.299709  0.407859  0  0.923975  0
H  H22  1  0.16409792  0.79124419  0.07091042  1  0  0.447036  0  0.848565  0  0  0.41722  0  0.910295  0  0  0.428234  0  0.894133  0  0.652422  0  0.300144  0.409473  0  0.92162  0
H  H23  1  0.02605537  0.70868090  0.42903506  1  0  0.445714  0  0.850524  0  0  0.41564  0  0.9126  0  0  0.426693  0  0.896413  0  0.668194  0  0.299721  0.407861  0  0.923956  0
H  H24  1  0.77298319  0.16339926  0.17481376  1  0  0.109068  0  0.897618  0  0  0.120268  0  0.949826  0  0  0.123358  0  0.948112  0  0.093823  0  0.114562  0.118002  0  0.951255  0
H  H25  1  0.11105005  0.33664996  0.32528118  1  0  0.107973  0  0.898057  0  0  0.1194  0  0.950064  0  0  0.122426  0  0.948444  0  0.101345  0  0.114654  0.11718  0  0.951418  0
H  H26  1  0.22701090  0.83660164  0.82518532  1  0  0.109072  0  0.897609  0  0  0.120236  0  0.949844  0  0  0.123326  0  0.94813  0  0.093849  0  0.114554  0.11797  0  0.951274  0
H  H27  1  0.88895104  0.66335094  0.67471721  1  0  0.107996  0  0.898014  0  0  0.119417  0  0.950033  0  0  0.122447  0  0.948414  0  0.101375  0  0.114631  0.117196  0  0.951389  0
H  H28  1  0.91168409  0.92120173  0.14366110  1  0  0.084308  0  0.932988  0  0  0.095558  0  0.994512  0  0  0.097589  0  0.99379  0  0.065468  0  0.110589  0.094055  0  0.995201  0
H  H29  1  0.97650983  0.57878898  0.35650958  1  0  0.08372  0  0.934268  0  0  0.095736  0  0.99491  0  0  0.097762  0  0.994208  0  0.054813  0  0.110952  0.094224  0  0.99563  0
H  H30  1  0.08831520  0.07879740  0.85633855  1  0  0.084293  0  0.933055  0  0  0.095547  0  0.994565  0  0  0.097578  0  0.993845  0  0.065472  0  0.110585  0.094044  0  0.995254  0
H  H31  1  0.02349200  0.42121103  0.64349174  1  0  0.083779  0  0.934259  0  0  0.095769  0  0.994906  0  0  0.097792  0  0.994202  0  0.054847  0  0.110978  0.094259  0  0.995622  0
H  H32  1  0.51145604  0.00182753  0.24226559  1  0  0.082793  0  0.93111  0  0  0.099963  0  0.992178  0  0  0.101019  0  0.992522  0  0.059832  0  0.096523  0.099133  0  0.992007  0
H  H33  1  0.75567849  0.49816672  0.25771877  1  0  0.084159  0  0.929207  0  0  0.101586  0  0.989866  0  0  0.102679  0  0.990243  0  0.047033  0  0.097365  0.10074  0  0.98969  0
H  H34  1  0.48854273  0.99817160  0.75773458  1  0  0.082785  0  0.931142  0  0  0.099969  0  0.992207  0  0  0.101025  0  0.992554  0  0.059837  0  0.09653  0.09914  0  0.992036  0
H  H35  1  0.24432364  0.50183507  0.74228121  1  0  0.084192  0  0.929132  0  0  0.101601  0  0.989818  0  0  0.102692  0  0.990197  0  0.046992  0  0.097378  0.100757  0  0.98964  0
H  H36  1  0.59192331  0.86710212  0.21767116  1  0  0.104601  0  0.934312  0  0  0.118655  0  0.997361  0  0  0.120974  0  0.996291  0  0.117539  0  0.103065  0.116904  0  0.998294  0
H  H37  1  0.67681658  0.63292052  0.28226274  1  0  0.104608  0  0.933738  0  0  0.118372  0  0.997306  0  0  0.120768  0  0.996187  0  0.089051  0  0.103184  0.116648  0  0.998136  0
H  H38  1  0.40807546  0.13289701  0.78232900  1  0  0.104636  0  0.934288  0  0  0.118652  0  0.997399  0  0  0.120984  0  0.996313  0  0.117562  0  0.103057  0.116901  0  0.998332  0
H  H39  1  0.32318555  0.36708127  0.71773723  1  0  0.104623  0  0.933785  0  0  0.118377  0  0.997358  0  0  0.120775  0  0.996236  0  0.089058  0  0.103164  0.116653  0  0.998189  0
H  H40  1  0.93942732  0.82022838  0.27807698  1  0  0.085842  0  0.902375  0  0  0.102546  0  0.954401  0  0  0.104065  0  0.954222  0  0.059097  0  0.112714  0.101397  0  0.954773  0
H  H41  1  0.03792267  0.67969406  0.22204970  1  0  0.086333  0  0.901254  0  0  0.102587  0  0.953644  0  0  0.104134  0  0.953385  0  0.044557  0  0.112653  0.10146  0  0.953985  0
H  H42  1  0.06057286  0.17976986  0.72192229  1  0  0.085849  0  0.902316  0  0  0.102568  0  0.954385  0  0  0.104088  0  0.954205  0  0.059119  0  0.112721  0.101425  0  0.954749  0
H  H43  1  0.96208133  0.32030684  0.77795052  1  0  0.086308  0  0.901236  0  0  0.102576  0  0.953624  0  0  0.104123  0  0.953366  0  0.044612  0  0.112655  0.101448  0  0.953967  0
H  H44  1  0.97468535  0.93883325  0.35527622  1  0  0.094141  0  0.904397  0  0  0.10641  0  0.958971  0  0  0.109018  0  0.957666  0  0.090149  0  0.115527  0.104574  0  0.959995  0
H  H45  1  0.26869435  0.56099608  0.14492402  1  0  0.094961  0  0.904589  0  0  0.107791  0  0.958688  0  0  0.110347  0  0.957487  0  0.073834  0  0.116345  0.10597  0  0.959682  0
H  H46  1  0.02531446  0.06116588  0.64472291  1  0  0.094172  0  0.904435  0  0  0.10645  0  0.959006  0  0  0.109062  0  0.957697  0  0.090814  0  0.115539  0.104614  0  0.960029  0
H  H47  1  0.73130778  0.43900571  0.85507595  1  0  0.094991  0  0.904614  0  0  0.107818  0  0.958701  0  0  0.110374  0  0.957499  0  0.073871  0  0.116347  0.105998  0  0.959693  0
H  H48  1  0.06768432  0.10845283  0.25176528  1  0  0.095403  0  0.927151  0  0  0.109358  0  0.990219  0  0  0.111892  0  0.988619  0  0.057827  0  0.100219  0.107506  0  0.991449  0
H  H49  1  0.42765368  0.39145274  0.24857069  1  0  0.094893  0  0.927599  0  0  0.109254  0  0.990539  0  0  0.111714  0  0.98901  0  0.072445  0  0.100209  0.107437  0  0.991725  0
H  H50  1  0.93231215  0.89154719  0.74823351  1  0  0.0954  0  0.927159  0  0  0.109334  0  0.990244  0  0  0.111867  0  0.988649  0  0.05832  0  0.100215  0.107484  0  0.99147  0
H  H51  1  0.57234584  0.60854816  0.75142926  1  0  0.094821  0  0.92758  0  0  0.109202  0  0.99053  0  0  0.111662  0  0.989002  0  0.07251  0  0.100199  0.107386  0  0.991715  0
H  H52  1  0.16134310  0.96694047  0.23561259  1  0  0.087879  0  0.918982  0  0  0.106428  0  0.977009  0  0  0.107769  0  0.976783  0  0.050424  0  0.100267  0.105374  0  0.977363  0
H  H53  1  0.36391705  0.53296600  0.26466590  1  0  0.087374  0  0.918945  0  0  0.106645  0  0.976412  0  0  0.107905  0  0.976274  0  0.034369  0  0.100501  0.105646  0  0.976705  0
H  H54  1  0.83865336  0.03305954  0.76438620  1  0  0.087895  0  0.918989  0  0  0.106445  0  0.977004  0  0  0.107788  0  0.976778  0  0.050366  0  0.100277  0.105391  0  0.977358  0
H  H55  1  0.63608619  0.46703312  0.73533454  1  0  0.087353  0  0.918978  0  0  0.106655  0  0.976433  0  0  0.107915  0  0.976293  0  0.033999  0  0.100513  0.105652  0  0.976725  0
C  C56  1  0.89756978  0.08306518  0.17102826  1  0  -0.131941  0  3.614264  0  0  -0.137303  0  3.853756  0  0  -0.142771  0  3.86668  0  -0.021809  0  -0.085583  -0.133624  0  3.844959  0
C  C57  1  0.15157381  0.41696897  0.32912089  1  0  -0.132658  0  3.61671  0  0  -0.137909  0  3.856365  0  0  -0.143387  0  3.869262  0  -0.017613  0  -0.085521  -0.134213  0  3.847529  0
C  C58  1  0.10242729  0.91693572  0.82897099  1  0  -0.131938  0  3.614316  0  0  -0.13723  0  3.853691  0  0  -0.142697  0  3.866618  0  -0.021798  0  -0.08559  -0.133554  0  3.844902  0
C  C59  1  0.84842861  0.58303104  0.67087826  1  0  -0.132651  0  3.616805  0  0  -0.137956  0  3.856521  0  0  -0.143442  0  3.86942  0  -0.017658  0  -0.085467  -0.134259  0  3.847688  0
C  C60  1  0.78756657  0.99337356  0.15924451  1  0  -0.12368  0  3.632395  0  0  -0.131349  0  3.870388  0  0  -0.136508  0  3.883757  0  -0.003693  0  -0.085433  -0.127918  0  3.861322  0
C  C61  1  0.94016910  0.50661183  0.34088849  1  0  -0.121959  0  3.631989  0  0  -0.131515  0  3.871654  0  0  -0.136627  0  3.885086  0  -0.001589  0  -0.086039  -0.128178  0  3.862737  0
C  C62  1  0.21243235  0.00662645  0.84075499  1  0  -0.123688  0  3.632462  0  0  -0.131335  0  3.870397  0  0  -0.136496  0  3.88377  0  -0.0038  0  -0.085408  -0.127907  0  3.861337  0
C  C63  1  0.05983303  0.49338996  0.65911148  1  0  -0.121996  0  3.632237  0  0  -0.131446  0  3.87172  0  0  -0.136532  0  3.885105  0  -0.001623  0  -0.086006  -0.128112  0  3.862808  0
C  C64  1  0.65314100  0.93590087  0.22826663  1  0  -0.131714  0  3.628568  0  0  -0.184115  0  3.887369  0  0  -0.184666  0  3.899873  0  -0.086552  0  -0.160615  -0.18342  0  3.878729  0
C  C65  1  0.81739593  0.56408009  0.27179268  1  0  -0.132903  0  3.624735  0  0  -0.185286  0  3.884239  0  0  -0.18607  0  3.896996  0  -0.040103  0  -0.16155  -0.184488  0  3.875485  0
C  C66  1  0.34685829  0.06409826  0.77173301  1  0  -0.131716  0  3.628588  0  0  -0.184113  0  3.887507  0  0  -0.184676  0  3.900013  0  -0.086559  0  -0.160602  -0.183418  0  3.878865  0
C  C67  1  0.18260508  0.43592081  0.72820736  1  0  -0.133024  0  3.624679  0  0  -0.185394  0  3.884151  0  0  -0.186181  0  3.896903  0  -0.040104  0  -0.161589  -0.184594  0  3.875398  0
C  C68  1  0.79232811  0.88308966  0.29302714  1  0  -0.113011  0  3.646837  0  0  -0.120229  0  3.88838  0  0  -0.125245  0  3.902799  0  0.000435  0  -0.082441  -0.116914  0  3.8787  0
C  C69  1  0.96855942  0.61682834  0.20709216  1  0  -0.113042  0  3.644857  0  0  -0.119635  0  3.885939  0  0  -0.124532  0  3.900198  0  -0.000145  0  -0.082311  -0.116367  0  3.876283  0
C  C70  1  0.20767058  0.11690858  0.70697204  1  0  -0.112915  0  3.646642  0  0  -0.120267  0  3.888493  0  0  -0.125281  0  3.902911  0  0.000431  0  -0.082424  -0.116954  0  3.878815  0
C  C71  1  0.03144554  0.38317256  0.79290867  1  0  -0.112818  0  3.644655  0  0  -0.119482  0  3.885792  0  0  -0.124376  0  3.90005  0  -0.000149  0  -0.082287  -0.116215  0  3.876137  0
C  C72  1  0.87239133  0.98023948  0.30905543  1  0  -0.121593  0  3.615637  0  0  -0.129549  0  3.860648  0  0  -0.134757  0  3.874175  0  -0.014002  0  -0.077521  -0.125941  0  3.851228  0
C  C73  1  0.16163254  0.51966699  0.19112343  1  0  -0.123492  0  3.61732  0  0  -0.132607  0  3.863687  0  0  -0.1378  0  3.877136  0  0.009353  0  -0.078708  -0.129025  0  3.854312  0
C  C74  1  0.12760848  0.01975965  0.69094369  1  0  -0.12166  0  3.615785  0  0  -0.129643  0  3.860875  0  0  -0.134854  0  3.874409  0  -0.014734  0  -0.077527  -0.126038  0  3.851452  0
C  C75  1  0.83837197  0.48033391  0.80887627  1  0  -0.123725  0  3.617415  0  0  -0.132808  0  3.863764  0  0  -0.138007  0  3.877227  0  0.009366  0  -0.07879  -0.129221  0  3.854394  0
C  C76  1  0.01518036  0.03616483  0.24185020  1  0  -0.120859  0  3.611452  0  0  -0.17595  0  3.876744  0  0  -0.175573  0  3.888037  0  -0.021399  0  -0.154383  -0.175986  0  3.868947  0
C  C77  1  0.29310640  0.46379394  0.25838742  1  0  -0.119108  0  3.61159  0  0  -0.175398  0  3.878289  0  0  -0.174849  0  3.889482  0  -0.031756  0  -0.154776  -0.175513  0  3.870506  0
C  C78  1  0.98481707  0.96383518  0.75814920  1  0  -0.120892  0  3.611555  0  0  -0.175952  0  3.876818  0  0  -0.175578  0  3.888115  0  -0.021871  0  -0.154383  -0.17599  0  3.869026  0
C  C79  1  0.70689699  0.53620607  0.74161234  1  0  -0.118939  0  3.611523  0  0  -0.1753  0  3.878325  0  0  -0.174755  0  3.889529  0  -0.03151  0  -0.15478  -0.175413  0  3.870537  0
C  C80  1  0.05067039  0.12200544  0.10364942  1  0  0.69617  0  3.783826  0  0  0.645159  0  4.084217  0  0  0.678906  0  4.075721  0  1.538038  0  0.221814  0.622312  0  4.089107  0
C  C81  1  0.27643427  0.37791520  0.39652357  1  0  0.700884  0  3.777187  0  0  0.648173  0  4.084267  0  0  0.68203  0  4.075672  0  1.538404  0  0.222813  0.625285  0  4.089175  0
C  C82  1  0.94933002  0.87799457  0.89635016  1  0  0.696086  0  3.78392  0  0  0.645076  0  4.084271  0  0  0.678823  0  4.075775  0  1.538016  0  0.221788  0.622231  0  4.089161  0
C  C83  1  0.72356398  0.62208392  0.60347712  1  0  0.700818  0  3.777314  0  0  0.648173  0  4.084312  0  0  0.682026  0  4.07572  0  1.538393  0  0.222832  0.62529  0  4.089219  0
C  C84  1  0.64630436  0.05297703  0.09633330  1  0  0.718978  0  3.788921  0  0  0.672873  0  4.084637  0  0  0.707371  0  4.074263  0  1.51446  0  0.219037  0.64949  0  4.090737  0
C  C85  1  0.79571905  0.44693209  0.40373565  1  0  0.717999  0  3.781091  0  0  0.671481  0  4.083837  0  0  0.705972  0  4.073527  0  1.516786  0  0.218516  0.64808  0  4.089918  0
C  C86  1  0.35369277  0.94702121  0.90366745  1  0  0.719082  0  3.788831  0  0  0.672992  0  4.084518  0  0  0.707492  0  4.074142  0  1.514597  0  0.219085  0.64961  0  4.090618  0
C  C87  1  0.20427787  0.55306792  0.59626428  1  0  0.717987  0  3.781184  0  0  0.671481  0  4.083868  0  0  0.705958  0  4.073572  0  1.516764  0  0.218549  0.64808  0  4.08995  0
C  C88  1  0.67981083  0.81030422  0.35991166  1  0  0.658722  0  3.868317  0  0  0.605165  0  4.184595  0  0  0.63837  0  4.177489  0  1.529771  0  0.193639  0.58268  0  4.188598  0
C  C89  1  0.85015892  0.68961999  0.14014267  1  0  0.6559  0  3.878459  0  0  0.605524  0  4.184602  0  0  0.638725  0  4.177514  0  1.495613  0  0.193846  0.583024  0  4.188616  0
C  C90  1  0.32018794  0.18969491  0.64008851  1  0  0.658897  0  3.86818  0  0  0.605339  0  4.184506  0  0  0.638544  0  4.1774  0  1.529745  0  0.19368  0.582853  0  4.188512  0
C  C91  1  0.14984529  0.31037914  0.85985837  1  0  0.655712  0  3.878704  0  0  0.605406  0  4.184761  0  0  0.638605  0  4.177677  0  1.495632  0  0.1938  0.582905  0  4.188775  0
C  C92  1  0.68157652  0.06593376  0.33747994  1  0  0.680572  0  3.733543  0  0  0.629778  0  4.042429  0  0  0.661892  0  4.034736  0  1.539188  0  0.242058  0.607896  0  4.047171  0
C  C93  1  0.08487495  0.43390087  0.16270732  1  0  0.681833  0  3.731445  0  0  0.631934  0  4.039832  0  0  0.664032  0  4.032134  0  1.542762  0  0.242713  0.610086  0  4.044552  0
C  C94  1  0.31841225  0.93406182  0.66252125  1  0  0.680511  0  3.733608  0  0  0.629835  0  4.042352  0  0  0.661941  0  4.034683  0  1.539552  0  0.24206  0.607962  0  4.047076  0
C  C95  1  0.91513856  0.56609737  0.83729441  1  0  0.681766  0  3.731849  0  0  0.63192  0  4.040147  0  0  0.664021  0  4.032443  0  1.542927  0  0.242717  0.610057  0  4.044895  0
O  O96  1  0.13317242  0.21057980  0.09441635  1  0  -0.677993  0  2.049947  0  0  -0.624163  0  2.289353  0  0  -0.649669  0  2.278462  0  -1.184012  0  -0.342007  -0.606281  0  2.295718  0
O  O97  1  0.43807630  0.28924242  0.40579573  1  0  -0.673419  0  2.05097  0  0  -0.626186  0  2.288704  0  0  -0.651767  0  2.277813  0  -1.182875  0  -0.343191  -0.608259  0  2.295045  0
O  O98  1  0.86682449  0.78942021  0.90558358  1  0  -0.677919  0  2.050042  0  0  -0.624093  0  2.289437  0  0  -0.6496  0  2.278549  0  -1.184028  0  -0.34199  -0.606213  0  2.295794  0
O  O99  1  0.56192411  0.71075760  0.59420385  1  0  -0.673422  0  2.05107  0  0  -0.6262  0  2.288767  0  0  -0.651782  0  2.277878  0  -1.182879  0  -0.34321  -0.608275  0  2.295103  0
O  O100  1  0.10115301  0.06581583  0.05442582  1  0  -0.701212  0  2.053734  0  0  -0.641884  0  2.292057  0  0  -0.667745  0  2.283204  0  -1.187828  0  -0.357174  -0.623673  0  2.297409  0
O  O101  1  0.22177193  0.43409861  0.44574565  1  0  -0.694754  0  2.056748  0  0  -0.641906  0  2.29335  0  0  -0.667788  0  2.284372  0  -1.188816  0  -0.357406  -0.623695  0  2.298759  0
O  O102  1  0.89884256  0.93418507  0.94557334  1  0  -0.701199  0  2.053696  0  0  -0.641896  0  2.292058  0  0  -0.667758  0  2.283205  0  -1.187806  0  -0.357197  -0.623677  0  2.297391  0
O  O103  1  0.77822611  0.56590229  0.55425421  1  0  -0.694701  0  2.056772  0  0  -0.641901  0  2.293376  0  0  -0.667775  0  2.284395  0  -1.188795  0  -0.357422  -0.623696  0  2.298777  0
O  O104  1  0.58574653  0.16456973  0.07572356  1  0  -0.659321  0  1.963086  0  0  -0.613548  0  2.19545  0  0  -0.637134  0  2.186393  0  -1.145837  0  -0.367108  -0.597157  0  2.201197  0
O  O105  1  0.82654248  0.33533318  0.42445318  1  0  -0.651438  0  1.964501  0  0  -0.61346  0  2.193538  0  0  -0.637043  0  2.184475  0  -1.142219  0  -0.366705  -0.597059  0  2.199305  0
O  O106  1  0.41425193  0.83542763  0.92427795  1  0  -0.659372  0  1.963073  0  0  -0.613592  0  2.195414  0  0  -0.637179  0  2.186357  0  -1.145887  0  -0.367126  -0.597197  0  2.201148  0
O  O107  1  0.17345838  0.66466683  0.57554753  1  0  -0.651415  0  1.964509  0  0  -0.613454  0  2.193532  0  0  -0.637035  0  2.18448  0  -1.142211  0  -0.366708  -0.597054  0  2.199298  0
O  O108  1  0.58133376  0.98897278  0.06517718  1  0  -0.831705  0  2.086596  0  0  -0.770991  0  2.349867  0  0  -0.797708  0  2.340103  0  -1.220865  0  -0.445113  -0.751867  0  2.355717  0
O  O109  1  0.63531282  0.51090000  0.43476576  1  0  -0.814595  0  2.09324  0  0  -0.769726  0  2.34943  0  0  -0.796499  0  2.339758  0  -1.21575  0  -0.444354  -0.750545  0  2.355225  0
O  O110  1  0.41866553  0.01102635  0.93482247  1  0  -0.83173  0  2.086493  0  0  -0.771023  0  2.349753  0  0  -0.797739  0  2.339986  0  -1.220797  0  -0.445121  -0.751901  0  2.355604  0
O  O111  1  0.36468744  0.48909913  0.56523450  1  0  -0.814561  0  2.093171  0  0  -0.769711  0  2.349374  0  0  -0.796482  0  2.33971  0  -1.21571  0  -0.444357  -0.750529  0  2.355169  0
O  O112  1  0.51052816  0.78039164  0.35417631  1  0  -0.657147  0  1.992903  0  0  -0.618096  0  2.23358  0  0  -0.641921  0  2.224859  0  -1.164069  0  -0.377354  -0.601467  0  2.239101  0
O  O113  1  0.64531172  0.71955385  0.14573962  1  0  -0.664988  0  1.989952  0  0  -0.619319  0  2.23235  0  0  -0.643145  0  2.223643  0  -1.126369  0  -0.378204  -0.60269  0  2.237872  0
O  O114  1  0.48946824  0.21960837  0.64582413  1  0  -0.657235  0  1.992911  0  0  -0.618104  0  2.233541  0  0  -0.64193  0  2.224824  0  -1.164032  0  -0.377351  -0.601475  0  2.239062  0
O  O115  1  0.35469301  0.28044528  0.85426090  1  0  -0.664941  0  1.990067  0  0  -0.619282  0  2.232411  0  0  -0.643109  0  2.223709  0  -1.126442  0  -0.37818  -0.602652  0  2.237932  0
O  O116  1  0.76197177  0.77436461  0.42248756  1  0  -0.723425  0  1.991422  0  0  -0.67679  0  2.227627  0  0  -0.701784  0  2.217399  0  -1.200215  0  -0.387591  -0.65914  0  2.234082  0
O  O117  1  0.95895629  0.72542393  0.07759988  1  0  -0.73044  0  1.991644  0  0  -0.676846  0  2.230019  0  0  -0.701852  0  2.219783  0  -1.20309  0  -0.387135  -0.659185  0  2.23648  0
O  O118  1  0.23803073  0.22563629  0.57751257  1  0  -0.723523  0  1.991318  0  0  -0.676901  0  2.227566  0  0  -0.701896  0  2.217336  0  -1.200258  0  -0.387643  -0.659251  0  2.234023  0
O  O119  1  0.04104799  0.27457520  0.92239951  1  0  -0.730391  0  1.991738  0  0  -0.676812  0  2.230072  0  0  -0.701819  0  2.219839  0  -1.203134  0  -0.387126  -0.659151  0  2.236532  0
O  O120  1  0.51329856  0.03611163  0.36982777  1  0  -0.574974  0  1.94896  0  0  -0.52979  0  2.162207  0  0  -0.551079  0  2.151798  0  -1.176757  0  -0.288104  -0.515073  0  2.169025  0
O  O121  1  0.91879924  0.46351994  0.13048100  1  0  -0.575716  0  1.947112  0  0  -0.530911  0  2.160191  0  0  -0.552171  0  2.149782  0  -1.17682  0  -0.288474  -0.516231  0  2.167009  0
O  O122  1  0.48670773  0.96388750  0.63017119  1  0  -0.575038  0  1.948738  0  0  -0.529902  0  2.161931  0  0  -0.551189  0  2.15153  0  -1.177073  0  -0.28815  -0.515185  0  2.168742  0
O  O123  1  0.08119472  0.53648362  0.86951822  1  0  -0.575531  0  1.947672  0  0  -0.530735  0  2.16072  0  0  -0.551992  0  2.150308  0  -1.176904  0  -0.288361  -0.516051  0  2.167547  0
O  O124  1  0.71503296  0.17287740  0.32646734  1  0  -0.539836  0  2.054903  0  0  -0.490967  0  2.26849  0  0  -0.513115  0  2.24997  0  -1.168341  0  -0.323703  -0.47554  0  2.278931  0
O  O125  1  0.21480816  0.32711419  0.17354781  1  0  -0.540115  0  2.053735  0  0  -0.491594  0  2.26704  0  0  -0.513721  0  2.248545  0  -1.169414  0  -0.324402  -0.476196  0  2.277531  0
O  O126  1  0.28496521  0.82712084  0.67353237  1  0  -0.539799  0  2.054959  0  0  -0.49098  0  2.268524  0  0  -0.513121  0  2.250007  0  -1.168382  0  -0.323706  -0.47556  0  2.278959  0
O  O127  1  0.78519376  0.67288937  0.82645134  1  0  -0.540091  0  2.053622  0  0  -0.49163  0  2.266932  0  0  -0.513758  0  2.248437  0  -1.1692  0  -0.32444  -0.476228  0  2.277417  0
O  O128  1  0.34880663  0.38245609  0.97238915  1  0  -0.877739  0  1.803873  0  0  -0.831804  0  1.974175  0  0  -0.848967  0  1.944802  0  -1.246276  0  -0.612754  -0.819456  0  1.99448  0
O  O129  1  0.70366862  0.11759313  0.52770342  1  0  -0.871766  0  1.810073  0  0  -0.833702  0  1.973763  0  0  -0.850864  0  1.94433  0  -1.235478  0  -0.6142  -0.821329  0  1.994192  0
O  O130  1  0.65119274  0.61754392  0.02761148  1  0  -0.877737  0  1.803904  0  0  -0.8318  0  1.974192  0  0  -0.848967  0  1.944819  0  -1.246207  0  -0.612753  -0.819453  0  1.994497  0
O  O131  1  0.29633238  0.88240511  0.47229977  1  0  -0.871621  0  1.810121  0  0  -0.83355  0  1.973857  0  0  -0.85072  0  1.944412  0  -1.235504  0  -0.614083  -0.821171  0  1.994272  0
O  O132  1  0.73136212  0.16306408  0.92604292  1  0  -0.92513  0  1.837662  0  0  -0.879269  0  2.033053  0  0  -0.898286  0  2.000856  0  -1.287188  0  -0.658049  -0.865545  0  2.055287  0
O  O133  1  0.82065521  0.33691243  0.57418806  1  0  -0.914947  0  1.847193  0  0  -0.877263  0  2.036557  0  0  -0.896371  0  2.004279  0  -1.291401  0  -0.657861  -0.863492  0  2.058844  0
O  O134  1  0.26864060  0.83693505  0.07395804  1  0  -0.925132  0  1.837635  0  0  -0.87927  0  2.033014  0  0  -0.898289  0  2.000818  0  -1.287198  0  -0.658052  -0.865545  0  2.055248  0
O  O135  1  0.17934550  0.66308670  0.42581333  1  0  -0.914967  0  1.847182  0  0  -0.8773  0  2.036556  0  0  -0.896408  0  2.004275  0  -1.291406  0  -0.657901  -0.86353  0  2.058847  0
