# generated using pymatgen
data_VCuH8C6N6OF3
_symmetry_space_group_name_H-M   'P 1'
_cell_length_a   6.10711159
_cell_length_b   12.39861471
_cell_length_c   13.76980000
_cell_angle_alpha   90.00000000
_cell_angle_beta   90.00000000
_cell_angle_gamma   101.34561960
_symmetry_Int_Tables_number   1
_chemical_formula_structural   VCuH8C6N6OF3
_chemical_formula_sum   'V4 Cu4 H32 C24 N24 O4 F12'
_cell_volume   1022.27041994
_cell_formula_units_Z   4
loop_
 _symmetry_equiv_pos_site_id
 _symmetry_equiv_pos_as_xyz
  1  'x, y, z'
loop_
 _atom_site_type_symbol
 _atom_site_label
 _atom_site_symmetry_multiplicity
 _atom_site_fract_x
 _atom_site_fract_y
 _atom_site_fract_z
 _atom_site_occupancy
 _atom_site_hle17_ddec_charge
 _atom_site_hle17_ddec_spin_density
 _atom_site_hle17_ddec_sum_bond_order
 _atom_site_hle17_magmom
 _atom_site_hse06_10hf_ddec_charge
 _atom_site_hse06_10hf_ddec_spin_density
 _atom_site_hse06_10hf_ddec_sum_bond_order
 _atom_site_hse06_10hf_magmom
 _atom_site_hse06_ddec_charge
 _atom_site_hse06_ddec_spin_density
 _atom_site_hse06_ddec_sum_bond_order
 _atom_site_hse06_magmom
 _atom_site_pbe_bader_charge
 _atom_site_pbe_bader_spin_density
 _atom_site_pbe_cm5_charge
 _atom_site_pbe_ddec_charge
 _atom_site_pbe_ddec_spin_density
 _atom_site_pbe_ddec_sum_bond_order
 _atom_site_pbe_magmom
V  V0  1  0.02757685  0.87624919  0.45862830  1  1.795458  1.310547  2.536856  1.278  1.812052  1.064938  2.939215  1.034  1.907604  1.110825  2.88691  1.079  2.067394  0.983384  1.241694  1.740339  1.022623  2.989832  0.991
V  V1  1  0.47243584  0.62375594  0.95862975  1  1.795284  1.310583  2.536768  1.278  1.811937  1.064972  2.938998  1.034  1.907368  1.110852  2.886903  1.079  2.067512  0.983414  1.241614  1.740106  1.022663  2.989872  0.991
V  V2  1  0.97243624  0.12375533  0.54136879  1  1.795401  -1.310473  2.536912  -1.278  1.811992  -1.064914  2.93928  -1.034  1.90752  -1.110795  2.886998  -1.079  2.067539  -0.98336  1.241692  1.740231  -1.022597  2.990029  -0.991
V  V3  1  0.52757037  0.37624775  0.04137315  1  1.795391  -1.310515  2.537031  -1.278  1.812032  -1.06492  2.939369  -1.034  1.907596  -1.1108  2.887048  -1.079  2.067523  -0.98336  1.241732  1.740346  -1.022603  2.989956  -0.991
Cu  Cu4  1  0.03264882  0.63183322  0.55773286  1  0.495076  -0.097051  1.981683  -0.055  0.352073  -0.040527  2.510487  -0.022  0.344924  -0.034701  2.468709  -0.018  0.753396  -0.024785  0.570823  0.361175  -0.043191  2.535309  -0.024
Cu  Cu5  1  0.46734651  0.86816944  0.05773069  1  0.495119  -0.097072  1.981694  -0.055  0.35213  -0.040534  2.510531  -0.022  0.34497  -0.034706  2.468753  -0.018  0.753379  -0.024788  0.570846  0.361233  -0.043195  2.535358  -0.024
Cu  Cu6  1  0.96734265  0.36817048  0.44226641  1  0.49511  0.097028  1.981604  0.055  0.352083  0.04051  2.510409  0.022  0.344916  0.034687  2.46861  0.018  0.753381  0.024774  0.57081  0.361173  0.043172  2.535205  0.024
Cu  Cu7  1  0.53265479  0.13183014  0.94227004  1  0.49519  0.097036  1.981698  0.055  0.35216  0.040513  2.510512  0.022  0.344971  0.034688  2.4687  0.018  0.753369  0.024774  0.570853  0.361262  0.043172  2.535299  0.024
H  H8  1  0.37065090  0.70502145  0.75386425  1  0.126846  -0.000198  0.971543  0.0  0.130758  0.000127  1.040184  0.0  0.136144  -4.1e-05  1.032623  0.0  0.245383  0.00039  0.135293  0.126379  0.000304  1.046187  0.0
H  H9  1  0.12933821  0.79498203  0.25385699  1  0.126933  -0.0002  0.971721  0.0  0.130766  0.000127  1.040399  0.0  0.136212  -4.3e-05  1.032762  0.0  0.245904  0.000391  0.135282  0.126382  0.000305  1.046406  0.0
H  H10  1  0.62933828  0.29498059  0.24613575  1  0.126956  0.000199  0.971452  0.0  0.130779  -0.000127  1.040176  0.0  0.136227  4.2e-05  1.032539  0.0  0.245332  -0.00039  0.135311  0.126401  -0.000304  1.046176  0.0
H  H11  1  0.87064049  0.20501837  0.74613575  1  0.126885  0.000199  0.971659  0.0  0.130744  -0.000127  1.040328  0.0  0.136169  4.2e-05  1.032716  0.0  0.245195  -0.000391  0.135305  0.126363  -0.000304  1.046328  0.0
H  H12  1  0.45510554  0.01477173  0.61336185  1  0.145671  -0.000181  0.943917  -0.001  0.148737  0.000138  1.00754  0.0  0.153475  0.000168  1.000398  0.0  0.259831  -0.000421  0.140983  0.14466  0.000158  1.013629  0.0
H  H13  1  0.04490984  0.48522394  0.11336984  1  0.145737  -0.00018  0.943878  -0.001  0.148778  0.000138  1.007515  0.0  0.153516  0.000168  1.000367  0.0  0.259975  -0.000421  0.141004  0.144703  0.000158  1.013604  0.0
H  H14  1  0.54491409  0.98522867  0.38663234  1  0.145661  0.00018  0.943945  0.001  0.14873  -0.000138  1.007548  0.0  0.153466  -0.000169  1.000406  0.0  0.25999  0.000421  0.141004  0.144653  -0.000159  1.013646  0.0
H  H15  1  0.95509866  0.51476906  0.88663379  1  0.145708  0.000181  0.943853  0.001  0.148782  -0.000138  1.007464  0.0  0.153517  -0.000169  1.000327  0.0  0.259926  0.000421  0.141012  0.144707  -0.000159  1.013552  0.0
H  H16  1  0.00630918  0.76323642  0.93980159  1  0.141992  -0.000544  0.911623  0.0  0.149717  -0.000424  0.968076  0.0  0.152452  -0.000435  0.964648  0.0  0.233  -2.8e-05  0.15362  0.147602  -0.000386  0.970607  0.0
H  H17  1  0.49368320  0.73676295  0.43981031  1  0.141982  -0.000545  0.911616  0.0  0.14974  -0.000424  0.968036  0.0  0.152477  -0.000435  0.964604  0.0  0.233549  -2.7e-05  0.153614  0.147621  -0.000386  0.970573  0.0
H  H18  1  0.99369211  0.23676316  0.06019841  1  0.141988  0.000545  0.91162  0.0  0.149714  0.000424  0.968077  0.0  0.15245  0.000435  0.964646  0.0  0.232992  2.7e-05  0.153626  0.147598  0.000386  0.970609  0.0
H  H19  1  0.50632006  0.26323745  0.56019042  1  0.14194  0.000544  0.911582  0.0  0.149711  0.000424  0.967976  0.0  0.152446  0.000435  0.964549  0.0  0.233568  2.7e-05  0.153608  0.147594  0.000385  0.97051  0.0
H  H20  1  0.13075885  0.06309555  0.78425322  1  0.136818  0.000334  0.99482  0.0  0.14452  0.000128  1.05641  0.0  0.149139  0.0002  1.050532  0.0  0.269774  -0.000326  0.131606  0.140786  5.7e-05  1.061033  0.0
H  H21  1  0.36925391  0.43690589  0.28425467  1  0.136873  0.000334  0.994783  0.0  0.144563  0.000128  1.056388  0.0  0.149188  0.000199  1.050488  0.0  0.269873  -0.000326  0.131628  0.14083  5.7e-05  1.061004  0.0
H  H22  1  0.86924474  0.93690568  0.21574751  1  0.136792  -0.000334  0.994916  0.0  0.144549  -0.000128  1.056434  0.0  0.14917  -0.000199  1.050552  0.0  0.269841  0.000326  0.131629  0.140805  -5.7e-05  1.061063  0.0
H  H23  1  0.63073854  0.56309205  0.71574751  1  0.136802  -0.000333  0.994866  0.0  0.144548  -0.000128  1.056404  0.0  0.149165  -0.0002  1.050527  0.0  0.269829  0.000325  0.131644  0.140816  -5.8e-05  1.061023  0.0
H  H24  1  0.57592521  0.91644966  0.84639791  1  0.084816  -5.9e-05  0.956526  0.0  0.09332  -5.9e-05  1.033308  0.0  0.096945  -0.000106  1.029556  0.0  0.106888  0.000196  0.111386  0.090472  2e-06  1.036284  0.0
H  H25  1  0.92407838  0.58355382  0.34639864  1  0.084786  -5.9e-05  0.956579  0.0  0.093314  -5.9e-05  1.033312  0.0  0.09693  -0.000106  1.029584  0.0  0.107059  0.000196  0.111372  0.090468  1e-06  1.036282  0.0
H  H26  1  0.42407380  0.08355239  0.15359991  1  0.084816  5.8e-05  0.956501  0.0  0.09335  5.9e-05  1.033226  0.0  0.096968  0.000106  1.029497  0.0  0.106854  -0.000195  0.111386  0.090502  -1e-06  1.036201  0.0
H  H27  1  0.07591210  0.41643917  0.65360063  1  0.084746  5.8e-05  0.956548  0.0  0.093262  6e-05  1.033385  0.0  0.096876  0.000106  1.029669  0.0  0.107004  -0.000196  0.111404  0.090419  -2e-06  1.03635  0.0
H  H28  1  0.70790206  0.00544737  0.75190126  1  0.099459  5e-05  0.928702  0.0  0.109235  -9.7e-05  0.999049  0.0  0.111645  -1.7e-05  0.995935  0.0  0.119832  -0.00033  0.120112  0.107188  -0.000185  1.001583  0.0
H  H29  1  0.79209603  0.49455489  0.25190635  1  0.099464  5e-05  0.928705  0.0  0.109256  -9.7e-05  0.999025  0.0  0.11167  -1.7e-05  0.995909  0.0  0.119909  -0.000329  0.120107  0.107196  -0.000185  1.001584  0.0
H  H30  1  0.29210087  0.99455221  0.24809583  1  0.099487  -5.1e-05  0.928685  0.0  0.109256  9.7e-05  0.999044  0.0  0.111671  1.7e-05  0.995925  0.0  0.119849  0.00033  0.120122  0.107195  0.000186  1.001609  0.0
H  H31  1  0.20789151  0.50544305  0.74808930  1  0.099339  -4.9e-05  0.928802  0.0  0.109197  9.7e-05  0.999118  0.0  0.111614  1.7e-05  0.996006  0.0  0.119818  0.000329  0.120077  0.107137  0.000185  1.001679  0.0
H  H32  1  0.77639112  0.76860975  0.79053145  1  0.106325  -0.000382  0.940994  0.0  0.117567  -0.000352  1.005066  0.0  0.119688  -0.00034  1.003173  0.0  0.127937  -6.6e-05  0.118668  0.115806  -0.000345  1.00657  0.0
H  H33  1  0.72361542  0.73139291  0.29054307  1  0.10631  -0.000383  0.94098  0.0  0.117529  -0.000352  1.005038  0.0  0.119652  -0.00034  1.003148  0.0  0.127991  -6.6e-05  0.118683  0.115758  -0.000344  1.006548  0.0
H  H34  1  0.22361051  0.23139065  0.20947000  1  0.106376  0.000382  0.940951  0.0  0.117601  0.000352  1.005021  0.0  0.119722  0.000339  1.003126  0.0  0.127938  6.7e-05  0.11867  0.115838  0.000345  1.006525  0.0
H  H35  1  0.27638261  0.26860667  0.70945765  1  0.106295  0.000383  0.941078  0.0  0.117518  0.000352  1.005111  0.0  0.119639  0.000339  1.003223  0.0  0.12797  6.6e-05  0.118669  0.115753  0.000344  1.006617  0.0
H  H36  1  0.91260029  0.86086954  0.69882206  1  0.102757  -3.2e-05  0.941302  0.0  0.108408  1e-05  1.012459  0.0  0.10908  -5.6e-05  1.012366  0.0  0.141804  9.1e-05  0.118946  0.107798  0.000113  1.012719  0.0
H  H37  1  0.58740659  0.63914217  0.19883005  1  0.102746  -3.1e-05  0.941202  0.0  0.108371  1e-05  1.012396  0.0  0.109049  -5.6e-05  1.012284  0.0  0.142014  9.2e-05  0.118923  0.107761  0.000113  1.012656  0.0
H  H38  1  0.08740232  0.13912922  0.30117867  1  0.102769  3.1e-05  0.941305  0.0  0.108406  -1e-05  1.012464  0.0  0.109076  5.6e-05  1.012368  0.0  0.141796  -9.2e-05  0.118952  0.107795  -0.000113  1.012726  0.0
H  H39  1  0.41258718  0.36085906  0.80117140  1  0.10283  3.1e-05  0.941138  0.0  0.108387  -1e-05  1.012392  0.0  0.109058  5.6e-05  1.01228  0.0  0.144043  -9.2e-05  0.118928  0.107776  -0.000113  1.012653  0.0
C  C40  1  0.35561307  0.76803639  0.70066305  1  0.154963  0.002819  3.585714  0.002  0.093404  0.002207  3.845026  0.001  0.107223  0.001788  3.851434  0.001  0.942065  0.003115  0.156147  0.083871  0.002887  3.842129  0.002
C  C41  1  0.14437605  0.73197121  0.20066813  1  0.154618  0.002818  3.585314  0.002  0.093198  0.002206  3.844649  0.001  0.106978  0.001793  3.851003  0.001  0.941142  0.003118  0.156047  0.083659  0.00289  3.841766  0.002
C  C42  1  0.64438103  0.23196566  0.29933332  1  0.154802  -0.002813  3.585535  -0.002  0.093363  -0.002205  3.844875  -0.001  0.10714  -0.001791  3.851229  -0.001  0.94186  -0.003115  0.15611  0.083828  -0.002887  3.841975  -0.002
C  C43  1  0.85560625  0.26803001  0.79933260  1  0.154906  -0.002815  3.585448  -0.002  0.093447  -0.002205  3.844752  -0.001  0.107239  -0.001789  3.851122  -0.001  0.941967  -0.003116  0.1561  0.083909  -0.002888  3.841865  -0.002
C  C44  1  0.39306032  0.92860712  0.63000697  1  0.227097  0.016727  3.553608  0.013  0.161011  0.014597  3.83441  0.011  0.180905  0.010822  3.839026  0.008  0.985089  0.022707  0.178229  0.146284  0.020829  3.833055  0.016
C  C45  1  0.10695138  0.57139554  0.13001206  1  0.226887  0.016711  3.55392  0.013  0.160885  0.014585  3.834634  0.011  0.180783  0.010814  3.83924  0.008  0.985317  0.022685  0.178254  0.146154  0.02081  3.833276  0.016
C  C46  1  0.60694949  0.07139329  0.36998867  1  0.22705  -0.016724  3.553572  -0.013  0.161011  -0.014596  3.834348  -0.011  0.180908  -0.010822  3.838949  -0.008  0.984996  -0.022704  0.178216  0.146268  -0.020827  3.833016  -0.016
C  C47  1  0.89305581  0.42860650  0.86999158  1  0.227054  -0.016722  3.55339  -0.013  0.160968  -0.014594  3.834205  -0.011  0.180858  -0.01082  3.838826  -0.008  0.985059  -0.022703  0.178218  0.146242  -0.020825  3.832849  -0.016
C  C48  1  0.07658851  0.84751353  0.92019710  1  0.198154  -0.000552  3.570099  0.0  0.134408  -0.000676  3.836206  0.0  0.146958  -0.000621  3.847734  0.0  0.969952  -0.000341  0.170659  0.126152  -0.000713  3.828765  0.0
C  C49  1  0.42340681  0.65248502  0.42020291  1  0.198153  -0.000552  3.570013  0.0  0.134398  -0.000678  3.836133  0.0  0.146949  -0.000617  3.847652  0.0  0.969296  -0.000342  0.170691  0.126141  -0.000714  3.82869  0.0
C  C50  1  0.92340984  0.15248687  0.07980218  1  0.198219  0.000549  3.569997  0.0  0.134485  0.000677  3.836107  0.0  0.147038  0.000619  3.847622  0.0  0.969954  0.000343  0.170716  0.126227  0.000714  3.828667  0.0
C  C51  1  0.57659842  0.34752032  0.57979782  1  0.198271  0.000552  3.570321  0.0  0.134493  0.000676  3.836411  0.0  0.14704  0.000619  3.847937  0.0  0.969439  0.000342  0.170764  0.126237  0.000713  3.828965  0.0
C  C52  1  0.13871046  0.00333324  0.84157431  1  0.145845  0.000545  3.597602  0.001  0.079787  0.000216  3.863339  0.0  0.09025  9.4e-05  3.875487  0.0  0.912846  0.000279  0.152051  0.073077  0.000344  3.855534  0.0
C  C53  1  0.36129642  0.49666984  0.34157795  1  0.145667  0.000548  3.597884  0.001  0.079638  0.000215  3.863623  0.0  0.090102  9.5e-05  3.875757  0.0  0.912881  0.00028  0.151952  0.072932  0.000345  3.855802  0.0
C  C54  1  0.86129182  0.99666880  0.15842569  1  0.145763  -0.000548  3.597773  -0.001  0.079663  -0.000216  3.863508  0.0  0.090131  -9.6e-05  3.875651  0.0  0.912803  -0.000278  0.151972  0.072952  -0.000343  3.855715  0.0
C  C55  1  0.63869702  0.50333057  0.65842569  1  0.145735  -0.000548  3.597786  -0.001  0.079655  -0.000216  3.863509  0.0  0.090118  -9.4e-05  3.875665  0.0  0.91279  -0.00028  0.151915  0.072947  -0.000345  3.855695  0.0
C  C56  1  0.64750347  0.91955175  0.77317318  1  -0.014994  -0.000321  3.592684  0.0  -0.081952  -0.000272  3.853488  0.0  -0.078567  -0.000252  3.862468  0.0  0.275454  -0.000281  -0.046289  -0.083905  -0.000273  3.847599  0.0
C  C57  1  0.85250307  0.58045503  0.27317899  1  -0.015023  -0.000323  3.592643  0.0  -0.082046  -0.000271  3.853496  0.0  -0.078693  -0.000251  3.862537  0.0  0.275238  -0.000281  -0.04624  -0.083999  -0.000272  3.847594  0.0
C  C58  1  0.35249816  0.08044865  0.22682537  1  -0.015078  0.000327  3.592677  0.0  -0.082048  0.000271  3.853507  0.0  -0.078672  0.000249  3.862482  0.0  0.275431  0.000281  -0.046297  -0.084004  0.000272  3.847613  0.0
C  C59  1  0.14748873  0.41954538  0.72682029  1  -0.014722  0.000322  3.592402  0.0  -0.081944  0.000271  3.853533  0.0  -0.078574  0.00025  3.862521  0.0  0.275385  0.000281  -0.046286  -0.083904  0.000272  3.84764  0.0
C  C60  1  0.83679489  0.85528068  0.77125448  1  -0.024116  -0.00027  3.573762  0.0  -0.082028  -0.000173  3.823639  0.0  -0.079088  -0.000224  3.835703  0.0  0.247495  -2.5e-05  -0.044074  -0.083744  -9.3e-05  3.81556  0.0
C  C61  1  0.66321296  0.64472527  0.27126393  1  -0.024047  -0.000271  3.57365  0.0  -0.08184  -0.000174  3.823382  0.0  -0.078898  -0.000226  3.835451  0.0  0.247224  -2.5e-05  -0.044104  -0.083563  -9.3e-05  3.815321  0.0
C  C62  1  0.16320673  0.14471972  0.22874624  1  -0.024224  0.000272  3.573801  0.0  -0.082043  0.000173  3.823549  0.0  -0.079122  0.000226  3.835663  0.0  0.247489  2.6e-05  -0.044108  -0.083755  9.4e-05  3.815471  0.0
C  C63  1  0.33678539  0.35527102  0.72873753  1  -0.024198  0.00027  3.573533  0.0  -0.081871  0.000173  3.823284  0.0  -0.078919  0.000225  3.835354  0.0  0.245166  2.5e-05  -0.044057  -0.083589  9.3e-05  3.81522  0.0
N  N64  1  0.21075620  0.75774298  0.62834464  1  -0.225795  -0.003505  3.303676  -0.002  -0.165991  0.000507  3.640176  0.002  -0.167728  -0.000667  3.642256  0.0  -0.790636  0.004006  -0.282523  -0.165912  0.002569  3.639201  0.004
N  N65  1  0.28924797  0.74225721  0.12834101  1  -0.225625  -0.003497  3.303187  -0.002  -0.165969  0.000507  3.639806  0.002  -0.167705  -0.000663  3.641891  0.0  -0.790289  0.004008  -0.282494  -0.165892  0.002571  3.638837  0.004
N  N66  1  0.78924641  0.24225989  0.37165536  1  -0.225758  0.003496  3.303548  0.002  -0.16604  -0.000509  3.640104  -0.002  -0.167771  0.000665  3.642179  0.0  -0.790477  -0.004007  -0.282558  -0.165955  -0.002571  3.639109  -0.004
N  N67  1  0.71074481  0.25774154  0.87165754  1  -0.225847  0.003499  3.303479  0.002  -0.166118  -0.000508  3.640026  -0.002  -0.167842  0.000664  3.642085  0.0  -0.790427  -0.004007  -0.282554  -0.166038  -0.00257  3.639056  -0.004
N  N68  1  0.23331923  0.86020733  0.58400630  1  -0.329708  -0.00904  3.1909  -0.023  -0.31281  0.00061  3.504836  -0.015  -0.334109  -0.000913  3.520407  -0.015  -0.788912  0.005431  -0.295509  -0.299447  0.00306  3.497146  -0.014
N  N69  1  0.26668526  0.63978957  0.08401139  1  -0.329622  -0.009038  3.190902  -0.023  -0.312714  0.000612  3.504824  -0.015  -0.333996  -0.000912  3.5204  -0.015  -0.788926  0.005432  -0.295518  -0.299326  0.00306  3.497133  -0.014
N  N70  1  0.76668600  0.13979389  0.41598934  1  -0.329718  0.009042  3.190958  0.023  -0.312807  -0.000608  3.504884  0.015  -0.334104  0.000915  3.52045  0.015  -0.788843  -0.005433  -0.295476  -0.299433  -0.003061  3.497201  0.014
N  N71  1  0.73331636  0.36020672  0.91599152  1  -0.329646  0.00904  3.190826  0.023  -0.312713  -0.000609  3.50475  0.015  -0.334015  0.000914  3.520321  0.015  -0.788949  -0.005434  -0.295469  -0.299354  -0.003063  3.497056  0.014
N  N72  1  0.47288839  0.87386607  0.70375677  1  -0.075079  -0.000523  3.489131  -0.001  0.021956  0.001681  3.709226  0.001  0.005335  0.001063  3.731253  0.001  -1.241751  0.004387  -0.228032  0.03259  0.002508  3.69527  0.001
N  N73  1  0.02711480  0.62613166  0.20375677  1  -0.07487  -0.000524  3.489099  -0.001  0.022127  0.00168  3.70914  0.001  0.005508  0.00106  3.731179  0.001  -1.242015  0.004386  -0.228027  0.032767  0.002506  3.695182  0.001
N  N74  1  0.52711357  0.12613516  0.29623960  1  -0.074965  0.000522  3.489069  0.001  0.022023  -0.001681  3.709143  -0.001  0.005409  -0.001061  3.731173  -0.001  -1.241752  -0.004385  -0.228035  0.032662  -0.002506  3.695189  -0.001
N  N75  1  0.97288092  0.37386216  0.79623960  1  -0.075131  0.000523  3.488828  0.001  0.021936  -0.001681  3.708997  -0.001  0.005323  -0.001061  3.731037  -0.001  -1.241624  -0.004386  -0.22807  0.032573  -0.002507  3.695041  -0.001
N  N76  1  0.24364501  0.91336978  0.96440399  1  -0.24956  -0.001245  3.220903  -0.001  -0.198414  -0.000656  3.551505  -0.001  -0.205068  -0.000623  3.554668  -0.001  -0.775685  -0.000711  -0.277557  -0.194835  -0.000634  3.549771  -0.001
N  N77  1  0.25634999  0.58662794  0.46440616  1  -0.249493  -0.001243  3.220775  -0.001  -0.19837  -0.000653  3.551398  -0.001  -0.205023  -0.000619  3.554562  -0.001  -0.775708  -0.000713  -0.277596  -0.194794  -0.000635  3.549654  -0.001
N  N78  1  0.75635498  0.08663062  0.03559747  1  -0.249513  0.001245  3.220931  0.001  -0.198392  0.000654  3.551541  0.001  -0.205034  0.000621  3.554683  0.001  -0.775692  0.000713  -0.277568  -0.19481  0.000635  3.549799  0.001
N  N79  1  0.74364017  0.41337246  0.53559747  1  -0.24959  0.001245  3.221257  0.001  -0.198399  0.000654  3.551803  0.001  -0.205045  0.000622  3.554958  0.001  -0.775832  0.000713  -0.277597  -0.194818  0.000635  3.55005  0.001
N  N80  1  0.28286229  0.01289452  0.91411640  1  -0.238042  0.001031  3.329315  0.001  -0.178589  0.000428  3.669739  0.0  -0.183407  0.00044  3.671009  0.0  -0.769075  0.000393  -0.292134  -0.176291  0.000418  3.669072  0.0
N  N81  1  0.21713607  0.48710362  0.41411713  1  -0.237984  0.00103  3.329285  0.001  -0.178512  0.000429  3.669674  0.0  -0.183338  0.000441  3.670962  0.0  -0.769172  0.000394  -0.292085  -0.176211  0.000418  3.668986  0.0
N  N82  1  0.71713606  0.98710588  0.08588433  1  -0.238014  -0.00103  3.329272  -0.001  -0.178543  -0.00043  3.669699  0.0  -0.183375  -0.000441  3.670997  0.0  -0.76907  -0.000393  -0.292091  -0.176247  -0.000418  3.669039  0.0
N  N83  1  0.78286130  0.51289842  0.58588360  1  -0.237973  -0.001031  3.329276  -0.001  -0.178524  -0.000427  3.669681  0.0  -0.183359  -0.000439  3.670981  0.0  -0.768954  -0.000394  -0.292096  -0.176228  -0.000419  3.669009  0.0
N  N84  1  0.00774869  0.90052708  0.84266801  1  -0.070648  -0.000121  3.501556  0.0  0.025322  -8.5e-05  3.723754  0.0  0.007651  -0.000107  3.750498  0.0  -1.230474  3e-06  -0.226848  0.036963  -6.6e-05  3.705535  0.0
N  N85  1  0.49225352  0.59947229  0.34267310  1  -0.070608  -0.00012  3.501732  0.0  0.025299  -8.5e-05  3.723908  0.0  0.007632  -0.000108  3.750642  0.0  -1.230428  4e-06  -0.226804  0.03694  -6.5e-05  3.705685  0.0
N  N86  1  0.99225261  0.09947250  0.15733271  1  -0.07064  0.00012  3.501512  0.0  0.025301  8.5e-05  3.723711  0.0  0.007631  0.000108  3.750441  0.0  -1.230472  -3e-06  -0.22688  0.036942  6.5e-05  3.705492  0.0
N  N87  1  0.50774483  0.40052812  0.65732763  1  -0.070604  0.00012  3.501656  0.0  0.025303  8.5e-05  3.7238  0.0  0.007635  0.000106  3.750535  0.0  -1.230472  -4e-06  -0.226825  0.036945  6.4e-05  3.705579  0.0
O  O88  1  0.90242750  0.74832730  0.47908829  1  -0.778053  -0.231517  1.576698  -0.238  -0.790801  -0.097472  1.920352  -0.103  -0.822767  -0.122434  1.900723  -0.129  -0.882036  -0.086924  -0.625691  -0.768354  -0.081169  1.934823  -0.086
O  O89  1  0.59757969  0.75167700  0.97909410  1  -0.777906  -0.231528  1.57661  -0.238  -0.790679  -0.097477  1.920264  -0.103  -0.822613  -0.122439  1.900666  -0.129  -0.882125  -0.08692  -0.625653  -0.768203  -0.081172  1.934768  -0.086
O  O90  1  0.09757150  0.25167474  0.52090953  1  -0.777967  0.231478  1.576712  0.238  -0.790713  0.097458  1.920355  0.103  -0.822668  0.122415  1.900723  0.129  -0.882065  0.086904  -0.625693  -0.768246  0.081157  1.934825  0.086
O  O91  1  0.40242161  0.24832669  0.02091316  1  -0.778029  0.231508  1.576657  0.238  -0.790791  0.097469  1.92028  0.103  -0.822759  0.122424  1.900642  0.129  -0.882102  0.086915  -0.625747  -0.768343  0.081166  1.934737  0.086
F  F92  1  0.27588128  0.86315559  0.38001787  1  -0.637349  0.009437  0.800343  0.0  -0.606863  0.022246  0.978108  0.013  -0.632425  0.019504  0.960605  0.011  -0.713256  0.028909  -0.388039  -0.586352  0.024576  0.990988  0.015
F  F93  1  0.22412911  0.63684378  0.88001932  1  -0.637364  0.009437  0.800404  0.0  -0.606885  0.022246  0.978136  0.013  -0.632418  0.019505  0.960653  0.011  -0.713278  0.028909  -0.38804  -0.586346  0.024575  0.991037  0.015
F  F94  1  0.72413442  0.13684316  0.61997996  1  -0.637381  -0.009442  0.800395  0.0  -0.606876  -0.022249  0.978138  -0.013  -0.632431  -0.019507  0.960636  -0.011  -0.713258  -0.028913  -0.388043  -0.586349  -0.02458  0.991026  -0.015
F  F95  1  0.77586466  0.36315745  0.11998286  1  -0.637329  -0.009442  0.800414  0.0  -0.606849  -0.022251  0.978191  -0.013  -0.632419  -0.019509  0.960691  -0.011  -0.713328  -0.028917  -0.388028  -0.586335  -0.02458  0.991063  -0.015
F  F96  1  0.87688661  0.90030662  0.34179291  1  -0.646091  0.011844  0.811519  0.002  -0.612916  0.021781  0.989917  0.013  -0.637795  0.019992  0.972427  0.011  -0.728168  0.027192  -0.392146  -0.592673  0.022924  1.002526  0.014
F  F97  1  0.62313466  0.59969604  0.84179654  1  -0.646108  0.011843  0.811561  0.002  -0.612917  0.021781  0.989909  0.013  -0.637738  0.01999  0.972396  0.011  -0.728209  0.027192  -0.392147  -0.592741  0.022926  1.002652  0.014
F  F98  1  0.12313139  0.09969378  0.65820201  1  -0.646126  -0.011842  0.811541  -0.002  -0.612908  -0.021779  0.989896  -0.013  -0.637766  -0.019988  0.97239  -0.011  -0.728196  -0.027189  -0.392158  -0.592742  -0.022925  1.002627  -0.014
F  F99  1  0.37686958  0.40030272  0.15820782  1  -0.646169  -0.011843  0.811554  -0.002  -0.612946  -0.021779  0.989916  -0.013  -0.637803  -0.019988  0.972394  -0.011  -0.728211  -0.02719  -0.392157  -0.592794  -0.022923  1.002629  -0.014
F  F100  1  0.82135004  0.95287514  0.53293149  1  -0.671851  0.010944  0.841601  0.003  -0.65196  0.021281  1.042111  0.011  -0.678518  0.018537  1.025556  0.01  -0.738198  0.024328  -0.401334  -0.629598  0.023425  1.054716  0.013
F  F101  1  0.67865976  0.54712341  0.03294238  1  -0.671863  0.010936  0.841618  0.003  -0.651957  0.021272  1.042085  0.011  -0.678505  0.018529  1.02555  0.009  -0.738182  0.024321  -0.401317  -0.62958  0.023416  1.054694  0.013
F  F102  1  0.17866468  0.04712937  0.46706415  1  -0.671849  -0.010943  0.841577  -0.003  -0.651963  -0.021279  1.042076  -0.011  -0.678518  -0.018535  1.025521  -0.01  -0.73813  -0.024326  -0.401338  -0.629598  -0.023424  1.054684  -0.013
F  F103  1  0.32134415  0.45287042  0.96706996  1  -0.671844  -0.010945  0.841608  -0.003  -0.651957  -0.021282  1.042089  -0.011  -0.678509  -0.018539  1.025548  -0.01  -0.738134  -0.024332  -0.401352  -0.629583  -0.023428  1.054692  -0.013
