# generated using pymatgen
data_LaH15C22S2(NO4)2
_symmetry_space_group_name_H-M   'P 1'
_cell_length_a   8.90427850
_cell_length_b   11.98725682
_cell_length_c   12.81195341
_cell_angle_alpha   104.97181993
_cell_angle_beta   108.35619704
_cell_angle_gamma   101.32019920
_symmetry_Int_Tables_number   1
_chemical_formula_structural   LaH15C22S2(NO4)2
_chemical_formula_sum   'La2 H30 C44 S4 N4 O16'
_cell_volume   1195.00575365
_cell_formula_units_Z   2
loop_
 _symmetry_equiv_pos_site_id
 _symmetry_equiv_pos_as_xyz
  1  'x, y, z'
loop_
 _atom_site_type_symbol
 _atom_site_label
 _atom_site_symmetry_multiplicity
 _atom_site_fract_x
 _atom_site_fract_y
 _atom_site_fract_z
 _atom_site_occupancy
 _atom_site_hle17_bader_spin_density
 _atom_site_hle17_ddec_charge
 _atom_site_hle17_ddec_spin_density
 _atom_site_hle17_ddec_sum_bond_order
 _atom_site_hle17_magmom
 _atom_site_hse06_10hf_bader_spin_density
 _atom_site_hse06_10hf_ddec_charge
 _atom_site_hse06_10hf_ddec_spin_density
 _atom_site_hse06_10hf_ddec_sum_bond_order
 _atom_site_hse06_10hf_magmom
 _atom_site_hse06_bader_spin_density
 _atom_site_hse06_ddec_charge
 _atom_site_hse06_ddec_spin_density
 _atom_site_hse06_ddec_sum_bond_order
 _atom_site_hse06_magmom
 _atom_site_pbe_bader_spin_density
 _atom_site_pbe_cm5_charge
 _atom_site_pbe_ddec_charge
 _atom_site_pbe_ddec_spin_density
 _atom_site_pbe_ddec_sum_bond_order
 _atom_site_pbe_magmom
La  La0  1  0.54371895  0.42358119  0.35667746  1  0  2.041123  0  1.859845  0  0  1.914084  0  2.37539  0  0  2.007316  0  2.290032  0  0  1.437655  1.844286  0  2.434582  0
La  La1  1  0.45628304  0.57642124  0.64332493  1  0  2.041048  0  1.859922  0  0  1.913952  0  2.375545  0  0  2.007193  0  2.29017  0  0  1.437616  1.844143  0  2.434742  0
H  H2  1  0.88556551  0.30528886  0.77621816  1  0  0.100471  0  0.959611  0  0  0.109669  0  1.025785  0  0  0.112817  0  1.023374  0  0  0.1038  0.10741  0  1.027505  0
H  H3  1  0.11444192  0.69470917  0.22378126  1  0  0.10042  0  0.959594  0  0  0.109576  0  1.025843  0  0  0.112732  0  1.023411  0  0  0.103782  0.10732  0  1.027555  0
H  H4  1  0.81290950  0.12274291  0.84215196  1  0  0.118491  0  0.927381  0  0  0.130245  0  0.982414  0  0  0.133852  0  0.979917  0  0  0.11211  0.12752  0  0.984416  0
H  H5  1  0.18708786  0.87725473  0.15785828  1  0  0.118507  0  0.927306  0  0  0.130253  0  0.982359  0  0  0.133858  0  0.979862  0  0  0.112105  0.127487  0  0.984392  0
H  H6  1  0.32980437  0.85947837  0.65056487  1  0  0.094083  0  0.959237  0  0  0.103415  0  1.024169  0  0  0.106486  0  1.021814  0  0  0.108879  0.101205  0  1.025825  0
H  H7  1  0.67019224  0.14051950  0.34943511  1  0  0.094053  0  0.959256  0  0  0.103366  0  1.024235  0  0  0.106445  0  1.021869  0  0  0.108839  0.101161  0  1.02589  0
H  H8  1  0.24999824  0.98161909  0.52224893  1  0  0.082547  0  0.980491  0  0  0.093501  0  1.045792  0  0  0.095751  0  1.045397  0  0  0.097343  0.091892  0  1.046176  0
H  H9  1  0.75000691  0.01838245  0.47775475  1  0  0.082571  0  0.980419  0  0  0.093523  0  1.045714  0  0  0.095774  0  1.045319  0  0  0.097355  0.091898  0  1.046115  0
H  H10  1  0.30351004  0.16755870  0.48045408  1  0  0.12023  0  0.927274  0  0  0.133225  0  0.983918  0  0  0.136866  0  0.982389  0  0  0.110556  0.130548  0  0.985317  0
H  H11  1  0.69649451  0.83243557  0.51954918  1  0  0.120265  0  0.927291  0  0  0.133264  0  0.983922  0  0  0.136906  0  0.982392  0  0  0.110572  0.130592  0  0.985315  0
H  H12  1  0.93048510  0.63170547  0.49767399  1  0  0.093467  0  0.942476  0  0  0.099675  0  1.005937  0  0  0.102931  0  1.002353  0  0  0.126098  0.0972  0  1.008701  0
H  H13  1  0.06951803  0.36829001  0.50231597  1  0  0.093504  0  0.942418  0  0  0.099692  0  1.005894  0  0  0.10295  0  1.002306  0  0  0.126089  0.097212  0  1.008672  0
H  H14  1  0.10507694  0.82999745  0.51655921  1  0  0.098373  0  0.987392  0  0  0.111945  0  1.044034  0  0  0.114268  0  1.04404  0  0  0.107313  0.110298  0  1.044119  0
H  H15  1  0.89493195  0.16999451  0.48342886  1  0  0.098533  0  0.987294  0  0  0.112034  0  1.044014  0  0  0.114356  0  1.044021  0  0  0.107335  0.110387  0  1.0441  0
H  H16  1  0.00808548  0.92187943  0.36030740  1  0  0.095224  0  0.931821  0  0  0.110104  0  0.986367  0  0  0.112889  0  0.984568  0  0  0.110657  0.108047  0  0.987743  0
H  H17  1  0.99192080  0.07812138  0.63968934  1  0  0.095232  0  0.931868  0  0  0.110095  0  0.986422  0  0  0.112891  0  0.984608  0  0  0.110674  0.108036  0  0.987796  0
H  H18  1  0.78620140  0.90736911  0.17369351  1  0  0.115465  0  0.922009  0  0  0.129799  0  0.972103  0  0  0.132946  0  0.971109  0  0  0.114754  0.127485  0  0.972915  0
H  H19  1  0.21380262  0.09263173  0.82630036  1  0  0.115476  0  0.921951  0  0  0.129815  0  0.972045  0  0  0.132963  0  0.971052  0  0  0.114737  0.127496  0  0.972857  0
H  H20  1  0.50737082  0.80253145  0.02033314  1  0  0.120927  0  0.96755  0  0  0.128968  0  1.029077  0  0  0.132518  0  1.027236  0  0  0.109691  0.12627  0  1.030635  0
H  H21  1  0.49263346  0.19747301  0.97966171  1  0  0.120907  0  0.967617  0  0  0.128966  0  1.029117  0  0  0.132517  0  1.027277  0  0  0.109704  0.126268  0  1.030684  0
H  H22  1  0.24494562  0.62557818  0.93010425  1  0  0.110555  0  0.93747  0  0  0.124356  0  0.991017  0  0  0.127427  0  0.988455  0  0  0.11669  0.122052  0  0.99297  0
H  H23  1  0.75505378  0.37442894  0.06989091  1  0  0.110521  0  0.937565  0  0  0.124291  0  0.991157  0  0  0.127349  0  0.988597  0  0  0.116677  0.121988  0  0.993115  0
H  H24  1  0.09118668  0.42791333  0.92868408  1  0  0.102699  0  0.961666  0  0  0.112994  0  1.022114  0  0  0.115893  0  1.02151  0  0  0.105372  0.110895  0  1.022698  0
H  H25  1  0.90880623  0.57209548  0.07131234  1  0  0.102671  0  0.961559  0  0  0.112966  0  1.022015  0  0  0.115863  0  1.021407  0  0  0.105388  0.110855  0  1.022616  0
H  H26  1  0.22495631  0.34530090  0.08377387  1  0  0.093214  0  0.914228  0  0  0.104007  0  0.969581  0  0  0.106738  0  0.966892  0  0  0.130285  0.101882  0  0.971745  0
H  H27  1  0.77503573  0.65470880  0.91622335  1  0  0.093282  0  0.914147  0  0  0.104081  0  0.96949  0  0  0.106815  0  0.966797  0  0  0.130342  0.101907  0  0.97171  0
H  H28  1  0.83185980  0.38461867  0.26652373  1  0  0.444937  0  0.842423  0  0  0.41533  0  0.902797  0  0  0.426405  0  0.88658  0  0  0.304185  0.407379  0  0.91443  0
H  H29  1  0.16813858  0.61537819  0.73348186  1  0  0.444952  0  0.842377  0  0  0.415339  0  0.902766  0  0  0.426415  0  0.886545  0  0  0.304176  0.407383  0  0.914404  0
H  H30  1  0.67780126  0.25707817  0.21007116  1  0  0.43519  0  0.86368  0  0  0.405631  0  0.924491  0  0  0.417095  0  0.907871  0  0  0.299156  0.39743  0  0.936335  0
H  H31  1  0.32219488  0.74291874  0.78993081  1  0  0.435162  0  0.863729  0  0  0.405607  0  0.924534  0  0  0.41707  0  0.907916  0  0  0.299116  0.397401  0  0.936383  0
C  C32  1  0.70182644  0.34538731  0.64959146  1  0  -0.246591  0  3.746716  0  0  -0.228636  0  4.009392  0  0  -0.240264  0  4.03098  0  0  -0.028304  -0.221023  0  3.994911  0
C  C33  1  0.29817743  0.65460793  0.35040876  1  0  -0.246458  0  3.746882  0  0  -0.228505  0  4.009541  0  0  -0.240137  0  4.031132  0  0  -0.028246  -0.220899  0  3.995064  0
C  C34  1  0.75701804  0.27522621  0.71429940  1  0  -0.07921  0  3.7396  0  0  -0.117211  0  4.001571  0  0  -0.112909  0  4.019907  0  0  -0.083523  -0.119945  0  3.989244  0
C  C35  1  0.24298417  0.72476806  0.28570253  1  0  -0.078999  0  3.739712  0  0  -0.116977  0  4.00166  0  0  -0.112678  0  4.020022  0  0  -0.083436  -0.1197  0  3.989326  0
C  C36  1  0.64707048  0.16393579  0.69995952  1  0  0.040785  0  3.77161  0  0  0.058197  0  4.006612  0  0  0.053663  0  4.03124  0  0  -0.011941  0.061037  0  3.989903  0
C  C37  1  0.35292735  0.83605935  0.30004161  1  0  0.040597  0  3.771671  0  0  0.058017  0  4.006659  0  0  0.053478  0  4.031287  0  0  -0.012051  0.060858  0  3.989947  0
C  C38  1  0.69075026  0.09276915  0.77134157  1  0  -0.100525  0  3.702816  0  0  -0.133229  0  3.949805  0  0  -0.13044  0  3.967823  0  0  -0.078154  -0.134889  0  3.937711  0
C  C39  1  0.30925173  0.90723052  0.22866246  1  0  -0.100589  0  3.702888  0  0  -0.133308  0  3.949884  0  0  -0.130519  0  3.967902  0  0  -0.07817  -0.134924  0  3.937782  0
C  C40  1  0.57584987  0.98690099  0.75370672  1  0  -0.11276  0  3.753884  0  0  -0.090213  0  4.00859  0  0  -0.098064  0  4.030951  0  0  -0.019211  -0.085335  0  3.993641  0
C  C41  1  0.42414664  0.01309406  0.24629720  1  0  -0.112719  0  3.753899  0  0  -0.090155  0  4.00858  0  0  -0.098001  0  4.030935  0  0  -0.019188  -0.085277  0  3.993616  0
C  C42  1  0.41627818  0.94434511  0.66243161  1  0  -0.068926  0  3.781818  0  0  -0.099043  0  4.04461  0  0  -0.09784  0  4.064666  0  0  -0.085992  -0.099378  0  4.030665  0
C  C43  1  0.58372189  0.05565274  0.33757152  1  0  -0.068776  0  3.781715  0  0  -0.098889  0  4.044465  0  0  -0.097694  0  4.064523  0  0  -0.085922  -0.099234  0  4.03053  0
C  C44  1  0.37205298  0.01131799  0.59247868  1  0  -0.112897  0  3.757222  0  0  -0.134272  0  4.013827  0  0  -0.138286  0  4.034705  0  0  -0.091332  -0.131736  0  3.999394  0
C  C45  1  0.62794758  0.98867807  0.40752332  1  0  -0.113045  0  3.757131  0  0  -0.134404  0  4.013709  0  0  -0.138419  0  4.034592  0  0  -0.091393  -0.131848  0  3.999293  0
C  C46  1  0.48272055  0.12353822  0.61072716  1  0  0.089919  0  3.803404  0  0  0.105087  0  4.031401  0  0  0.10903  0  4.054726  0  0  -0.0042  0.102858  0  4.015294  0
C  C47  1  0.51727580  0.87645604  0.38927184  1  0  0.090003  0  3.803271  0  0  0.105189  0  4.03124  0  0  0.109134  0  4.054563  0  0  -0.004157  0.102942  0  4.015164  0
C  C48  1  0.42984021  0.19680793  0.54576924  1  0  -0.224088  0  3.6967  0  0  -0.258711  0  3.960887  0  0  -0.267135  0  3.980275  0  0  -0.10092  -0.253648  0  3.948098  0
C  C49  1  0.57016230  0.80318997  0.45423290  1  0  -0.224071  0  3.696752  0  0  -0.258707  0  3.960935  0  0  -0.267131  0  3.980323  0  0  -0.100918  -0.253642  0  3.948153  0
C  C50  1  0.53312399  0.30999400  0.56780981  1  0  0.336265  0  3.927881  0  0  0.321227  0  4.196132  0  0  0.33558  0  4.216001  0  0  0.078094  0.311529  0  4.18209  0
C  C51  1  0.46687684  0.69000568  0.43219317  1  0  0.336088  0  3.928014  0  0  0.321054  0  4.196274  0  0  0.335406  0  4.216147  0  0  0.078037  0.311358  0  4.182244  0
C  C52  1  0.88965386  0.67354454  0.43201078  1  0  0.166061  0  3.680338  0  0  0.13285  0  3.946396  0  0  0.142294  0  3.960838  0  0  0.06655  0.126621  0  3.936391  0
C  C53  1  0.11034946  0.32645451  0.56798169  1  0  0.166007  0  3.680412  0  0  0.132833  0  3.946421  0  0  0.142279  0  3.960864  0  0  0.06651  0.126601  0  3.936434  0
C  C54  1  0.98818290  0.78543059  0.44165723  1  0  -0.12171  0  3.746174  0  0  -0.136506  0  4.000008  0  0  -0.143026  0  4.020697  0  0  -0.083725  -0.132276  0  3.986044  0
C  C55  1  0.01182168  0.21456575  0.55833562  1  0  -0.121952  0  3.746284  0  0  -0.136698  0  4.000113  0  0  -0.143218  0  4.020804  0  0  -0.08374  -0.132464  0  3.98615  0
C  C56  1  0.93452858  0.83516677  0.35605245  1  0  -0.052806  0  3.709325  0  0  -0.076979  0  3.95803  0  0  -0.07504  0  3.976215  0  0  -0.064184  -0.077939  0  3.945561  0
C  C57  1  0.06547463  0.16483223  0.64394233  1  0  -0.052772  0  3.709447  0  0  -0.076943  0  3.958142  0  0  -0.075013  0  3.976322  0  0  -0.064195  -0.077905  0  3.945674  0
C  C58  1  0.78049839  0.77347372  0.26114065  1  0  0.022461  0  3.799169  0  0  0.04046  0  4.027172  0  0  0.038142  0  4.052023  0  0  0.000229  0.041859  0  4.010467  0
C  C59  1  0.21950216  0.22653062  0.73885720  1  0  0.02259  0  3.799155  0  0  0.040591  0  4.027112  0  0  0.038275  0  4.051965  0  0  0.000212  0.041963  0  4.010383  0
C  C60  1  0.71328518  0.82179142  0.17187993  1  0  -0.095764  0  3.727521  0  0  -0.118077  0  3.979665  0  0  -0.122227  0  4.003213  0  0  -0.077892  -0.115195  0  3.963739  0
C  C61  1  0.28671403  0.17821211  0.82811272  1  0  -0.09569  0  3.727374  0  0  -0.118022  0  3.979547  0  0  -0.122173  0  4.003094  0  0  -0.077792  -0.115131  0  3.963612  0
C  C62  1  0.55843836  0.76338208  0.08642371  1  0  -0.087023  0  3.707748  0  0  -0.112727  0  3.966192  0  0  -0.115905  0  3.989268  0  0  -0.07827  -0.110506  0  3.950687  0
C  C63  1  0.44156427  0.23662141  0.91357284  1  0  -0.087041  0  3.707846  0  0  -0.112797  0  3.966301  0  0  -0.115977  0  3.98938  0  0  -0.078297  -0.110581  0  3.950803  0
C  C64  1  0.46174952  0.65043928  0.08201666  1  0  0.02612  0  3.782126  0  0  0.043024  0  4.014318  0  0  0.040295  0  4.038793  0  0  0.001587  0.044633  0  3.997817  0
C  C65  1  0.53825264  0.34956325  0.91798189  1  0  0.026043  0  3.782133  0  0  0.043022  0  4.014211  0  0  0.040293  0  4.038684  0  0  0.001533  0.044625  0  3.997718  0
C  C66  1  0.30073415  0.58749779  0.99570032  1  0  -0.028205  0  3.655653  0  0  -0.054064  0  3.902661  0  0  -0.05069  0  3.919001  0  0  -0.055673  -0.05597  0  3.891446  0
C  C67  1  0.69926864  0.41251202  0.00429788  1  0  -0.028273  0  3.656055  0  0  -0.054125  0  3.903046  0  0  -0.050732  0  3.919369  0  0  -0.055671  -0.056036  0  3.891843  0
C  C68  1  0.21511791  0.47765370  0.99490825  1  0  -0.114888  0  3.728335  0  0  -0.129626  0  3.986515  0  0  -0.136517  0  4.007164  0  0  -0.082428  -0.125205  0  3.972622  0
C  C69  1  0.78488021  0.52235612  0.00508730  1  0  -0.11476  0  3.728551  0  0  -0.129494  0  3.986715  0  0  -0.136382  0  4.007365  0  0  -0.082473  -0.125059  0  3.972814  0
C  C70  1  0.28968780  0.43128919  0.08128491  1  0  0.152912  0  3.708981  0  0  0.120074  0  3.974456  0  0  0.129264  0  3.991409  0  0  0.063976  0.114106  0  3.962633  0
C  C71  1  0.71030606  0.56871604  0.91871004  1  0  0.152859  0  3.708968  0  0  0.120002  0  3.974454  0  0  0.129188  0  3.991413  0  0  0.063951  0.11407  0  3.962632  0
C  C72  1  0.52650650  0.59742011  0.16679633  1  0  0.133007  0  3.762322  0  0  0.127887  0  4.004214  0  0  0.132229  0  4.027568  0  0  0.121165  0.124973  0  3.988302  0
C  C73  1  0.47349332  0.40258242  0.83320089  1  0  0.133074  0  3.762417  0  0  0.127923  0  4.004248  0  0  0.132261  0  4.027609  0  0  0.121154  0.124998  0  3.988297  0
C  C74  1  0.68779977  0.66121957  0.25937814  1  0  0.136838  0  3.749032  0  0  0.133606  0  3.987247  0  0  0.138163  0  4.00941  0  0  0.124098  0.130412  0  3.972316  0
C  C75  1  0.31220164  0.33878666  0.74061727  1  0  0.136494  0  3.74944  0  0  0.13332  0  3.987575  0  0  0.137874  0  4.009741  0  0  0.124039  0.130203  0  3.97253  0
S  S76  1  0.83031753  0.48343090  0.65775438  1  0  1.3439  0  5.604596  0  0  1.247409  0  6.12085  0  0  1.298827  0  6.095482  0  0  0.530981  1.211669  0  6.137385  0
S  S77  1  0.16968389  0.51656428  0.34224682  1  0  1.343841  0  5.604293  0  0  1.247353  0  6.120552  0  0  1.298768  0  6.095189  0  0  0.531031  1.211623  0  6.137084  0
S  S78  1  0.61628063  0.89898520  0.84611479  1  0  1.315628  0  5.623357  0  0  1.219796  0  6.147999  0  0  1.268981  0  6.125864  0  0  0.520564  1.186131  0  6.161363  0
S  S79  1  0.38372918  0.10102326  0.15390579  1  0  1.315995  0  5.623084  0  0  1.220073  0  6.147785  0  0  1.269257  0  6.125651  0  0  0.520594  1.186416  0  6.16113  0
N  N80  1  0.74379746  0.61309259  0.34389489  1  0  -0.397726  0  3.208651  0  0  -0.352637  0  3.484065  0  0  -0.372896  0  3.504647  0  0  -0.374624  -0.338191  0  3.469243  0
N  N81  1  0.25619894  0.38690999  0.65609842  1  0  -0.397502  0  3.208799  0  0  -0.352429  0  3.484183  0  0  -0.372689  0  3.504768  0  0  -0.374531  -0.338004  0  3.46933  0
N  N82  1  0.44001389  0.48978565  0.16573655  1  0  -0.418285  0  3.212508  0  0  -0.374026  0  3.491556  0  0  -0.396059  0  3.514162  0  0  -0.370749  -0.358325  0  3.475144  0
N  N83  1  0.55997911  0.51021769  0.83426085  1  0  -0.418205  0  3.212596  0  0  -0.373964  0  3.49171  0  0  -0.395998  0  3.514318  0  0  -0.370749  -0.358255  0  3.475262  0
O  O84  1  0.00005657  0.50343479  0.73694962  1  0  -0.648041  0  1.960299  0  0  -0.591589  0  2.196083  0  0  -0.613074  0  2.181984  0  0  -0.320132  -0.576631  0  2.205594  0
O  O85  1  0.99994247  0.49655138  0.26304718  1  0  -0.648014  0  1.960191  0  0  -0.591577  0  2.195979  0  0  -0.613059  0  2.181876  0  0  -0.320164  -0.576621  0  2.205488  0
O  O86  1  0.76001222  0.57948163  0.69963996  1  0  -0.710538  0  2.021611  0  0  -0.659812  0  2.283973  0  0  -0.686283  0  2.268436  0  0  -0.373603  -0.640676  0  2.294166  0
O  O87  1  0.23999608  0.42051348  0.30036830  1  0  -0.710546  0  2.021564  0  0  -0.659839  0  2.283935  0  0  -0.686307  0  2.268395  0  0  -0.373632  -0.640706  0  2.29414  0
O  O88  1  0.81404106  0.46431532  0.53476335  1  0  -0.715756  0  1.97018  0  0  -0.662787  0  2.235198  0  0  -0.690494  0  2.220866  0  0  -0.373923  -0.642612  0  2.244123  0
O  O89  1  0.18596610  0.53568533  0.46524058  1  0  -0.715757  0  1.970094  0  0  -0.662745  0  2.235095  0  0  -0.690442  0  2.220738  0  0  -0.373925  -0.642571  0  2.244021  0
O  O90  1  0.47008849  0.87642395  0.87778272  1  0  -0.66314  0  1.945789  0  0  -0.60827  0  2.174552  0  0  -0.629785  0  2.159229  0  0  -0.331485  -0.593005  0  2.184413  0
O  O91  1  0.52989193  0.12357544  0.12222089  1  0  -0.663309  0  1.945999  0  0  -0.608354  0  2.174723  0  0  -0.629869  0  2.159401  0  0  -0.331612  -0.593098  0  2.184585  0
O  O92  1  0.61479968  0.78197785  0.76524913  1  0  -0.761122  0  1.978181  0  0  -0.705879  0  2.252049  0  0  -0.73613  0  2.23629  0  0  -0.442968  -0.684076  0  2.261815  0
O  O93  1  0.38520755  0.21802149  0.23477166  1  0  -0.761185  0  1.978428  0  0  -0.705939  0  2.252319  0  0  -0.736188  0  2.236561  0  0  -0.443001  -0.68414  0  2.26208  0
O  O94  1  0.77448077  0.96212384  0.94213631  1  0  -0.598025  0  1.874087  0  0  -0.561662  0  2.091997  0  0  -0.581145  0  2.078486  0  0  -0.331681  -0.547517  0  2.10055  0
O  O95  1  0.22550221  0.03788261  0.05787749  1  0  -0.598236  0  1.873409  0  0  -0.561836  0  2.091301  0  0  -0.58132  0  2.07779  0  0  -0.331646  -0.547696  0  2.099849  0
O  O96  1  0.47815712  0.38668331  0.51699445  1  0  -0.772205  0  2.142149  0  0  -0.720219  0  2.415696  0  0  -0.757791  0  2.415275  0  0  -0.497398  -0.692435  0  2.414023  0
O  O97  1  0.52184097  0.61331268  0.48300930  1  0  -0.772217  0  2.142259  0  0  -0.720236  0  2.415809  0  0  -0.757813  0  2.415399  0  0  -0.497408  -0.692445  0  2.414124  0
O  O98  1  0.73389801  0.33779783  0.27422359  1  0  -0.900621  0  1.829002  0  0  -0.850341  0  2.016731  0  0  -0.876626  0  1.98297  0  0  -0.639381  -0.831054  0  2.04002  0
O  O99  1  0.26610314  0.66219997  0.72578212  1  0  -0.900618  0  1.829024  0  0  -0.850302  0  2.016725  0  0  -0.876589  0  1.982961  0  0  -0.63935  -0.831014  0  2.040026  0
