# generated using pymatgen
data_K2BH5C4O7
_symmetry_space_group_name_H-M   'P 1'
_cell_length_a   6.56010144
_cell_length_b   10.32866856
_cell_length_c   13.23021528
_cell_angle_alpha   90.00003578
_cell_angle_beta   90.00006008
_cell_angle_gamma   90.00008808
_symmetry_Int_Tables_number   1
_chemical_formula_structural   K2BH5C4O7
_chemical_formula_sum   'K8 B4 H20 C16 O28'
_cell_volume   896.44119923
_cell_formula_units_Z   4
loop_
 _symmetry_equiv_pos_site_id
 _symmetry_equiv_pos_as_xyz
  1  'x, y, z'
loop_
 _atom_site_type_symbol
 _atom_site_label
 _atom_site_symmetry_multiplicity
 _atom_site_fract_x
 _atom_site_fract_y
 _atom_site_fract_z
 _atom_site_occupancy
 _atom_site_hle17_bader_spin_density
 _atom_site_hle17_ddec_charge
 _atom_site_hle17_ddec_spin_density
 _atom_site_hle17_ddec_sum_bond_order
 _atom_site_hle17_magmom
 _atom_site_hse06_10hf_bader_spin_density
 _atom_site_hse06_10hf_ddec_charge
 _atom_site_hse06_10hf_ddec_spin_density
 _atom_site_hse06_10hf_ddec_sum_bond_order
 _atom_site_hse06_10hf_magmom
 _atom_site_hse06_bader_spin_density
 _atom_site_hse06_ddec_charge
 _atom_site_hse06_ddec_spin_density
 _atom_site_hse06_ddec_sum_bond_order
 _atom_site_hse06_magmom
 _atom_site_pbe_bader_spin_density
 _atom_site_pbe_cm5_charge
 _atom_site_pbe_ddec_charge
 _atom_site_pbe_ddec_spin_density
 _atom_site_pbe_ddec_sum_bond_order
 _atom_site_pbe_magmom
K  K0  1  0.70579843  0.46355897  0.80715647  1  0  0.930009  0  0.45152  0  0  0.881356  0  0.628786  0  0  0.8945  0  0.608547  0  0  0.795512  0.871606  0  0.642935  0
K  K1  1  0.79420821  0.53644526  0.30715785  1  0  0.930028  0  0.451494  0  0  0.881362  0  0.628779  0  0  0.894519  0  0.60852  0  0  0.795499  0.871611  0  0.642929  0
K  K2  1  0.20579280  0.03643275  0.19284500  1  0  0.930007  0  0.451518  0  0  0.881364  0  0.628771  0  0  0.894508  0  0.608535  0  0  0.795514  0.871614  0  0.64292  0
K  K3  1  0.29420619  0.96356218  0.69284769  1  0  0.930006  0  0.451525  0  0  0.881368  0  0.628763  0  0  0.894485  0  0.608565  0  0  0.795513  0.871618  0  0.642915  0
K  K4  1  0.06462354  0.37191752  0.58214558  1  0  0.947708  0  0.407536  0  0  0.90812  0  0.569802  0  0  0.920559  0  0.549967  0  0  0.776275  0.898449  0  0.584242  0
K  K5  1  0.43538131  0.62808410  0.08214859  1  0  0.947697  0  0.407552  0  0  0.908111  0  0.56981  0  0  0.920552  0  0.549976  0  0  0.776272  0.89844  0  0.584247  0
K  K6  1  0.56461992  0.12808375  0.41785279  1  0  0.947704  0  0.407541  0  0  0.908108  0  0.569816  0  0  0.920552  0  0.549979  0  0  0.776274  0.898438  0  0.584255  0
K  K7  1  0.93537781  0.87191767  0.91785475  1  0  0.947711  0  0.407532  0  0  0.908115  0  0.56981  0  0  0.920559  0  0.54997  0  0  0.776272  0.898444  0  0.584245  0
B  B8  1  0.79806935  0.11676597  0.71313300  1  0  1.179745  0  2.889326  0  0  1.038576  0  3.208358  0  0  1.078815  0  3.16704  0  0  0.039246  1.009102  0  3.239676  0
B  B9  1  0.70193099  0.88323528  0.21313222  1  0  1.179684  0  2.889515  0  0  1.038508  0  3.20856  0  0  1.078748  0  3.167243  0  0  0.039186  1.009033  0  3.239885  0
B  B10  1  0.29806780  0.38323359  0.28686776  1  0  1.179752  0  2.889368  0  0  1.038579  0  3.208405  0  0  1.078818  0  3.167088  0  0  0.039234  1.009106  0  3.239722  0
B  B11  1  0.20193139  0.61676530  0.78686646  1  0  1.179757  0  2.889317  0  0  1.038591  0  3.208347  0  0  1.07883  0  3.16703  0  0  0.039243  1.009119  0  3.239661  0
H  H12  1  0.02607841  0.19443101  0.78998947  1  0  0.423793  0  0.884264  0  0  0.392009  0  0.948986  0  0  0.40452  0  0.930982  0  0  0.31092  0.38326  0  0.96157  0
H  H13  1  0.47392231  0.80557078  0.28998879  1  0  0.423789  0  0.884259  0  0  0.392008  0  0.948977  0  0  0.404518  0  0.930974  0  0  0.31093  0.38326  0  0.961559  0
H  H14  1  0.52607630  0.30557119  0.21001040  1  0  0.42378  0  0.884276  0  0  0.392001  0  0.948989  0  0  0.40451  0  0.930988  0  0  0.310918  0.383253  0  0.961572  0
H  H15  1  0.97392251  0.69443006  0.71001003  1  0  0.423789  0  0.884269  0  0  0.392006  0  0.948989  0  0  0.404517  0  0.930985  0  0  0.31092  0.383257  0  0.961572  0
H  H16  1  0.78055230  0.92271786  0.70671606  1  0  0.432065  0  0.877066  0  0  0.398897  0  0.944236  0  0  0.411277  0  0.926274  0  0  0.311012  0.390243  0  0.956816  0
H  H17  1  0.71944650  0.07728339  0.20671566  1  0  0.432052  0  0.877079  0  0  0.398886  0  0.944245  0  0  0.411266  0  0.926283  0  0  0.311004  0.390232  0  0.956825  0
H  H18  1  0.28055155  0.57728183  0.29328342  1  0  0.432083  0  0.877056  0  0  0.398936  0  0.944196  0  0  0.411315  0  0.926236  0  0  0.311017  0.390282  0  0.956777  0
H  H19  1  0.21944918  0.42271900  0.79328355  1  0  0.432076  0  0.877051  0  0  0.398911  0  0.944215  0  0  0.411291  0  0.926254  0  0  0.311019  0.390257  0  0.956796  0
H  H20  1  0.33471699  0.53479242  0.45566551  1  0  0.109344  0  0.996442  0  0  0.116822  0  1.064027  0  0  0.120393  0  1.061575  0  0  0.119119  0.114411  0  1.065629  0
H  H21  1  0.16528408  0.46520564  0.95566336  1  0  0.109383  0  0.996499  0  0  0.116806  0  1.064121  0  0  0.120373  0  1.061681  0  0  0.119131  0.114399  0  1.065715  0
H  H22  1  0.83471597  0.96520345  0.54433550  1  0  0.109396  0  0.996477  0  0  0.116834  0  1.064103  0  0  0.120404  0  1.061652  0  0  0.11914  0.114427  0  1.065696  0
H  H23  1  0.66528553  0.03479476  0.04433506  1  0  0.109372  0  0.99637  0  0  0.116814  0  1.063992  0  0  0.12038  0  1.061553  0  0  0.11911  0.114407  0  1.065585  0
H  H24  1  0.39863553  0.74708702  0.51581804  1  0  0.106915  0  0.984063  0  0  0.114002  0  1.049213  0  0  0.117593  0  1.047869  0  0  0.108631  0.111465  0  1.050318  0
H  H25  1  0.10136156  0.25291358  0.01581691  1  0  0.106883  0  0.984119  0  0  0.11394  0  1.049303  0  0  0.117531  0  1.047959  0  0  0.108612  0.111402  0  1.050409  0
H  H26  1  0.89863844  0.75291181  0.48418074  1  0  0.106915  0  0.98419  0  0  0.113999  0  1.049324  0  0  0.11759  0  1.04798  0  0  0.108632  0.111451  0  1.050441  0
H  H27  1  0.60136552  0.24708772  0.98418375  1  0  0.106912  0  0.98405  0  0  0.113968  0  1.049236  0  0  0.117558  0  1.047893  0  0  0.108624  0.11143  0  1.050341  0
H  H28  1  0.58646445  0.22549815  0.64168062  1  0  0.422241  0  0.889741  0  0  0.388496  0  0.958175  0  0  0.401557  0  0.939342  0  0  0.309584  0.379443  0  0.971191  0
H  H29  1  0.91353574  0.77450304  0.14167990  1  0  0.422256  0  0.889729  0  0  0.388504  0  0.958172  0  0  0.401566  0  0.939339  0  0  0.309582  0.379452  0  0.971188  0
H  H30  1  0.08646279  0.27450120  0.35831852  1  0  0.422208  0  0.88979  0  0  0.388461  0  0.958226  0  0  0.401523  0  0.939392  0  0  0.309567  0.379409  0  0.971241  0
H  H31  1  0.41353655  0.72549774  0.85831889  1  0  0.422228  0  0.889759  0  0  0.38848  0  0.958197  0  0  0.401541  0  0.939365  0  0  0.30958  0.379428  0  0.971213  0
C  C32  1  0.64949452  0.70835905  0.61905829  1  0  0.695091  0  3.922614  0  0  0.650845  0  4.215468  0  0  0.68473  0  4.20559  0  0  0.209162  0.627983  0  4.221536  0
C  C33  1  0.85050410  0.29164212  0.11905882  1  0  0.695027  0  3.922577  0  0  0.650815  0  4.215384  0  0  0.684702  0  4.205501  0  0  0.209151  0.627953  0  4.221458  0
C  C34  1  0.14949448  0.79164050  0.38094036  1  0  0.695022  0  3.922725  0  0  0.650793  0  4.215558  0  0  0.684678  0  4.205678  0  0  0.209163  0.627931  0  4.221629  0
C  C35  1  0.35050796  0.20835943  0.88094272  1  0  0.695084  0  3.922612  0  0  0.650864  0  4.215429  0  0  0.68475  0  4.205547  0  0  0.209141  0.628  0  4.221502  0
C  C36  1  0.45604141  0.54745821  0.51152405  1  0  -0.187163  0  3.709652  0  0  -0.204363  0  3.969093  0  0  -0.204816  0  3.980165  0  0  -0.089641  -0.204278  0  3.961985  0
C  C37  1  0.04396177  0.45255013  0.01152072  1  0  -0.187224  0  3.709429  0  0  -0.20434  0  3.968843  0  0  -0.204791  0  3.979909  0  0  -0.089666  -0.204258  0  3.961745  0
C  C38  1  0.95604024  0.95254842  0.48848006  1  0  -0.187172  0  3.709273  0  0  -0.204342  0  3.968737  0  0  -0.204791  0  3.979801  0  0  -0.089654  -0.204257  0  3.961633  0
C  C39  1  0.54395916  0.04745983  0.98847764  1  0  -0.187184  0  3.709544  0  0  -0.204344  0  3.969016  0  0  -0.204798  0  3.980084  0  0  -0.08961  -0.204258  0  3.961911  0
C  C40  1  0.56460669  0.42519470  0.53989169  1  0  0.685709  0  3.994532  0  0  0.636037  0  4.305407  0  0  0.670403  0  4.293028  0  0  0.185307  0.612648  0  4.312984  0
C  C41  1  0.93539633  0.57480350  0.03989013  1  0  0.685717  0  3.994576  0  0  0.636031  0  4.305441  0  0  0.670397  0  4.293063  0  0  0.185294  0.61264  0  4.313023  0
C  C42  1  0.06460171  0.07480076  0.46010895  1  0  0.685605  0  3.994507  0  0  0.635924  0  4.305396  0  0  0.67029  0  4.293015  0  0  0.185276  0.612533  0  4.312975  0
C  C43  1  0.43539480  0.92519439  0.96011018  1  0  0.685742  0  3.994456  0  0  0.636018  0  4.305435  0  0  0.670384  0  4.293055  0  0  0.185306  0.612628  0  4.313014  0
C  C44  1  0.49152427  0.66791520  0.54481077  1  0  -0.214097  0  3.713658  0  0  -0.230453  0  3.96846  0  0  -0.237599  0  3.982284  0  0  -0.091819  -0.226093  0  3.959706  0
C  C45  1  0.00847135  0.33207477  0.04480963  1  0  -0.214024  0  3.713368  0  0  -0.23039  0  3.968161  0  0  -0.237536  0  3.981982  0  0  -0.091796  -0.226034  0  3.959416  0
C  C46  1  0.99152579  0.83207113  0.45518730  1  0  -0.214134  0  3.713403  0  0  -0.230493  0  3.968198  0  0  -0.237639  0  3.982016  0  0  -0.091848  -0.226127  0  3.959454  0
C  C47  1  0.50847659  0.16791676  0.95519022  1  0  -0.214075  0  3.713626  0  0  -0.230404  0  3.968413  0  0  -0.237549  0  3.982236  0  0  -0.09182  -0.226046  0  3.959663  0
O  O48  1  0.90490780  0.22338675  0.74768275  1  0  -0.910705  0  1.959952  0  0  -0.834871  0  2.180014  0  0  -0.858603  0  2.149616  0  0  -0.459949  -0.817835  0  2.200762  0
O  O49  1  0.59509108  0.77661646  0.24768263  1  0  -0.910681  0  1.960039  0  0  -0.834834  0  2.180088  0  0  -0.858572  0  2.149699  0  0  -0.459937  -0.8178  0  2.200836  0
O  O50  1  0.40490898  0.27661582  0.25231655  1  0  -0.910666  0  1.959995  0  0  -0.83482  0  2.180034  0  0  -0.85856  0  2.149655  0  0  -0.459914  -0.817786  0  2.200781  0
O  O51  1  0.09509319  0.72338594  0.75231675  1  0  -0.9107  0  1.959953  0  0  -0.834873  0  2.180027  0  0  -0.858594  0  2.149611  0  0  -0.459932  -0.817839  0  2.200776  0
O  O52  1  0.62847132  0.13186655  0.65278776  1  0  -0.899588  0  1.958689  0  0  -0.823285  0  2.180688  0  0  -0.846902  0  2.149122  0  0  -0.438112  -0.806501  0  2.202239  0
O  O53  1  0.87152432  0.86813271  0.15278631  1  0  -0.899568  0  1.95878  0  0  -0.823269  0  2.180812  0  0  -0.846889  0  2.149246  0  0  -0.438061  -0.806486  0  2.202365  0
O  O54  1  0.12847291  0.36813091  0.34721291  1  0  -0.899563  0  1.958751  0  0  -0.823266  0  2.180774  0  0  -0.846888  0  2.149207  0  0  -0.438074  -0.806483  0  2.202325  0
O  O55  1  0.37152946  0.63186706  0.84721246  1  0  -0.89958  0  1.958694  0  0  -0.823277  0  2.180697  0  0  -0.846898  0  2.149131  0  0  -0.438112  -0.806496  0  2.202248  0
O  O56  1  0.86697486  0.99431281  0.73698167  1  0  -0.92344  0  2.005602  0  0  -0.850007  0  2.239111  0  0  -0.873915  0  2.208494  0  0  -0.486784  -0.8328  0  2.260055  0
O  O57  1  0.63302553  0.00568749  0.23698119  1  0  -0.923431  0  2.005654  0  0  -0.849996  0  2.239166  0  0  -0.873905  0  2.20855  0  0  -0.486792  -0.832789  0  2.260111  0
O  O58  1  0.36697235  0.50568696  0.26301861  1  0  -0.923483  0  2.005641  0  0  -0.850065  0  2.239131  0  0  -0.873974  0  2.208515  0  0  -0.486779  -0.832856  0  2.260074  0
O  O59  1  0.13302527  0.49431288  0.76301873  1  0  -0.923462  0  2.005644  0  0  -0.850032  0  2.239152  0  0  -0.873943  0  2.208536  0  0  -0.486791  -0.832825  0  2.260097  0
O  O60  1  0.78761884  0.62850954  0.64657940  1  0  -0.693182  0  1.959714  0  0  -0.63669  0  2.181441  0  0  -0.661468  0  2.170821  0  0  -0.377193  -0.619191  0  2.188061  0
O  O61  1  0.71238288  0.37149456  0.14657990  1  0  -0.693183  0  1.959612  0  0  -0.636704  0  2.181329  0  0  -0.66148  0  2.170706  0  0  -0.377169  -0.619205  0  2.187952  0
O  O62  1  0.28761588  0.87149209  0.35341932  1  0  -0.693161  0  1.959708  0  0  -0.63668  0  2.181439  0  0  -0.661455  0  2.170818  0  0  -0.37718  -0.61918  0  2.18806  0
O  O63  1  0.21238192  0.12850975  0.85342157  1  0  -0.693192  0  1.959726  0  0  -0.63671  0  2.181441  0  0  -0.661484  0  2.17082  0  0  -0.37718  -0.619209  0  2.188061  0
O  O64  1  0.69707403  0.38221340  0.47858734  1  0  -0.746647  0  1.920974  0  0  -0.700953  0  2.156735  0  0  -0.725955  0  2.145729  0  0  -0.470522  -0.682743  0  2.163465  0
O  O65  1  0.80292839  0.61778613  0.97858685  1  0  -0.746613  0  1.920985  0  0  -0.700921  0  2.156751  0  0  -0.725924  0  2.145748  0  0  -0.470487  -0.682705  0  2.163472  0
O  O66  1  0.19707082  0.11778703  0.52141185  1  0  -0.746541  0  1.920917  0  0  -0.700845  0  2.156677  0  0  -0.725844  0  2.145672  0  0  -0.470452  -0.682644  0  2.163432  0
O  O67  1  0.30292476  0.88221454  0.02141340  1  0  -0.746677  0  1.921006  0  0  -0.700966  0  2.156796  0  0  -0.725966  0  2.145789  0  0  -0.470532  -0.682756  0  2.163525  0
O  O68  1  0.50350094  0.36848846  0.62004228  1  0  -0.682469  0  1.973693  0  0  -0.628324  0  2.201409  0  0  -0.654777  0  2.190928  0  0  -0.372988  -0.60969  0  2.20802  0
O  O69  1  0.99649920  0.63151175  0.12004230  1  0  -0.682495  0  1.973561  0  0  -0.628352  0  2.201298  0  0  -0.654807  0  2.19082  0  0  -0.373004  -0.609719  0  2.207911  0
O  O70  1  0.00349746  0.13150985  0.37995681  1  0  -0.682447  0  1.973515  0  0  -0.628304  0  2.20125  0  0  -0.65476  0  2.190772  0  0  -0.373006  -0.609669  0  2.207863  0
O  O71  1  0.49650040  0.86848911  0.87995805  1  0  -0.682471  0  1.973604  0  0  -0.628306  0  2.201356  0  0  -0.654757  0  2.190877  0  0  -0.37299  -0.609674  0  2.207968  0
O  O72  1  0.63419615  0.82532573  0.64912283  1  0  -0.675329  0  1.984992  0  0  -0.616201  0  2.211934  0  0  -0.640294  0  2.199792  0  0  -0.377757  -0.599464  0  2.219804  0
O  O73  1  0.86580101  0.17467353  0.14912180  1  0  -0.675295  0  1.984979  0  0  -0.616175  0  2.211906  0  0  -0.640268  0  2.199761  0  0  -0.377762  -0.599437  0  2.219778  0
O  O74  1  0.13419881  0.67467284  0.35087733  1  0  -0.675302  0  1.984966  0  0  -0.616186  0  2.211909  0  0  -0.640283  0  2.199767  0  0  -0.377818  -0.599449  0  2.21978  0
O  O75  1  0.36580357  0.32532610  0.85087748  1  0  -0.675342  0  1.984988  0  0  -0.616224  0  2.21192  0  0  -0.640319  0  2.199777  0  0  -0.377761  -0.599486  0  2.219792  0
