# generated using pymatgen
data_ZnH26C20(N2O3)2
_symmetry_space_group_name_H-M   'P 1'
_cell_length_a   8.97469553
_cell_length_b   9.71083583
_cell_length_c   12.36300000
_cell_angle_alpha   90.00000000
_cell_angle_beta   90.00000000
_cell_angle_gamma   97.05729949
_symmetry_Int_Tables_number   1
_chemical_formula_structural   ZnH26C20(N2O3)2
_chemical_formula_sum   'Zn2 H52 C40 N8 O12'
_cell_volume   1069.29458181
_cell_formula_units_Z   2
loop_
 _symmetry_equiv_pos_site_id
 _symmetry_equiv_pos_as_xyz
  1  'x, y, z'
loop_
 _atom_site_type_symbol
 _atom_site_label
 _atom_site_symmetry_multiplicity
 _atom_site_fract_x
 _atom_site_fract_y
 _atom_site_fract_z
 _atom_site_occupancy
 _atom_site_hle17_bader_spin_density
 _atom_site_hle17_ddec_charge
 _atom_site_hle17_ddec_spin_density
 _atom_site_hle17_ddec_sum_bond_order
 _atom_site_hle17_magmom
 _atom_site_hse06_10hf_bader_spin_density
 _atom_site_hse06_10hf_ddec_charge
 _atom_site_hse06_10hf_ddec_spin_density
 _atom_site_hse06_10hf_ddec_sum_bond_order
 _atom_site_hse06_10hf_magmom
 _atom_site_hse06_bader_spin_density
 _atom_site_hse06_ddec_charge
 _atom_site_hse06_ddec_spin_density
 _atom_site_hse06_ddec_sum_bond_order
 _atom_site_hse06_magmom
 _atom_site_pbe_bader_charge
 _atom_site_pbe_bader_spin_density
 _atom_site_pbe_cm5_charge
 _atom_site_pbe_ddec_charge
 _atom_site_pbe_ddec_spin_density
 _atom_site_pbe_ddec_sum_bond_order
 _atom_site_pbe_magmom
Zn  Zn0  1  0.99999938  0.00000000  0.00000000  1  0  1.058247  0  1.832032  0  0  0.890127  0  2.273374  0  0  0.934285  0  2.221837  0  1.328487  0  0.685584  0.858189  0  2.308404  0
Zn  Zn1  1  0.50000150  0.00000104  0.49999919  1  0  1.058272  0  1.832002  0  0  0.890142  0  2.27335  0  0  0.934298  0  2.22181  0  1.328493  0  0.685575  0.858205  0  2.308378  0
H  H2  1  0.91472206  0.09763040  0.18103616  1  0  0.406295  0  0.903319  0  0  0.372147  0  0.97339  0  0  0.384018  0  0.955934  0  0.617535  0  0.278004  0.363853  0  0.985513  0
H  H3  1  0.58527686  0.90237122  0.68103616  1  0  0.4063  0  0.903319  0  0  0.372143  0  0.973403  0  0  0.384017  0  0.955942  0  0.617543  0  0.278001  0.363849  0  0.985525  0
H  H4  1  0.08527772  0.90237122  0.81896384  1  0  0.406297  0  0.903318  0  0  0.372148  0  0.973388  0  0  0.384019  0  0.955931  0  0.617534  0  0.278005  0.363854  0  0.985512  0
H  H5  1  0.41472265  0.09762833  0.31896465  1  0  0.406305  0  0.903313  0  0  0.372148  0  0.973397  0  0  0.384022  0  0.955936  0  0.617479  0  0.278003  0.363854  0  0.98552  0
H  H6  1  0.08734902  0.09416780  0.21963682  1  0  0.415507  0  0.887694  0  0  0.382182  0  0.956159  0  0  0.393345  0  0.939834  0  0.645101  0  0.280121  0.374079  0  0.968007  0
H  H7  1  0.41265052  0.90583382  0.71963601  1  0  0.415507  0  0.887704  0  0  0.382184  0  0.956169  0  0  0.393347  0  0.939842  0  0.645099  0  0.280114  0.37408  0  0.968016  0
H  H8  1  0.91265077  0.90583382  0.78036399  1  0  0.415491  0  0.887711  0  0  0.382169  0  0.956172  0  0  0.393331  0  0.939848  0  0.645103  0  0.280103  0.374065  0  0.968021  0
H  H9  1  0.58734899  0.09416573  0.28036399  1  0  0.415496  0  0.887719  0  0  0.382173  0  0.956183  0  0  0.393337  0  0.939856  0  0.645098  0  0.280112  0.37407  0  0.96803  0
H  H10  1  0.85697253  0.70711041  0.98198415  1  0  0.086952  0  0.936196  0  0  0.092792  0  1.006034  0  0  0.095991  0  1.002045  0  0.119363  0  0.116886  0.090346  0  1.009124  0
H  H11  1  0.64302737  0.29289017  0.48198334  1  0  0.086948  0  0.93621  0  0  0.092798  0  1.006037  0  0  0.095996  0  1.00205  0  0.119351  0  0.116879  0.090351  0  1.009129  0
H  H12  1  0.14302921  0.29288913  0.01801424  1  0  0.086827  0  0.93626  0  0  0.092726  0  1.006036  0  0  0.095925  0  1.002048  0  0.119386  0  0.11686  0.09028  0  1.009128  0
H  H13  1  0.35697367  0.70711249  0.51801424  1  0  0.086842  0  0.936258  0  0  0.092743  0  1.006028  0  0  0.095943  0  1.002039  0  0.119401  0  0.11687  0.090297  0  1.00912  0
H  H14  1  0.84096193  0.48990977  0.09305104  1  0  0.10983  0  0.964572  0  0  0.11632  0  1.032242  0  0  0.119683  0  1.031193  0  0.055515  0  0.106757  0.114379  0  1.032106  0
H  H15  1  0.65903908  0.51009081  0.59305104  1  0  0.109802  0  0.964597  0  0  0.116299  0  1.032255  0  0  0.119659  0  1.031205  0  0.055535  0  0.10675  0.114356  0  1.032121  0
H  H16  1  0.15903758  0.51008977  0.90694573  1  0  0.109849  0  0.964604  0  0  0.116347  0  1.032246  0  0  0.119709  0  1.031196  0  0.055487  0  0.106765  0.114404  0  1.032112  0
H  H17  1  0.34096084  0.48991185  0.40694653  1  0  0.109831  0  0.964607  0  0  0.116333  0  1.032249  0  0  0.119695  0  1.0312  0  0.055535  0  0.106761  0.11439  0  1.032114  0
H  H18  1  0.19987322  0.69165790  0.29003802  1  0  0.112832  0  0.963278  0  0  0.119093  0  1.028779  0  0  0.122144  0  1.028761  0  0.106393  0  0.107138  0.117106  0  1.028573  0
H  H19  1  0.30012743  0.30834373  0.79003721  1  0  0.11282  0  0.963301  0  0  0.119108  0  1.028758  0  0  0.122161  0  1.02874  0  0.106404  0  0.107138  0.11712  0  1.028555  0
H  H20  1  0.80012281  0.30834061  0.70996360  1  0  0.112873  0  0.963271  0  0  0.119114  0  1.028794  0  0  0.122165  0  1.028777  0  0.106368  0  0.10713  0.117126  0  1.028588  0
H  H21  1  0.69987667  0.69165686  0.20996198  1  0  0.112816  0  0.96332  0  0  0.119089  0  1.02881  0  0  0.122142  0  1.028792  0  0.106346  0  0.107109  0.117102  0  1.028604  0
H  H22  1  0.20242191  0.89970034  0.16994014  1  0  0.08459  0  0.955867  0  0  0.092167  0  1.02091  0  0  0.094377  0  1.01914  0  0.108355  0  0.117435  0.09035  0  1.022301  0
H  H23  1  0.29757735  0.10029921  0.66993934  1  0  0.084556  0  0.955844  0  0  0.092124  0  1.020921  0  0  0.094335  0  1.019145  0  0.108355  0  0.117404  0.090307  0  1.02231  0
H  H24  1  0.79757524  0.10029817  0.83006309  1  0  0.084501  0  0.955862  0  0  0.092076  0  1.020933  0  0  0.094287  0  1.019161  0  0.108318  0  0.117383  0.090259  0  1.022323  0
H  H25  1  0.70242661  0.89970034  0.33006066  1  0  0.084566  0  0.955845  0  0  0.09214  0  1.020902  0  0  0.094351  0  1.019128  0  0.108319  0  0.117416  0.090323  0  1.022294  0
H  H26  1  0.89712642  0.38698326  0.26371350  1  0  0.060346  0  0.907935  0  0  0.076796  0  0.970014  0  0  0.078421  0  0.968256  0  0.019263  0  0.09627  0.074831  0  0.972371  0
H  H27  1  0.60287445  0.61301628  0.76371350  1  0  0.060306  0  0.907943  0  0  0.076764  0  0.970026  0  0  0.078392  0  0.968269  0  0.019253  0  0.096238  0.074798  0  0.972385  0
H  H28  1  0.10287170  0.61301421  0.73628812  1  0  0.060296  0  0.907909  0  0  0.076738  0  0.969992  0  0  0.078368  0  0.968232  0  0.019302  0  0.096214  0.074771  0  0.972348  0
H  H29  1  0.39712645  0.38698534  0.23628731  1  0  0.060332  0  0.907926  0  0  0.076785  0  0.97001  0  0  0.078415  0  0.968251  0  0.019275  0  0.096256  0.074817  0  0.972368  0
H  H30  1  0.09228765  0.38108013  0.25306155  1  0  0.08373  0  0.91608  0  0  0.100327  0  0.978717  0  0  0.101326  0  0.97734  0  0.072201  0  0.110812  0.098656  0  0.981139  0
H  H31  1  0.40771398  0.61892045  0.75306075  1  0  0.083694  0  0.916136  0  0  0.100309  0  0.978754  0  0  0.101312  0  0.977377  0  0.072203  0  0.110805  0.09864  0  0.981178  0
H  H32  1  0.90771075  0.61891941  0.74693925  1  0  0.083754  0  0.916083  0  0  0.100335  0  0.978714  0  0  0.101334  0  0.97734  0  0.072183  0  0.110823  0.098662  0  0.981135  0
H  H33  1  0.59228692  0.38108117  0.24693845  1  0  0.083711  0  0.916126  0  0  0.100322  0  0.978742  0  0  0.101326  0  0.977365  0  0.072213  0  0.110811  0.098651  0  0.981164  0
H  H34  1  0.13268327  0.31572756  0.42836933  1  0  0.066615  0  0.929532  0  0  0.084954  0  0.990236  0  0  0.084951  0  0.990813  0  0.043366  0  0.103061  0.08446  0  0.990713  0
H  H35  1  0.36731363  0.68427094  0.92836771  1  0  0.066559  0  0.92957  0  0  0.084933  0  0.99026  0  0  0.084927  0  0.990844  0  0.043344  0  0.10306  0.08444  0  0.990736  0
H  H36  1  0.86731527  0.68427302  0.57163067  1  0  0.066583  0  0.929537  0  0  0.084954  0  0.990221  0  0  0.08495  0  0.990801  0  0.043352  0  0.103069  0.084461  0  0.990698  0
H  H37  1  0.63268226  0.31572653  0.07163067  1  0  0.066602  0  0.929544  0  0  0.084942  0  0.990247  0  0  0.084939  0  0.990826  0  0.043357  0  0.103061  0.08445  0  0.990723  0
H  H38  1  0.93755980  0.30238560  0.45874788  1  0  0.054449  0  0.921823  0  0  0.069766  0  0.990537  0  0  0.070473  0  0.990084  0  0.042493  0  0.09322  0.068746  0  0.991667  0
H  H39  1  0.56243773  0.69761394  0.95874707  1  0  0.054413  0  0.921835  0  0  0.069722  0  0.990603  0  0  0.070433  0  0.99015  0  0.04253  0  0.093184  0.0687  0  0.991735  0
H  H40  1  0.06243971  0.69761394  0.54125374  1  0  0.054418  0  0.921801  0  0  0.069717  0  0.990569  0  0  0.070434  0  0.990112  0  0.042502  0  0.093188  0.068696  0  0.991701  0
H  H41  1  0.43755844  0.30238560  0.04125212  1  0  0.054403  0  0.921841  0  0  0.069723  0  0.990558  0  0  0.070438  0  0.990101  0  0.042491  0  0.093191  0.068702  0  0.99169  0
H  H42  1  0.80658148  0.51587253  0.42432096  1  0  0.036336  0  0.931567  0  0  0.051779  0  1.003801  0  0  0.052088  0  1.00382  0  0.014558  0  0.087273  0.051829  0  1.00309  0
H  H43  1  0.69341730  0.48412805  0.92432096  1  0  0.036324  0  0.931611  0  0  0.051774  0  1.003808  0  0  0.052077  0  1.003832  0  0.01456  0  0.087285  0.051825  0  1.003097  0
H  H44  1  0.19341705  0.48412805  0.57567985  1  0  0.03634  0  0.931592  0  0  0.051782  0  1.003798  0  0  0.052081  0  1.003824  0  0.014569  0  0.087295  0.051832  0  1.003087  0
H  H45  1  0.30657984  0.51587046  0.07567985  1  0  0.036268  0  0.931613  0  0  0.051735  0  1.003831  0  0  0.052035  0  1.003857  0  0.014528  0  0.08727  0.051785  0  1.00312  0
H  H46  1  0.91751069  0.66688012  0.37431691  1  0  0.05881  0  0.951648  0  0  0.078402  0  1.01049  0  0  0.077533  0  1.013277  0  0.051923  0  0.099867  0.078358  0  1.009687  0
H  H47  1  0.58249032  0.33312047  0.87431530  1  0  0.058781  0  0.951574  0  0  0.078353  0  1.010433  0  0  0.077481  0  1.013222  0  0.051922  0  0.099854  0.078309  0  1.009631  0
H  H48  1  0.08249007  0.33312047  0.62568470  1  0  0.058789  0  0.951566  0  0  0.078363  0  1.010417  0  0  0.077491  0  1.013205  0  0.051926  0  0.099861  0.078319  0  1.009614  0
H  H49  1  0.41750905  0.66687804  0.12568390  1  0  0.058738  0  0.951688  0  0  0.078316  0  1.010562  0  0  0.077446  0  1.013349  0  0.051944  0  0.099827  0.078272  0  1.009759  0
H  H50  1  0.55860566  0.95691367  0.88969587  1  0  0.116024  0  0.948987  0  0  0.125155  0  1.009727  0  0  0.129496  0  1.006666  0  0.100067  0  0.107572  0.122016  0  1.012118  0
H  H51  1  0.94139646  0.04308692  0.38969587  1  0  0.116034  0  0.948995  0  0  0.125166  0  1.009733  0  0  0.129507  0  1.006675  0  0.10012  0  0.107579  0.122026  0  1.012125  0
H  H52  1  0.44139399  0.04308692  0.11030494  1  0  0.116021  0  0.949057  0  0  0.125163  0  1.009783  0  0  0.129503  0  1.006724  0  0.100054  0  0.107577  0.122021  0  1.012175  0
H  H53  1  0.05860541  0.95691367  0.61030494  1  0  0.116012  0  0.949073  0  0  0.125155  0  1.009791  0  0  0.129495  0  1.006731  0  0.100075  0  0.107569  0.122014  0  1.012183  0
C  C54  1  0.93269245  0.69721445  0.04968697  1  0  0.143399  0  3.701262  0  0  0.110513  0  3.955138  0  0  0.118542  0  3.971881  0  0.488475  0  0.049529  0.105058  0  3.9437  0
C  C55  1  0.56730870  0.30278717  0.54968616  1  0  0.143397  0  3.70114  0  0  0.110501  0  3.955008  0  0  0.118534  0  3.971747  0  0.488963  0  0.049541  0.105049  0  3.94357  0
C  C56  1  0.06730831  0.30278613  0.95031222  1  0  0.1435  0  3.701242  0  0  0.110573  0  3.955119  0  0  0.118603  0  3.971862  0  0.488459  0  0.049539  0.105118  0  3.943681  0
C  C57  1  0.43269331  0.69721445  0.45031222  1  0  0.143502  0  3.701215  0  0  0.110569  0  3.955082  0  0  0.118598  0  3.971827  0  0.488476  0  0.049535  0.105114  0  3.943643  0
C  C58  1  0.92537442  0.57710879  0.11162501  1  0  -0.181538  0  3.735317  0  0  -0.201516  0  3.99061  0  0  -0.209786  0  4.012006  0  0.018184  0  -0.087196  -0.195271  0  3.974064  0
C  C59  1  0.57462436  0.42289179  0.61162582  1  0  -0.181513  0  3.73527  0  0  -0.201467  0  3.990585  0  0  -0.209737  0  4.011977  0  0.018173  0  -0.08719  -0.195222  0  3.974039  0
C  C60  1  0.07462397  0.42289075  0.88837418  1  0  -0.181624  0  3.735353  0  0  -0.201586  0  3.990702  0  0  -0.209857  0  4.012094  0  0.018234  0  -0.087217  -0.195341  0  3.974157  0
C  C61  1  0.42537417  0.57710879  0.38837418  1  0  -0.181563  0  3.73535  0  0  -0.20155  0  3.990675  0  0  -0.209822  0  4.012072  0  0.018132  0  -0.087205  -0.195305  0  3.974129  0
C  C62  1  0.02059966  0.57304540  0.20061878  1  0  0.130376  0  3.7291  0  0  0.144718  0  3.966223  0  0  0.149738  0  3.987586  0  -0.078903  0  0.013381  0.141473  0  3.950327  0
C  C63  1  0.47940071  0.42695415  0.70061716  1  0  0.130417  0  3.728964  0  0  0.14468  0  3.96619  0  0  0.149705  0  3.987546  0  -0.078947  0  0.013384  0.141438  0  3.950293  0
C  C64  1  0.97939748  0.42695311  0.79938203  1  0  0.130526  0  3.728912  0  0  0.144787  0  3.966106  0  0  0.149814  0  3.987462  0  -0.078879  0  0.013417  0.14154  0  3.950207  0
C  C65  1  0.52060102  0.57304540  0.29938122  1  0  0.130409  0  3.729089  0  0  0.144749  0  3.966213  0  0  0.149767  0  3.987579  0  -0.078849  0  0.013407  0.141504  0  3.950314  0
C  C66  1  0.12462493  0.68997277  0.22083718  1  0  -0.163846  0  3.710595  0  0  -0.181276  0  3.959031  0  0  -0.188891  0  3.979726  0  -0.003774  0  -0.084741  -0.176347  0  3.944607  0
C  C67  1  0.37537447  0.31002781  0.72083637  1  0  -0.163894  0  3.710566  0  0  -0.181303  0  3.959015  0  0  -0.188922  0  3.979709  0  -0.003768  0  -0.084751  -0.176374  0  3.94459  0
C  C68  1  0.87537110  0.31002574  0.77916444  1  0  -0.164029  0  3.710573  0  0  -0.18142  0  3.95906  0  0  -0.189039  0  3.979754  0  -0.004365  0  -0.084801  -0.17649  0  3.944635  0
C  C69  1  0.62462852  0.68997277  0.27916282  1  0  -0.163872  0  3.710632  0  0  -0.181308  0  3.959069  0  0  -0.188923  0  3.979763  0  -0.003791  0  -0.084744  -0.176379  0  3.944643  0
C  C70  1  0.12594960  0.80562903  0.15488150  1  0  0.12794  0  3.711985  0  0  0.098332  0  3.958053  0  0  0.10492  0  3.977358  0  0.460177  0  0.044895  0.094227  0  3.945214  0
C  C71  1  0.37404980  0.19437155  0.65487988  1  0  0.128005  0  3.711947  0  0  0.098387  0  3.958022  0  0  0.104976  0  3.977327  0  0.460254  0  0.044907  0.094283  0  3.945182  0
C  C72  1  0.87404643  0.19436947  0.84512093  1  0  0.128132  0  3.711844  0  0  0.098515  0  3.957912  0  0  0.105105  0  3.977213  0  0.460835  0  0.044999  0.09441  0  3.945073  0
C  C73  1  0.62595430  0.80562903  0.34511931  1  0  0.127977  0  3.711912  0  0  0.098353  0  3.957987  0  0  0.104943  0  3.97729  0  0.460251  0  0.044915  0.094248  0  3.945148  0
C  C74  1  0.00815411  0.44995756  0.27545822  1  0  -0.048249  0  3.711802  0  0  -0.106986  0  3.966396  0  0  -0.10359  0  3.976568  0  0.313268  0  -0.058463  -0.10832  0  3.958962  0
C  C75  1  0.49184641  0.55004302  0.77545822  1  0  -0.048203  0  3.711695  0  0  -0.106934  0  3.966297  0  0  -0.103545  0  3.97647  0  0.313279  0  -0.058445  -0.108275  0  3.95887  0
C  C76  1  0.99184304  0.55004094  0.72454178  1  0  -0.048295  0  3.711752  0  0  -0.106946  0  3.96628  0  0  -0.103559  0  3.976457  0  0.313303  0  -0.058414  -0.108273  0  3.958837  0
C  C77  1  0.50815449  0.44995860  0.22454178  1  0  -0.048166  0  3.711765  0  0  -0.10691  0  3.966346  0  0  -0.103523  0  3.976522  0  0.313283  0  -0.058424  -0.108241  0  3.958908  0
C  C78  1  0.04383384  0.37454405  0.45839764  1  0  -0.024859  0  3.699696  0  0  -0.082597  0  3.966006  0  0  -0.079327  0  3.978267  0  0.2966  0  -0.0706  -0.084934  0  3.95874  0
C  C79  1  0.45616305  0.62545446  0.95839683  1  0  -0.024751  0  3.699732  0  0  -0.082555  0  3.96617  0  0  -0.079293  0  3.97844  0  0.296601  0  -0.07058  -0.084893  0  3.958905  0
C  C80  1  0.95616567  0.62545550  0.54160317  1  0  -0.024742  0  3.699605  0  0  -0.082507  0  3.965989  0  0  -0.079246  0  3.978257  0  0.296603  0  -0.070573  -0.084844  0  3.958723  0
C  C81  1  0.54383520  0.37454405  0.04160317  1  0  -0.024798  0  3.699723  0  0  -0.082537  0  3.96603  0  0  -0.079269  0  3.978293  0  0.296602  0  -0.070578  -0.084873  0  3.958764  0
C  C82  1  0.92034774  0.57617595  0.42691499  1  0  -0.013081  0  3.6966  0  0  -0.070723  0  3.958836  0  0  -0.067301  0  3.971164  0  0.285942  0  -0.070298  -0.07319  0  3.951045  0
C  C83  1  0.57965230  0.42382567  0.92691499  1  0  -0.013047  0  3.696582  0  0  -0.070637  0  3.95871  0  0  -0.067209  0  3.971037  0  0.285954  0  -0.070306  -0.073103  0  3.950918  0
C  C84  1  0.07965093  0.42382567  0.57308501  1  0  -0.01307  0  3.696516  0  0  -0.070649  0  3.95863  0  0  -0.067218  0  3.970955  0  0.285909  0  -0.070328  -0.073115  0  3.95084  0
C  C85  1  0.42034610  0.57617388  0.07308420  1  0  -0.012861  0  3.696563  0  0  -0.070512  0  3.958817  0  0  -0.067086  0  3.971149  0  0.285947  0  -0.070238  -0.072978  0  3.951026  0
C  C86  1  0.31946254  0.98905142  0.91349511  1  0  0.68728  0  3.903572  0  0  0.638759  0  4.1987  0  0  0.673497  0  4.189889  0  1.579464  0  0.205068  0.615728  0  4.202274  0
C  C87  1  0.18053923  0.01095020  0.41349511  1  0  0.687309  0  3.90357  0  0  0.638767  0  4.198741  0  0  0.673504  0  4.189928  0  1.579458  0  0.205072  0.615736  0  4.202314  0
C  C88  1  0.68053822  0.01094917  0.08650489  1  0  0.687425  0  3.903478  0  0  0.638876  0  4.198646  0  0  0.673613  0  4.189835  0  1.579467  0  0.205151  0.615846  0  4.202218  0
C  C89  1  0.81946265  0.98905038  0.58650570  1  0  0.687417  0  3.903561  0  0  0.638875  0  4.198706  0  0  0.673613  0  4.189892  0  1.579463  0  0.205155  0.615844  0  4.202277  0
C  C90  1  0.47810636  0.98688898  0.94872604  1  0  -0.170696  0  3.657047  0  0  -0.189996  0  3.912725  0  0  -0.194941  0  3.92647  0  -0.028038  0  -0.085676  -0.186253  0  3.903027  0
C  C91  1  0.02189652  0.01311264  0.44872604  1  0  -0.170673  0  3.656856  0  0  -0.189989  0  3.912561  0  0  -0.194933  0  3.926306  0  -0.028009  0  -0.08568  -0.186243  0  3.902858  0
C  C92  1  0.52189329  0.01311160  0.05127396  1  0  -0.170717  0  3.657061  0  0  -0.190026  0  3.912741  0  0  -0.194972  0  3.926489  0  -0.135512  0  -0.085684  -0.186284  0  3.903045  0
C  C93  1  0.97810759  0.98688794  0.55127477  1  0  -0.170748  0  3.656917  0  0  -0.190044  0  3.912591  0  0  -0.194989  0  3.926334  0  -0.135587  0  -0.085697  -0.186303  0  3.902896  0
N  N94  1  0.02978754  0.81029322  0.07181995  1  0  -0.329056  0  3.304767  0  0  -0.246986  0  3.562051  0  0  -0.266411  0  3.579625  0  -1.245824  0  -0.331785  -0.233795  0  3.550328  0
N  N95  1  0.47021088  0.18970840  0.57181914  1  0  -0.329048  0  3.304712  0  0  -0.246979  0  3.562006  0  0  -0.266405  0  3.579578  0  -1.246359  0  -0.331751  -0.233789  0  3.550283  0
N  N96  1  0.97021211  0.18970736  0.92818086  1  0  -0.32901  0  3.304633  0  0  -0.246949  0  3.561955  0  0  -0.266376  0  3.579527  0  -1.245884  0  -0.331749  -0.233759  0  3.550232  0
N  N97  1  0.52979002  0.81029322  0.42818005  1  0  -0.329059  0  3.304653  0  0  -0.246974  0  3.561949  0  0  -0.2664  0  3.579522  0  -1.245885  0  -0.33177  -0.233784  0  3.550226  0
N  N98  1  0.03412321  0.49298430  0.38731861  1  0  -0.237091  0  3.264169  0  0  -0.159204  0  3.52508  0  0  -0.174205  0  3.545255  0  -1.05177  0  -0.345193  -0.149038  0  3.510001  0
N  N99  1  0.46587605  0.50701525  0.88731861  1  0  -0.237114  0  3.264246  0  0  -0.159219  0  3.525149  0  0  -0.174216  0  3.545323  0  -1.051809  0  -0.34519  -0.149048  0  3.510069  0
N  N100  1  0.96587518  0.50701525  0.61268058  1  0  -0.237076  0  3.264217  0  0  -0.159212  0  3.525103  0  0  -0.17421  0  3.545279  0  -1.051842  0  -0.345197  -0.149048  0  3.510021  0
N  N101  1  0.53412346  0.49298430  0.11267977  1  0  -0.237143  0  3.264192  0  0  -0.159256  0  3.525118  0  0  -0.174257  0  3.545293  0  -1.051824  0  -0.345192  -0.149089  0  3.510036  0
O  O102  1  0.23352547  0.04409550  0.97800615  1  0  -0.649419  0  2.053229  0  0  -0.586853  0  2.31571  0  0  -0.614333  0  2.303777  0  -1.186458  0  -0.322839  -0.567285  0  2.322228  0
O  O103  1  0.26647602  0.95590404  0.47800615  1  0  -0.649443  0  2.053257  0  0  -0.586861  0  2.315746  0  0  -0.614339  0  2.30381  0  -1.186468  0  -0.322826  -0.567292  0  2.322263  0
O  O104  1  0.76647293  0.95590404  0.02199466  1  0  -0.649484  0  2.053197  0  0  -0.586888  0  2.315673  0  0  -0.614366  0  2.303738  0  -1.186455  0  -0.322882  -0.567326  0  2.322197  0
O  O105  1  0.73352808  0.04409654  0.52199385  1  0  -0.649484  0  2.053154  0  0  -0.586901  0  2.315632  0  0  -0.614378  0  2.303695  0  -1.186452  0  -0.322886  -0.567339  0  2.32216  0
O  O106  1  0.28045641  0.93258622  0.82249778  1  0  -0.650476  0  1.942129  0  0  -0.586883  0  2.155865  0  0  -0.612466  0  2.143119  0  -1.185106  0  -0.316603  -0.568069  0  2.163394  0
O  O107  1  0.21954522  0.06741436  0.32249858  1  0  -0.650476  0  1.94212  0  0  -0.586869  0  2.155863  0  0  -0.612453  0  2.143114  0  -1.185119  0  -0.316596  -0.568056  0  2.163392  0
O  O108  1  0.71954324  0.06741436  0.17750222  1  0  -0.650516  0  1.94213  0  0  -0.586924  0  2.15588  0  0  -0.612507  0  2.143136  0  -1.185115  0  -0.316619  -0.568109  0  2.163412  0
O  O109  1  0.78045805  0.93258830  0.67750222  1  0  -0.650509  0  1.94224  0  0  -0.586901  0  2.155979  0  0  -0.612487  0  2.14323  0  -1.185106  0  -0.31661  -0.568088  0  2.163509  0
O  O110  1  0.02207607  0.11392756  0.15784761  1  0  -0.842163  0  1.890075  0  0  -0.786304  0  2.087597  0  0  -0.806491  0  2.052374  0  -1.268849  0  -0.586712  -0.77214  0  2.112437  0
O  O111  1  0.47792333  0.88607302  0.65784680  1  0  -0.842162  0  1.890066  0  0  -0.786308  0  2.087615  0  0  -0.806498  0  2.052382  0  -1.268849  0  -0.586694  -0.772146  0  2.112455  0
O  O112  1  0.97792469  0.88607302  0.84215320  1  0  -0.842133  0  1.890065  0  0  -0.786288  0  2.087605  0  0  -0.806474  0  2.052379  0  -1.268847  0  -0.586684  -0.772122  0  2.112446  0
O  O113  1  0.52207730  0.11392652  0.34215320  1  0  -0.842156  0  1.890092  0  0  -0.786284  0  2.087614  0  0  -0.806476  0  2.052385  0  -1.268794  0  -0.586686  -0.772121  0  2.112455  0
