# generated using pymatgen
data_Na2H16PdC32(NO2)4
_symmetry_space_group_name_H-M   'P 1'
_cell_length_a   7.87470524
_cell_length_b   10.14117026
_cell_length_c   10.55798675
_cell_angle_alpha   80.27544404
_cell_angle_beta   77.88311458
_cell_angle_gamma   72.42871710
_symmetry_Int_Tables_number   1
_chemical_formula_structural   Na2H16PdC32(NO2)4
_chemical_formula_sum   'Na2 H16 Pd1 C32 N4 O8'
_cell_volume   780.84585243
_cell_formula_units_Z   1
loop_
 _symmetry_equiv_pos_site_id
 _symmetry_equiv_pos_as_xyz
  1  'x, y, z'
loop_
 _atom_site_type_symbol
 _atom_site_label
 _atom_site_symmetry_multiplicity
 _atom_site_fract_x
 _atom_site_fract_y
 _atom_site_fract_z
 _atom_site_occupancy
 _atom_site_pbe_bader_charge
 _atom_site_pbe_bader_spin_density
 _atom_site_pbe_cm5_charge
 _atom_site_pbe_ddec_charge
 _atom_site_pbe_ddec_spin_density
 _atom_site_pbe_ddec_sum_bond_order
 _atom_site_pbe_magmom
Na  Na0  1  0.68669903  0.88930084  0.04946536  1  0.881318  0  0.636428  0.80612  0  0.585537  0
Na  Na1  1  0.31330287  0.11069966  0.95053403  1  0.881319  0  0.636424  0.806119  0  0.585527  0
H  H2  1  0.13091737  0.39224656  0.19290771  1  0.114471  0  0.109271  0.114228  0  1.010626  0
H  H3  1  0.86908192  0.60775394  0.80709209  1  0.114474  0  0.10927  0.114233  0  1.010623  0
H  H4  1  0.42294467  0.24044736  0.25346140  1  0.108212  0  0.107659  0.108029  0  1.013088  0
H  H5  1  0.57705462  0.75955314  0.74653840  1  0.108212  0  0.107659  0.108028  0  1.013085  0
H  H6  1  0.68311685  0.33655497  0.23453576  1  0.075452  0  0.098529  0.097556  0  1.026109  0
H  H7  1  0.31688412  0.66344449  0.76546489  1  0.075476  0  0.09852  0.097554  0  1.026129  0
H  H8  1  0.66411506  0.58337917  0.14497733  1  0.1407  0  0.113677  0.117157  0  1.012695  0
H  H9  1  0.33588591  0.41662028  0.85502237  1  0.140351  0  0.113663  0.117124  0  1.012731  0
H  H10  1  0.54292621  0.07826974  0.52838302  1  0.114549  0  0.106293  0.108457  0  1.0293  0
H  H11  1  0.45707513  0.92172868  0.47161679  1  0.114562  0  0.106322  0.108495  0  1.029281  0
H  H12  1  0.60257016  0.20338380  0.68839024  1  0.078825  0  0.107654  0.100705  0  1.020706  0
H  H13  1  0.39742820  0.79661566  0.31160986  1  0.078841  0  0.107668  0.100701  0  1.020718  0
H  H14  1  0.87350535  0.29073407  0.64536482  1  0.078238  0  0.098898  0.096997  0  1.025575  0
H  H15  1  0.12649301  0.70926539  0.35463529  1  0.078223  0  0.098883  0.096963  0  1.025594  0
H  H16  1  0.09577332  0.25204849  0.43758105  1  0.08782  0  0.110842  0.114471  0  0.98812  0
H  H17  1  0.90422505  0.74795097  0.56241906  1  0.087807  0  0.110841  0.114474  0  0.988095  0
Pd  Pd18  1  0.00000162  0.99999986  0.99999996  1  0.693223  0  0.894595  0.391136  0  3.370196  0
C  C19  1  0.08151273  0.68975170  0.09698493  1  1.341966  0  0.235047  0.497447  0  4.107046  0
C  C20  1  0.91848787  0.31024880  0.90301466  1  1.341964  0  0.23512  0.497604  0  4.106945  0
C  C21  1  0.23449372  0.57257332  0.13831790  1  0.054702  0  -0.014839  -0.065857  0  4.019512  0
C  C22  1  0.76550725  0.42742614  0.86168180  1  0.054694  0  -0.01485  -0.065871  0  4.019489  0
C  C23  1  0.24470613  0.43474899  0.18484444  1  -0.118566  0  -0.070493  -0.077728  0  3.947114  0
C  C24  1  0.75529317  0.56525151  0.81515536  1  -0.118561  0  -0.070512  -0.077763  0  3.947105  0
C  C25  1  0.40985439  0.35006653  0.21883075  1  -0.05149  0  -0.076509  -0.0697  0  3.950268  0
C  C26  1  0.59014528  0.64993293  0.78116916  1  -0.051496  0  -0.076496  -0.06968  0  3.950295  0
C  C27  1  0.55719542  0.40404145  0.20614505  1  -0.011863  0  -0.084174  -0.070887  0  3.953057  0
C  C28  1  0.44280555  0.59595801  0.79385466  1  -0.011749  0  -0.084195  -0.070942  0  3.953147  0
C  C29  1  0.54707104  0.54335214  0.15663055  1  -0.059312  0  -0.071268  -0.081659  0  3.944265  0
C  C30  1  0.45293123  0.45664732  0.84336800  1  -0.059067  0  -0.071232  -0.081561  0  3.94429  0
C  C31  1  0.38364256  0.62573297  0.12303458  1  -0.09443  0  -0.012244  -0.070248  0  4.026758  0
C  C32  1  0.61635803  0.37426753  0.87696596  1  -0.094456  0  -0.012261  -0.070268  0  4.026749  0
C  C33  1  0.32398131  0.77510813  0.06940863  1  1.351067  0  0.238848  0.504839  0  4.12133  0
C  C34  1  0.67601928  0.22489237  0.93059286  1  1.351161  0  0.238814  0.504775  0  4.121465  0
C  C35  1  0.79039054  0.02969809  0.27453458  1  1.336758  0  0.229465  0.484726  0  4.124672  0
C  C36  1  0.20961043  0.97030137  0.72546512  1  1.336762  0  0.229453  0.48471  0  4.124687  0
C  C37  1  0.78695826  0.09534706  0.39238027  1  -0.103732  0  -0.015113  -0.066478  0  4.013928  0
C  C38  1  0.21304271  0.90465239  0.60761944  1  -0.103732  0  -0.015126  -0.066436  0  4.013907  0
C  C39  1  0.66327215  0.11525089  0.50702682  1  -0.026932  0  -0.072627  -0.077212  0  3.944059  0
C  C40  1  0.33672882  0.88474856  0.49297288  1  -0.026917  0  -0.07264  -0.077233  0  3.944007  0
C  C41  1  0.69763458  0.18652177  0.59760864  1  -0.020436  0  -0.078918  -0.066496  0  3.95235  0
C  C42  1  0.30236379  0.81347769  0.40239146  1  -0.020458  0  -0.078921  -0.066501  0  3.952302  0
C  C43  1  0.85095060  0.23531398  0.57337852  1  -0.053417  0  -0.082595  -0.06953  0  3.963212  0
C  C44  1  0.14904777  0.76468548  0.42662159  1  -0.053427  0  -0.082601  -0.069517  0  3.963161  0
C  C45  1  0.97582033  0.21451835  0.45724437  1  0.003822  0  -0.07638  -0.083779  0  3.957246  0
C  C46  1  0.02417897  0.78548215  0.54275542  1  0.003811  0  -0.076336  -0.083683  0  3.95719  0
C  C47  1  0.94037743  0.14468655  0.36804066  1  -0.039083  0  -0.013869  -0.059794  0  4.019005  0
C  C48  1  0.05962224  0.85531291  0.63195830  1  -0.039063  0  -0.013898  -0.059921  0  4.019215  0
C  C49  1  0.03851292  0.11144187  0.23505763  1  1.34693  0  0.227018  0.478705  0  4.136796  0
C  C50  1  0.96148675  0.88855759  0.76494133  1  1.346899  0  0.227024  0.478745  0  4.136786  0
N  N51  1  0.14582805  0.80617082  0.05606547  1  -1.151857  0  -0.414681  -0.451434  0  3.555104  0
N  N52  1  0.85417292  0.19382864  0.94393423  1  -1.151831  0  -0.414711  -0.451542  0  3.555125  0
N  N53  1  0.94154307  0.04455817  0.18555086  1  -1.118357  0  -0.417651  -0.454712  0  3.578139  0
N  N54  1  0.05845622  0.95544233  0.81444893  1  -1.11833  0  -0.417642  -0.454738  0  3.578156  0
O  O55  1  0.92427043  0.68761156  0.10022325  1  -1.147805  0  -0.331801  -0.503452  0  2.131317  0
O  O56  1  0.07572979  0.31238998  0.89977623  1  -1.147819  0  -0.331772  -0.503449  0  2.131328  0
O  O57  1  0.41508020  0.86051706  0.04198340  1  -1.165375  0  -0.396036  -0.562302  0  2.197821  0
O  O58  1  0.58492039  0.13948344  0.95801903  1  -1.165441  0  -0.396008  -0.562238  0  2.197861  0
O  O59  1  0.67877398  0.97350262  0.25670393  1  -1.148426  0  -0.320891  -0.499706  0  2.104539  0
O  O60  1  0.32122698  0.02649684  0.74329577  1  -1.148439  0  -0.320899  -0.499711  0  2.104541  0
O  O61  1  0.17860499  0.14030250  0.17621689  1  -1.150366  0  -0.316848  -0.494034  0  2.164182  0
O  O62  1  0.82139431  0.85969800  0.82378290  1  -1.150379  0  -0.316854  -0.494036  0  2.16415  0
