# generated using pymatgen
data_MnH14C10(NO)4
_symmetry_space_group_name_H-M   'P 1'
_cell_length_a   4.91763092
_cell_length_b   9.20207847
_cell_length_c   13.12686491
_cell_angle_alpha   91.37576545
_cell_angle_beta   88.67968422
_cell_angle_gamma   90.33592367
_symmetry_Int_Tables_number   1
_chemical_formula_structural   MnH14C10(NO)4
_chemical_formula_sum   'Mn2 H28 C20 N8 O8'
_cell_volume   593.68519694
_cell_formula_units_Z   2
loop_
 _symmetry_equiv_pos_site_id
 _symmetry_equiv_pos_as_xyz
  1  'x, y, z'
loop_
 _atom_site_type_symbol
 _atom_site_label
 _atom_site_symmetry_multiplicity
 _atom_site_fract_x
 _atom_site_fract_y
 _atom_site_fract_z
 _atom_site_occupancy
 _atom_site_hle17_ddec_charge
 _atom_site_hle17_ddec_spin_density
 _atom_site_hle17_ddec_sum_bond_order
 _atom_site_hle17_magmom
 _atom_site_hse06_10hf_ddec_charge
 _atom_site_hse06_10hf_ddec_spin_density
 _atom_site_hse06_10hf_ddec_sum_bond_order
 _atom_site_hse06_10hf_magmom
 _atom_site_hse06_ddec_charge
 _atom_site_hse06_ddec_spin_density
 _atom_site_hse06_ddec_sum_bond_order
 _atom_site_hse06_magmom
 _atom_site_pbe_cm5_charge
 _atom_site_pbe_ddec_charge
 _atom_site_pbe_ddec_spin_density
 _atom_site_pbe_ddec_sum_bond_order
 _atom_site_pbe_magmom
Mn  Mn0  1  0.99999447  0.00000239  0.00000478  1  1.118314  -4.898385  1.825143  -4.682  0.936598  -4.778667  2.334928  -4.541  0.994118  -4.825809  2.266932  -4.602  0.602863  0.890396  -4.725024  2.38762  -4.482
Mn  Mn1  1  0.50000799  0.50000291  0.50000235  1  0.820852  1.174236  2.696738  1.082  0.721027  1.103823  3.254316  1.039  0.776902  1.085265  3.17639  1.008  0.635491  0.678439  1.108036  3.309781  1.059
H  H2  1  0.52738182  0.11945388  0.86606293  1  0.290881  0.000425  0.95213  0.0  0.263741  0.000147  1.025469  0.0  0.272825  0.000287  1.018968  0.0  0.3152  0.257573  4e-06  1.029889  0.0
H  H3  1  0.02584267  0.37886184  0.62365821  1  0.29054  -0.000697  0.94448  0.0  0.2649  -0.000554  1.015034  0.0  0.274391  -0.000538  1.008272  0.0  0.322267  0.258354  -0.000528  1.019884  0.0
H  H4  1  0.47262190  0.88054433  0.13394250  1  0.29087  0.000423  0.952123  0.0  0.263702  0.000147  1.02551  0.0  0.272782  0.000287  1.019017  0.0  0.315217  0.257539  4e-06  1.029927  0.0
H  H5  1  0.97416125  0.62113737  0.37634114  1  0.290564  -0.000693  0.944442  0.0  0.264981  -0.000554  1.014941  0.0  0.274475  -0.000538  1.008164  0.0  0.322277  0.258433  -0.000528  1.019796  0.0
H  H6  1  0.45176298  0.62370845  0.88987458  1  0.130195  2.7e-05  0.957774  0.0  0.149308  -0.000138  1.018967  0.0  0.15128  -5.6e-05  1.019294  0.0  0.092153  0.147698  -0.000246  1.01893  0.0
H  H7  1  0.97084474  0.86747606  0.59735301  1  0.130635  1.7e-05  0.952136  0.0  0.150753  -0.000167  1.01329  0.0  0.152112  -7.1e-05  1.014025  0.0  0.095205  0.149485  -0.000299  1.013007  0.0
H  H8  1  0.54823685  0.37629077  0.11012555  1  0.130117  2.6e-05  0.957854  0.0  0.149225  -0.000137  1.019059  0.0  0.151196  -5.6e-05  1.019385  0.0  0.092101  0.147616  -0.000246  1.019021  0.0
H  H9  1  0.02915887  0.13252545  0.40265627  1  0.130671  1.3e-05  0.952109  0.0  0.15079  -0.000168  1.013247  0.0  0.152152  -7.1e-05  1.013977  0.0  0.095221  0.149525  -0.000299  1.012962  0.0
H  H10  1  0.40010057  0.69761230  0.76862074  1  0.149571  -0.000161  0.94855  0.0  0.169144  -0.00041  1.007078  -0.001  0.172455  -0.000288  1.006033  0.0  0.101426  0.166553  -0.000592  1.008086  -0.001
H  H11  1  0.92494085  0.79810215  0.72099776  1  0.150716  -0.000328  0.944866  -0.001  0.171968  -0.000517  1.001553  -0.001  0.174528  -0.000247  1.001044  -0.001  0.103495  0.16963  -0.000729  1.002578  -0.001
H  H12  1  0.59989313  0.30238583  0.23138016  1  0.149571  -0.00016  0.948504  0.0  0.169126  -0.00041  1.007055  -0.001  0.172436  -0.000288  1.006007  0.0  0.101428  0.166538  -0.000592  1.008059  -0.001
H  H13  1  0.07505455  0.20189394  0.27901302  1  0.150729  -0.000331  0.945013  -0.001  0.171995  -0.000517  1.001669  -0.001  0.174555  -0.000246  1.001159  -0.001  0.103498  0.169661  -0.000729  1.002691  -0.001
H  H14  1  0.14370325  0.72076543  0.86556040  1  0.134826  -8.5e-05  0.990541  0.0  0.148747  -0.00034  1.058552  0.0  0.151806  -0.000171  1.056831  0.0  0.095722  0.146367  -0.000585  1.060113  -0.001
H  H15  1  0.65958713  0.77574746  0.63123449  1  0.138409  -0.000239  0.978043  0.0  0.153206  -5.9e-05  1.042797  0.0  0.155513  -3.3e-05  1.042196  0.0  0.099624  0.151579  -9.9e-05  1.043219  0.0
H  H16  1  0.85630066  0.27924032  0.13444054  1  0.134846  -8.6e-05  0.990404  0.0  0.148715  -0.00034  1.058472  0.0  0.151771  -0.000172  1.056754  0.0  0.095718  0.146335  -0.000585  1.060035  -0.001
H  H17  1  0.34042275  0.22425074  0.36876940  1  0.138443  -0.00024  0.978029  0.0  0.153225  -5.9e-05  1.042796  0.0  0.155533  -3.3e-05  1.042192  0.0  0.099599  0.1516  -9.9e-05  1.043219  0.0
H  H18  1  0.47838609  0.36254705  0.77052491  1  0.109815  -0.00013  0.968357  0.0  0.117997  -0.000362  1.031766  0.0  0.120278  -0.000283  1.030537  0.0  0.126405  0.116354  -0.000467  1.03264  0.0
H  H19  1  0.98594924  0.13304470  0.71525964  1  0.109344  0.000241  0.963587  0.0  0.118084  6.7e-05  1.026618  0.0  0.120826  0.000139  1.024093  0.0  0.124149  0.116203  1.5e-05  1.027915  0.0
H  H20  1  0.52160992  0.63744880  0.22946758  1  0.109928  -0.000127  0.968316  0.0  0.118077  -0.000362  1.031753  0.0  0.120352  -0.000283  1.030533  0.0  0.126432  0.116433  -0.000466  1.032627  0.0
H  H21  1  0.01404871  0.86695009  0.28473512  1  0.109348  0.000242  0.96352  0.0  0.118088  6.7e-05  1.026569  0.0  0.12082  0.000139  1.024041  0.0  0.124119  0.116212  1.5e-05  1.027856  0.0
H  H22  1  0.91093194  0.53289263  0.83232665  1  0.126593  -0.000252  0.975155  0.0  0.139868  -0.000387  1.027791  0.0  0.142898  -0.000297  1.02725  0.0  0.109103  0.137472  -0.000556  1.028868  0.0
H  H23  1  0.44666418  0.98115654  0.65449257  1  0.125982  -4.5e-05  0.971671  0.0  0.138517  -1.1e-05  1.024502  0.0  0.141517  5e-06  1.02439  0.0  0.107993  0.136226  -6.3e-05  1.025142  0.0
H  H24  1  0.08907434  0.46710973  0.16766358  1  0.126643  -0.00025  0.975185  0.0  0.139844  -0.000387  1.027897  0.0  0.14289  -0.000297  1.027338  0.0  0.109116  0.137454  -0.000556  1.028969  0.0
H  H25  1  0.55333774  0.01883830  0.34550521  1  0.126042  -4.5e-05  0.971651  0.0  0.138582  -1.1e-05  1.024473  0.0  0.141583  5e-06  1.02436  0.0  0.108023  0.136294  -6.3e-05  1.025115  0.0
H  H26  1  0.18774339  0.35468785  0.96067964  1  0.095171  0.000315  0.958508  0.0  0.104691  0.000107  1.021579  0.0  0.106798  0.000168  1.020337  0.0  0.119289  0.10332  1.7e-05  1.022227  0.0
H  H27  1  0.72995013  0.17336522  0.53421452  1  0.092347  0.000152  0.979003  0.0  0.10064  -0.000248  1.044514  0.0  0.102892  -0.000183  1.042492  0.0  0.117747  0.0987  -0.000324  1.04687  0.0
H  H28  1  0.81224633  0.64531786  0.03931984  1  0.095117  0.00031  0.958575  0.0  0.104654  0.000107  1.021637  0.0  0.106762  0.000168  1.020396  0.0  0.119278  0.103281  1.7e-05  1.022286  0.0
H  H29  1  0.27006591  0.82663623  0.46578785  1  0.092337  0.000149  0.978996  0.0  0.100661  -0.000249  1.044485  0.0  0.102915  -0.000183  1.042455  0.0  0.117749  0.098718  -0.000324  1.046839  0.0
C  C30  1  0.49390367  0.85706811  0.88401591  1  0.767022  -0.010197  3.791766  -0.01  0.720242  -0.017591  4.090179  -0.016  0.756102  -0.013003  4.080808  -0.012  0.223772  0.694812  -0.022358  4.09607  -0.02
C  C31  1  0.99591265  0.63366304  0.60440104  1  0.741443  -0.012193  3.727583  -0.009  0.69351  -0.015416  4.028534  -0.011  0.734479  -0.01075  4.019616  -0.007  0.2256  0.661775  -0.018781  4.03529  -0.014
C  C32  1  0.50609416  0.14293218  0.11598348  1  0.767155  -0.010199  3.791743  -0.01  0.720377  -0.017594  4.090166  -0.016  0.756236  -0.013005  4.08079  -0.012  0.223793  0.694933  -0.022363  4.096076  -0.02
C  C33  1  0.00408519  0.36633942  0.39559837  1  0.741622  -0.012199  3.727385  -0.009  0.693715  -0.015414  4.028309  -0.011  0.734677  -0.010749  4.019388  -0.007  0.225657  0.661989  -0.018777  4.035067  -0.014
C  C34  1  0.36326563  0.71554422  0.85097050  1  -0.477356  -0.000425  3.652609  0.0  -0.554242  -0.001152  3.885334  -0.001  -0.562591  -0.000651  3.887294  -0.001  -0.254566  -0.548122  -0.001754  3.88431  -0.001
C  C35  1  0.88011855  0.77758466  0.64014486  1  -0.466417  0.000879  3.642661  0.001  -0.543983  0.000372  3.874775  0.001  -0.552337  0.000392  3.877618  0.001  -0.246975  -0.537489  3.6e-05  3.873312  0.001
C  C36  1  0.63673827  0.28445609  0.14902962  1  -0.477301  -0.000425  3.652493  0.0  -0.554096  -0.001153  3.885238  -0.001  -0.562458  -0.000651  3.887231  -0.001  -0.254516  -0.547974  -0.001754  3.884215  -0.001
C  C37  1  0.11988923  0.22241682  0.35986135  1  -0.466595  0.000893  3.642885  0.001  -0.544159  0.000371  3.875029  0.001  -0.552512  0.000392  3.877862  0.001  -0.246995  -0.537664  3.5e-05  3.873566  0.001
C  C38  1  0.64341075  0.33865413  0.82060566  1  0.046242  -0.004421  3.698624  -0.004  -0.000623  -0.005611  3.966571  -0.004  0.007982  -0.004971  3.981186  -0.004  0.019383  -0.006103  -0.006157  3.956474  -0.005
C  C39  1  0.15752382  0.16457337  0.66737753  1  0.03635  -0.011498  3.707026  -0.009  -0.012916  -0.003404  3.978884  -0.003  -0.001214  -0.001397  3.989137  -0.001  0.011804  -0.01919  -0.004078  3.970344  -0.003
C  C40  1  0.35659313  0.66134510  0.17939521  1  0.046194  -0.004419  3.698498  -0.004  -0.00064  -0.005613  3.966433  -0.004  0.007966  -0.004973  3.981044  -0.004  0.019403  -0.00612  -0.006159  3.956339  -0.005
C  C41  1  0.84247418  0.83541596  0.33261489  1  0.03636  -0.011491  3.707016  -0.009  -0.012904  -0.003404  3.978857  -0.003  -0.001186  -0.001395  3.989095  -0.001  0.011815  -0.01918  -0.004078  3.970326  -0.003
C  C42  1  0.86263180  0.42251176  0.85312067  1  -0.224159  0.000149  3.778768  0.0  -0.237242  -0.000869  4.039872  0.0  -0.246208  -0.000242  4.059601  0.0  -0.120585  -0.230979  -0.00134  4.026256  -0.001
C  C43  1  0.39035650  0.09051214  0.63550909  1  -0.219693  0.005775  3.797941  0.005  -0.232984  0.000908  4.061907  0.001  -0.242424  0.00055  4.079745  0.001  -0.122405  -0.226491  0.000755  4.049799  0.001
C  C44  1  0.13736005  0.57748738  0.14687492  1  -0.224277  0.000131  3.778711  0.0  -0.237291  -0.000868  4.039829  0.0  -0.246269  -0.00024  4.059547  0.0  -0.120618  -0.231031  -0.00134  4.026219  -0.001
C  C45  1  0.60964765  0.90948154  0.36448258  1  -0.219717  0.005779  3.798063  0.005  -0.233018  0.000908  4.062051  0.001  -0.242456  0.000551  4.079887  0.001  -0.122366  -0.226531  0.000755  4.049953  0.001
C  C46  1  0.00592062  0.33245820  0.91784249  1  0.048433  -0.003528  3.739466  -0.004  0.009209  -0.005514  4.011692  -0.006  0.016586  -0.004874  4.028222  -0.005  0.017827  0.004628  -0.006563  3.999202  -0.006
C  C47  1  0.53837137  0.18851584  0.57497041  1  0.033292  -0.010947  3.71673  -0.009  -0.006763  -0.004641  3.995833  -0.004  0.003765  -0.002478  4.006541  -0.002  0.009344  -0.015442  -0.006526  3.98992  -0.005
C  C48  1  0.99406709  0.66754642  0.08215622  1  0.048589  -0.003504  3.739524  -0.004  0.009332  -0.005514  4.011733  -0.006  0.016711  -0.004874  4.028261  -0.005  0.017914  0.004755  -0.006563  3.999236  -0.006
C  C49  1  0.46163267  0.81148659  0.42502593  1  0.033306  -0.010957  3.716835  -0.009  -0.006785  -0.004641  3.995929  -0.004  0.003744  -0.002479  4.00664  -0.002  0.009267  -0.015461  -0.006526  3.990012  -0.005
N  N50  1  0.88332980  0.20193931  0.92422735  1  -0.26048  -0.025204  3.142722  -0.012  -0.206468  -0.027874  3.427712  -0.01  -0.221821  -0.025042  3.443384  -0.008  -0.246567  -0.194128  -0.030277  3.416367  -0.012
N  N51  1  0.40617230  0.31627766  0.57032410  1  -0.189891  -0.008283  3.244999  -0.005  -0.158345  -0.007812  3.556299  -0.008  -0.169426  -0.005708  3.562561  -0.006  -0.27759  -0.149756  -0.009596  3.551459  -0.009
N  N52  1  0.11665977  0.79806538  0.07577669  1  -0.260612  -0.025221  3.142809  -0.012  -0.206558  -0.027877  3.427778  -0.01  -0.221912  -0.025046  3.443447  -0.008  -0.246673  -0.194217  -0.03028  3.41643  -0.012
N  N53  1  0.59383151  0.68372377  0.42967908  1  -0.189855  -0.008285  3.245105  -0.005  -0.158286  -0.007812  3.556395  -0.008  -0.16937  -0.005708  3.562662  -0.006  -0.277522  -0.149698  -0.009597  3.551545  -0.009
N  N54  1  0.66349265  0.20804101  0.86439877  1  -0.168311  -0.0005  3.493332  -0.001  -0.102777  -0.002329  3.726535  -0.003  -0.116587  -0.001554  3.74719  -0.002  -0.277375  -0.094156  -0.002876  3.712843  -0.004
N  N55  1  0.17374706  0.29888459  0.62733684  1  -0.182211  -0.005405  3.461569  -0.006  -0.115558  -0.003735  3.698558  -0.004  -0.127267  -0.002118  3.713884  -0.002  -0.288792  -0.108553  -0.004172  3.688481  -0.004
N  N56  1  0.33649902  0.79196147  0.13560295  1  -0.16828  -0.000491  3.493351  -0.001  -0.102749  -0.00233  3.726607  -0.003  -0.116555  -0.001556  3.747263  -0.002  -0.277401  -0.094135  -0.002877  3.712918  -0.004
N  N57  1  0.82625680  0.70111138  0.37266400  1  -0.182329  -0.005407  3.461757  -0.006  -0.115737  -0.003734  3.698702  -0.004  -0.127441  -0.002118  3.714028  -0.002  -0.288844  -0.108729  -0.004173  3.688617  -0.004
O  O58  1  0.34380013  0.97142344  0.88941431  1  -0.673539  -0.027733  2.044353  -0.015  -0.604069  -0.036653  2.304906  -0.021  -0.633804  -0.032601  2.291501  -0.018  -0.315303  -0.582606  -0.040619  2.314113  -0.024
O  O59  1  0.83255946  0.52522307  0.58919058  1  -0.61145  0.004837  2.153757  -0.002  -0.549815  0.006898  2.420441  0.001  -0.586159  0.006288  2.411288  0.0  -0.302351  -0.522767  0.008416  2.427197  0.004
O  O60  1  0.65618941  0.02857581  0.11058966  1  -0.673562  -0.027735  2.044396  -0.015  -0.604052  -0.036656  2.304872  -0.021  -0.633776  -0.032605  2.291461  -0.018  -0.31529  -0.582589  -0.040621  2.314091  -0.024
O  O61  1  0.16743824  0.47477619  0.41081260  1  -0.611523  0.004829  2.15372  -0.002  -0.549925  0.006892  2.420412  0.001  -0.586277  0.006281  2.411285  0.0  -0.302399  -0.522891  0.008409  2.427179  0.004
O  O62  1  0.74600534  0.85884271  0.90287116  1  -0.655103  -0.032901  2.006492  -0.022  -0.588048  -0.042494  2.270067  -0.029  -0.616937  -0.037201  2.255801  -0.024  -0.310271  -0.566626  -0.047682  2.280148  -0.034
O  O63  1  0.25409585  0.62269227  0.59330312  1  -0.588765  0.004438  2.112692  -0.002  -0.529499  0.007225  2.385524  0.002  -0.567762  0.00721  2.376576  0.002  -0.293919  -0.498736  0.006533  2.389591  0.001
O  O64  1  0.25398857  0.14116623  0.09712528  1  -0.655198  -0.032906  2.006399  -0.022  -0.588165  -0.042498  2.27001  -0.029  -0.617048  -0.037205  2.25573  -0.024  -0.310277  -0.566731  -0.047686  2.280096  -0.034
O  O65  1  0.74590198  0.37730802  0.40669627  1  -0.588798  0.004441  2.112567  -0.002  -0.529548  0.007222  2.38541  0.002  -0.567811  0.00721  2.376461  0.002  -0.293883  -0.498786  0.00653  2.389476  0.001
