# generated using pymatgen
data_NaH6C3N7O2
_symmetry_space_group_name_H-M   'P 1'
_cell_length_a   8.44704575
_cell_length_b   8.44605146
_cell_length_c   12.37442771
_cell_angle_alpha   105.46169792
_cell_angle_beta   106.64767621
_cell_angle_gamma   100.94427622
_symmetry_Int_Tables_number   1
_chemical_formula_structural   NaH6C3N7O2
_chemical_formula_sum   'Na4 H24 C12 N28 O8'
_cell_volume   780.60960177
_cell_formula_units_Z   4
loop_
 _symmetry_equiv_pos_site_id
 _symmetry_equiv_pos_as_xyz
  1  'x, y, z'
loop_
 _atom_site_type_symbol
 _atom_site_label
 _atom_site_symmetry_multiplicity
 _atom_site_fract_x
 _atom_site_fract_y
 _atom_site_fract_z
 _atom_site_occupancy
 _atom_site_hle17_bader_spin_density
 _atom_site_hle17_ddec_charge
 _atom_site_hle17_ddec_spin_density
 _atom_site_hle17_ddec_sum_bond_order
 _atom_site_hle17_magmom
 _atom_site_hse06_10hf_bader_spin_density
 _atom_site_hse06_10hf_ddec_charge
 _atom_site_hse06_10hf_ddec_spin_density
 _atom_site_hse06_10hf_ddec_sum_bond_order
 _atom_site_hse06_10hf_magmom
 _atom_site_hse06_bader_spin_density
 _atom_site_hse06_ddec_charge
 _atom_site_hse06_ddec_spin_density
 _atom_site_hse06_ddec_sum_bond_order
 _atom_site_hse06_magmom
 _atom_site_pbe_bader_spin_density
 _atom_site_pbe_cm5_charge
 _atom_site_pbe_ddec_charge
 _atom_site_pbe_ddec_spin_density
 _atom_site_pbe_ddec_sum_bond_order
 _atom_site_pbe_magmom
Na  Na0  1  0.25400563  0.00399995  0.74994757  1  0  0.893889  0  0.395038  0  0  0.839603  0  0.566979  0  0  0.850477  0  0.543656  0  0  0.656597  0.831724  0  0.58355  0
Na  Na1  1  0.74599402  0.99599973  0.25005190  1  0  0.89389  0  0.395032  0  0  0.839595  0  0.56698  0  0  0.85047  0  0.543657  0  0  0.656597  0.831718  0  0.583551  0
Na  Na2  1  0.49999934  0.99999851  0.00000003  1  0  0.892614  0  0.396273  0  0  0.838279  0  0.567767  0  0  0.849168  0  0.544462  0  0  0.655142  0.830393  0  0.584327  0
Na  Na3  1  0.99999962  0.99999911  0.50000083  1  0  0.89294  0  0.396588  0  0  0.838563  0  0.568422  0  0  0.849421  0  0.545116  0  0  0.655749  0.830699  0  0.584986  0
H  H4  1  0.43205770  0.31099503  0.96072213  1  0  0.390669  0  0.923193  0  0  0.349401  0  1.006103  0  0  0.359912  0  0.990666  0  0  0.285704  0.341983  0  1.016967  0
H  H5  1  0.35023345  0.97131831  0.53925327  1  0  0.390463  0  0.923348  0  0  0.349307  0  1.006134  0  0  0.359817  0  0.990687  0  0  0.28586  0.341892  0  1.017013  0
H  H6  1  0.56794158  0.68900337  0.03927624  1  0  0.390679  0  0.923181  0  0  0.34941  0  1.006092  0  0  0.359922  0  0.990654  0  0  0.285703  0.341999  0  1.016946  0
H  H7  1  0.64976743  0.02868138  0.46074646  1  0  0.390512  0  0.92328  0  0  0.349356  0  1.006064  0  0  0.359866  0  0.990617  0  0  0.285869  0.34194  0  1.016946  0
H  H8  1  0.57627373  0.28733266  0.90513523  1  0  0.407554  0  0.902004  0  0  0.36966  0  0.978415  0  0  0.380763  0  0.9619  0  0  0.287303  0.361862  0  0.989992  0
H  H9  1  0.38214927  0.17113291  0.59484034  1  0  0.408413  0  0.900783  0  0  0.371012  0  0.97646  0  0  0.382112  0  0.959938  0  0  0.288075  0.363213  0  0.988041  0
H  H10  1  0.42372716  0.71266703  0.09486369  1  0  0.407582  0  0.90197  0  0  0.369688  0  0.978386  0  0  0.380791  0  0.961872  0  0  0.287333  0.361889  0  0.989969  0
H  H11  1  0.61785037  0.82886677  0.40515914  1  0  0.408413  0  0.900782  0  0  0.371007  0  0.976465  0  0  0.382109  0  0.959943  0  0  0.288085  0.363209  0  0.988048  0
H  H12  1  0.10396978  0.85266605  0.91484726  1  0  0.394045  0  0.92421  0  0  0.355177  0  1.00179  0  0  0.366058  0  0.985845  0  0  0.277201  0.34754  0  1.012968  0
H  H13  1  0.93778968  0.68900875  0.58502429  1  0  0.39342  0  0.925044  0  0  0.354638  0  1.002506  0  0  0.365512  0  0.986571  0  0  0.276815  0.34701  0  1.013666  0
H  H14  1  0.89603147  0.14733492  0.08515277  1  0  0.394036  0  0.924216  0  0  0.355174  0  1.001789  0  0  0.366055  0  0.985845  0  0  0.277207  0.347535  0  1.01297  0
H  H15  1  0.06220798  0.31098835  0.41497756  1  0  0.393374  0  0.925106  0  0  0.354573  0  1.002597  0  0  0.365448  0  0.986662  0  0  0.276748  0.346942  0  1.013763  0
H  H16  1  0.17718274  0.05465660  0.95877364  1  0  0.376944  0  0.95012  0  0  0.33617  0  1.0307  0  0  0.346803  0  1.015433  0  0  0.278498  0.328699  0  1.041392  0
H  H17  1  0.09586918  0.71824206  0.54108306  1  0  0.375892  0  0.951655  0  0  0.335058  0  1.032278  0  0  0.345691  0  1.017019  0  0  0.278262  0.32759  0  1.042967  0
H  H18  1  0.82281604  0.94534436  0.04122590  1  0  0.37696  0  0.950094  0  0  0.336187  0  1.030673  0  0  0.34682  0  1.015407  0  0  0.278511  0.328719  0  1.041361  0
H  H19  1  0.90412761  0.28175631  0.45891885  1  0  0.375906  0  0.951626  0  0  0.335055  0  1.032269  0  0  0.345689  0  1.017008  0  0  0.278274  0.327588  0  1.042956  0
H  H20  1  0.79833264  0.85626087  0.68410397  1  0  0.117645  0  0.919374  0  0  0.132294  0  0.974074  0  0  0.134686  0  0.971217  0  0  0.156722  0.130461  0  0.976295  0
H  H21  1  0.17213120  0.61415942  0.81594776  1  0  0.117571  0  0.920098  0  0  0.132655  0  0.973957  0  0  0.135163  0  0.970976  0  0  0.15668  0.130768  0  0.976234  0
H  H22  1  0.20166825  0.14373881  0.31589494  1  0  0.117653  0  0.919377  0  0  0.132306  0  0.97407  0  0  0.134697  0  0.971214  0  0  0.156728  0.130471  0  0.976293  0
H  H23  1  0.82786932  0.38583898  0.18405166  1  0  0.117576  0  0.920049  0  0  0.132694  0  0.973876  0  0  0.135206  0  0.970891  0  0  0.156723  0.130805  0  0.976153  0
H  H24  1  0.37725636  0.54295352  0.72150764  1  0  0.112978  0  0.953087  0  0  0.116056  0  1.027552  0  0  0.119714  0  1.022781  0  0  0.145377  0.113364  0  1.030938  0
H  H25  1  0.82132695  0.15559073  0.77833552  1  0  0.112835  0  0.952973  0  0  0.11637  0  1.027031  0  0  0.120067  0  1.022229  0  0  0.145609  0.113646  0  1.030486  0
H  H26  1  0.62274403  0.45704873  0.27849245  1  0  0.11298  0  0.953001  0  0  0.116056  0  1.027473  0  0  0.119714  0  1.022701  0  0  0.145363  0.113359  0  1.030863  0
H  H27  1  0.17867429  0.84441023  0.22166532  1  0  0.112829  0  0.952963  0  0  0.116347  0  1.027045  0  0  0.120044  0  1.022244  0  0  0.145585  0.113614  0  1.030515  0
C  C28  1  0.68761406  0.81934320  0.70919491  1  0  0.168262  0  3.632744  0  0  0.104185  0  3.913576  0  0  0.116173  0  3.924645  0  0  0.162268  0.096343  0  3.906043  0
C  C29  1  0.11010959  0.47832828  0.79081188  1  0  0.168158  0  3.632443  0  0  0.104088  0  3.912953  0  0  0.115961  0  3.924028  0  0  0.16287  0.096292  0  3.90545  0
C  C30  1  0.31238595  0.18065776  0.29080488  1  0  0.16829  0  3.632671  0  0  0.104205  0  3.913511  0  0  0.116194  0  3.92458  0  0  0.162289  0.096364  0  3.905979  0
C  C31  1  0.88989363  0.52167526  0.20918820  1  0  0.16808  0  3.632464  0  0  0.103971  0  3.913002  0  0  0.11584  0  3.924078  0  0  0.162782  0.096183  0  3.905491  0
C  C32  1  0.46963582  0.65778321  0.72853871  1  0  0.19092  0  3.622907  0  0  0.124521  0  3.907248  0  0  0.13785  0  3.917889  0  0  0.166099  0.115928  0  3.899877  0
C  C33  1  0.92912432  0.24095791  0.77132662  1  0  0.191762  0  3.619698  0  0  0.12504  0  3.903636  0  0  0.138365  0  3.914209  0  0  0.166426  0.116445  0  3.896297  0
C  C34  1  0.53036222  0.34221518  0.27146021  1  0  0.190821  0  3.623001  0  0  0.12443  0  3.907344  0  0  0.137756  0  3.917988  0  0  0.166071  0.115846  0  3.899961  0
C  C35  1  0.07087817  0.75904306  0.22867365  1  0  0.191765  0  3.619641  0  0  0.125052  0  3.903587  0  0  0.138386  0  3.914137  0  0  0.166434  0.116467  0  3.896252  0
C  C36  1  0.63874738  0.50720536  0.62240496  1  0  0.399259  0  3.837142  0  0  0.342115  0  4.143226  0  0  0.358173  0  4.156951  0  0  0.319863  0.331447  0  4.133864  0
C  C37  1  0.88472691  0.51626046  0.87751738  1  0  0.398131  0  3.835095  0  0  0.340701  0  4.141744  0  0  0.356741  0  4.155496  0  0  0.31952  0.330042  0  4.132363  0
C  C38  1  0.36125190  0.49279303  0.37759421  1  0  0.399232  0  3.837151  0  0  0.342098  0  4.143216  0  0  0.358156  0  4.156943  0  0  0.319853  0.331429  0  4.13386  0
C  C39  1  0.11527645  0.48373924  0.12248121  1  0  0.397991  0  3.835211  0  0  0.340555  0  4.141874  0  0  0.356593  0  4.155628  0  0  0.319467  0.329898  0  4.132497  0
N  N40  1  0.47875538  0.81954924  0.77950211  1  0  -0.339384  0  3.004936  0  0  -0.304662  0  3.306921  0  0  -0.31526  0  3.318906  0  0  -0.290779  -0.297584  0  3.298861  0
N  N41  1  0.03998621  0.19912641  0.72040962  1  0  -0.340583  0  3.003757  0  0  -0.305892  0  3.305825  0  0  -0.316487  0  3.31777  0  0  -0.29151  -0.29882  0  3.297814  0
N  N42  1  0.52124624  0.18045301  0.22049823  1  0  -0.339336  0  3.005044  0  0  -0.304603  0  3.306999  0  0  -0.315203  0  3.318988  0  0  -0.290755  -0.297526  0  3.298935  0
N  N43  1  0.96001380  0.80087455  0.27959097  1  0  -0.340607  0  3.00374  0  0  -0.305923  0  3.305807  0  0  -0.316516  0  3.317752  0  0  -0.291507  -0.298849  0  3.297789  0
N  N44  1  0.61802055  0.92225099  0.76702915  1  0  -0.238533  0  2.969103  0  0  -0.213047  0  3.259541  0  0  -0.221053  0  3.271753  0  0  -0.227114  -0.207597  0  3.251256  0
N  N45  1  0.15520229  0.35091961  0.73298288  1  0  -0.238274  0  2.969199  0  0  -0.212797  0  3.259348  0  0  -0.220796  0  3.271596  0  0  -0.227368  -0.20735  0  3.251054  0
N  N46  1  0.38197997  0.07774741  0.23296946  1  0  -0.238562  0  2.969032  0  0  -0.213073  0  3.259472  0  0  -0.22108  0  3.271683  0  0  -0.227126  -0.207625  0  3.251192  0
N  N47  1  0.84479859  0.64908007  0.26701684  1  0  -0.238246  0  2.969166  0  0  -0.212762  0  3.259325  0  0  -0.220761  0  3.271576  0  0  -0.227371  -0.207319  0  3.251029  0
N  N48  1  0.59920925  0.65077587  0.68264983  1  0  -0.154375  0  3.565888  0  0  -0.06478  0  3.792453  0  0  -0.082609  0  3.814402  0  0  -0.210321  -0.053063  0  3.7775  0
N  N49  1  0.96801712  0.41642221  0.81726071  1  0  -0.154227  0  3.562014  0  0  -0.064885  0  3.789095  0  0  -0.082712  0  3.811097  0  0  -0.210973  -0.053155  0  3.774111  0
N  N50  1  0.40079077  0.34922509  0.31734915  1  0  -0.154345  0  3.565936  0  0  -0.064752  0  3.792494  0  0  -0.082581  0  3.814442  0  0  -0.210327  -0.053038  0  3.77754  0
N  N51  1  0.03198165  0.58357875  0.18274044  1  0  -0.154098  0  3.561837  0  0  -0.064747  0  3.788898  0  0  -0.082573  0  3.810905  0  0  -0.210895  -0.053024  0  3.773917  0
N  N52  1  0.77236564  0.52233743  0.58433224  1  0  -0.345177  0  3.016211  0  0  -0.306966  0  3.290666  0  0  -0.320542  0  3.303093  0  0  -0.211123  -0.297837  0  3.282244  0
N  N53  1  0.93796440  0.68795121  0.91560868  1  0  -0.343222  0  3.014422  0  0  -0.3049  0  3.288845  0  0  -0.318474  0  3.301309  0  0  -0.210235  -0.295775  0  3.280408  0
N  N54  1  0.22763240  0.47766096  0.41566668  1  0  -0.345187  0  3.016288  0  0  -0.306956  0  3.290746  0  0  -0.320532  0  3.303176  0  0  -0.211129  -0.297826  0  3.282328  0
N  N55  1  0.06203598  0.31205103  0.08439222  1  0  -0.34318  0  3.014346  0  0  -0.30487  0  3.288777  0  0  -0.318443  0  3.301242  0  0  -0.210233  -0.295742  0  3.280338  0
N  N56  1  0.76831361  0.35964077  0.53223620  1  0  -0.08283  0  3.076626  0  0  -0.049306  0  3.347096  0  0  -0.0525  0  3.362025  0  0  -0.080328  -0.046856  0  3.336889  0
N  N57  1  0.82743241  0.73604342  0.96773705  1  0  -0.084095  0  3.076764  0  0  -0.050731  0  3.347563  0  0  -0.053894  0  3.362491  0  0  -0.0808  -0.048297  0  3.337356  0
N  N58  1  0.23168567  0.64035763  0.46776297  1  0  -0.08281  0  3.076666  0  0  -0.049328  0  3.347189  0  0  -0.052523  0  3.36212  0  0  -0.080317  -0.046875  0  3.336978  0
N  N59  1  0.17256847  0.26395627  0.03226187  1  0  -0.084065  0  3.076643  0  0  -0.050692  0  3.347434  0  0  -0.053855  0  3.362359  0  0  -0.080771  -0.048254  0  3.337222  0
N  N60  1  0.63857543  0.25317042  0.53908242  1  0  -0.101298  0  3.029328  0  0  -0.074752  0  3.307845  0  0  -0.077722  0  3.322289  0  0  -0.085926  -0.072405  0  3.297947  0
N  N61  1  0.71410248  0.59945533  0.96088351  1  0  -0.103493  0  3.030413  0  0  -0.076999  0  3.309021  0  0  -0.079976  0  3.323472  0  0  -0.086981  -0.074652  0  3.299109  0
N  N62  1  0.36142298  0.74682926  0.46091762  1  0  -0.101281  0  3.029329  0  0  -0.074719  0  3.30785  0  0  -0.07769  0  3.322295  0  0  -0.085932  -0.07237  0  3.297953  0
N  N63  1  0.28589754  0.40054563  0.03911627  1  0  -0.103523  0  3.030325  0  0  -0.077036  0  3.308929  0  0  -0.080011  0  3.323376  0  0  -0.087001  -0.074684  0  3.299019  0
N  N64  1  0.55268158  0.34331876  0.59629921  1  0  -0.346123  0  2.982595  0  0  -0.312633  0  3.263138  0  0  -0.325607  0  3.275146  0  0  -0.2129  -0.303907  0  3.254977  0
N  N65  1  0.74696173  0.45629677  0.90363051  1  0  -0.343861  0  2.98176  0  0  -0.309861  0  3.261845  0  0  -0.322817  0  3.273876  0  0  -0.211727  -0.301144  0  3.253674  0
N  N66  1  0.44731807  0.65668093  0.40370027  1  0  -0.346115  0  2.982553  0  0  -0.312622  0  3.263084  0  0  -0.325595  0  3.275092  0  0  -0.212872  -0.303897  0  3.254928  0
N  N67  1  0.25303865  0.54370548  0.09636958  1  0  -0.343807  0  2.981803  0  0  -0.309798  0  3.261876  0  0  -0.322757  0  3.273909  0  0  -0.211712  -0.301088  0  3.253719  0
O  O68  1  0.47828869  0.22331308  0.92007509  1  0  -0.907347  0  1.831776  0  0  -0.855225  0  2.023077  0  0  -0.87132  0  1.988362  0  0  -0.699882  -0.843831  0  2.047318  0
O  O69  1  0.30320291  0.05821076  0.57989666  1  0  -0.90817  0  1.832081  0  0  -0.856607  0  2.022942  0  0  -0.872684  0  1.988248  0  0  -0.700846  -0.845232  0  2.047158  0
O  O70  1  0.52170848  0.77668659  0.07992471  1  0  -0.907397  0  1.83175  0  0  -0.855256  0  2.022992  0  0  -0.871353  0  1.988275  0  0  -0.699907  -0.843859  0  2.04723  0
O  O71  1  0.69679673  0.94178891  0.42010362  1  0  -0.908202  0  1.832043  0  0  -0.856633  0  2.022909  0  0  -0.872712  0  1.98821  0  0  -0.700859  -0.845253  0  2.047129  0
O  O72  1  0.19361659  0.94613049  0.91307268  1  0  -0.935932  0  1.853745  0  0  -0.886905  0  2.060356  0  0  -0.903159  0  2.024731  0  0  -0.71638  -0.875328  0  2.08517  0
O  O73  1  0.03296607  0.78040030  0.58672273  1  0  -0.934675  0  1.855087  0  0  -0.885546  0  2.061669  0  0  -0.901745  0  2.025993  0  0  -0.716013  -0.873994  0  2.086461  0
O  O74  1  0.80638503  0.05387176  0.08692765  1  0  -0.935936  0  1.853754  0  0  -0.886898  0  2.060323  0  0  -0.903152  0  2.024699  0  0  -0.716388  -0.87532  0  2.085137  0
O  O75  1  0.96703160  0.21959680  0.41327751  1  0  -0.934637  0  1.855007  0  0  -0.885489  0  2.061648  0  0  -0.90169  0  2.025973  0  0  -0.715956  -0.873943  0  2.08646  0
