# generated using pymatgen
data_Ag6H15C12NO15
_symmetry_space_group_name_H-M   'P 1'
_cell_length_a   7.93262765
_cell_length_b   10.14218404
_cell_length_c   13.72530235
_cell_angle_alpha   74.08582353
_cell_angle_beta   81.07472963
_cell_angle_gamma   67.80764386
_symmetry_Int_Tables_number   1
_chemical_formula_structural   Ag6H15C12NO15
_chemical_formula_sum   'Ag12 H30 C24 N2 O30'
_cell_volume   981.61744034
_cell_formula_units_Z   2
loop_
 _symmetry_equiv_pos_site_id
 _symmetry_equiv_pos_as_xyz
  1  'x, y, z'
loop_
 _atom_site_type_symbol
 _atom_site_label
 _atom_site_symmetry_multiplicity
 _atom_site_fract_x
 _atom_site_fract_y
 _atom_site_fract_z
 _atom_site_occupancy
 _atom_site_hle17_bader_spin_density
 _atom_site_hle17_ddec_charge
 _atom_site_hle17_ddec_spin_density
 _atom_site_hle17_ddec_sum_bond_order
 _atom_site_hle17_magmom
 _atom_site_hse06_10hf_bader_spin_density
 _atom_site_hse06_10hf_ddec_charge
 _atom_site_hse06_10hf_ddec_spin_density
 _atom_site_hse06_10hf_ddec_sum_bond_order
 _atom_site_hse06_10hf_magmom
 _atom_site_hse06_bader_spin_density
 _atom_site_hse06_ddec_charge
 _atom_site_hse06_ddec_spin_density
 _atom_site_hse06_ddec_sum_bond_order
 _atom_site_hse06_magmom
 _atom_site_pbe_bader_spin_density
 _atom_site_pbe_cm5_charge
 _atom_site_pbe_ddec_charge
 _atom_site_pbe_ddec_spin_density
 _atom_site_pbe_ddec_sum_bond_order
 _atom_site_pbe_magmom
Ag  Ag0  1  0.16706279  0.32522149  0.99999195  1  0  0.65404  0  1.340786  0  0  0.544717  0  1.78741  0  0  0.578837  0  1.724273  0  0  0.433604  0.519895  0  1.831251  0
Ag  Ag1  1  0.83293289  0.67478238  0.00000648  1  0  0.654051  0  1.340765  0  0  0.544722  0  1.787401  0  0  0.578843  0  1.724265  0  0  0.433618  0.5199  0  1.831242  0
Ag  Ag2  1  0.87968134  0.95019540  0.94872908  1  0  0.590593  0  1.30826  0  0  0.459174  0  1.758817  0  0  0.503195  0  1.689188  0  0  0.403696  0.42742  0  1.807483  0
Ag  Ag3  1  0.12031651  0.04980638  0.05126663  1  0  0.590607  0  1.308289  0  0  0.459168  0  1.758883  0  0  0.503187  0  1.689254  0  0  0.403684  0.427415  0  1.807548  0
Ag  Ag4  1  0.15664584  0.35235161  0.67605445  1  0  0.626152  0  1.443431  0  0  0.516388  0  1.903161  0  0  0.553078  0  1.834771  0  0  0.410568  0.490735  0  1.950152  0
Ag  Ag5  1  0.84335436  0.64764771  0.32394880  1  0  0.626169  0  1.443382  0  0  0.516406  0  1.90311  0  0  0.553093  0  1.834731  0  0  0.410556  0.490757  0  1.950088  0
Ag  Ag6  1  0.85537695  0.36247322  0.45738359  1  0  0.506919  0  1.575822  0  0  0.386639  0  2.075369  0  0  0.426034  0  2.001164  0  0  0.379809  0.359878  0  2.125118  0
Ag  Ag7  1  0.14462495  0.63752510  0.54261678  1  0  0.506932  0  1.575792  0  0  0.386656  0  2.075357  0  0  0.426054  0  2.001153  0  0  0.379803  0.359894  0  2.125106  0
Ag  Ag8  1  0.48031295  0.36224250  0.56573155  1  0  0.471855  0  1.7129  0  0  0.354808  0  2.212297  0  0  0.395649  0  2.134084  0  0  0.391443  0.327517  0  2.264931  0
Ag  Ag9  1  0.51968192  0.63776029  0.43426716  1  0  0.47189  0  1.712944  0  0  0.354852  0  2.212336  0  0  0.39569  0  2.134125  0  0  0.391468  0.32756  0  2.26497  0
Ag  Ag10  1  0.81011727  0.08720937  0.54494503  1  0  0.496997  0  1.703156  0  0  0.392216  0  2.213832  0  0  0.419609  0  2.149368  0  0  0.422005  0.373642  0  2.25713  0
Ag  Ag11  1  0.18988313  0.91279543  0.45505644  1  0  0.496932  0  1.703223  0  0  0.392143  0  2.213918  0  0  0.419532  0  2.149459  0  0  0.421968  0.373577  0  2.257196  0
H  H12  1  0.51593085  0.08941597  0.08414572  1  0  0.445055  0  0.840207  0  0  0.424028  0  0.886401  0  0  0.433469  0  0.872608  0  0  0.301533  0.417234  0  0.896294  0
H  H13  1  0.48406963  0.91058566  0.91585343  1  0  0.445034  0  0.840235  0  0  0.424004  0  0.886434  0  0  0.433447  0  0.872637  0  0  0.301511  0.417211  0  0.896328  0
H  H14  1  0.55613468  0.19772239  0.98557565  1  0  0.424664  0  0.88885  0  0  0.391838  0  0.95593  0  0  0.40316  0  0.939698  0  0  0.286021  0.383779  0  0.967461  0
H  H15  1  0.44386290  0.80227708  0.01442416  1  0  0.424642  0  0.888879  0  0  0.391815  0  0.955967  0  0  0.403137  0  0.939734  0  0  0.28599  0.383755  0  0.967498  0
H  H16  1  0.82957186  0.89446394  0.15260438  1  0  0.424604  0  0.874079  0  0  0.392885  0  0.944409  0  0  0.403855  0  0.92817  0  0  0.29068  0.385127  0  0.955838  0
H  H17  1  0.17042559  0.10553878  0.84739556  1  0  0.424589  0  0.874098  0  0  0.392877  0  0.94442  0  0  0.403846  0  0.928183  0  0  0.290679  0.385118  0  0.955852  0
H  H18  1  0.68510694  0.83395202  0.13950732  1  0  0.408153  0  0.879633  0  0  0.379858  0  0.954435  0  0  0.389481  0  0.940388  0  0  0.289847  0.373149  0  0.961712  0
H  H19  1  0.31489143  0.16604855  0.86049148  1  0  0.408122  0  0.879673  0  0  0.379828  0  0.954475  0  0  0.38945  0  0.94043  0  0  0.28984  0.373118  0  0.961751  0
H  H20  1  0.26336070  0.16561219  0.53216038  1  0  0.428715  0  0.873061  0  0  0.399365  0  0.934272  0  0  0.409676  0  0.919491  0  0  0.290872  0.392129  0  0.944633  0
H  H21  1  0.73663820  0.83438719  0.46784152  1  0  0.428753  0  0.873026  0  0  0.399414  0  0.934213  0  0  0.409723  0  0.919434  0  0  0.290881  0.392178  0  0.944574  0
H  H22  1  0.39788006  0.07114359  0.62381982  1  0  0.437069  0  0.863112  0  0  0.403261  0  0.93212  0  0  0.414273  0  0.916066  0  0  0.289607  0.395565  0  0.943308  0
H  H23  1  0.60211883  0.92885579  0.37618208  1  0  0.437074  0  0.863116  0  0  0.40328  0  0.932102  0  0  0.414292  0  0.916047  0  0  0.289596  0.395584  0  0.94329  0
H  H24  1  0.98750201  0.95289022  0.71461076  1  0  0.343391  0  0.894112  0  0  0.333424  0  0.944425  0  0  0.339699  0  0.940983  0  0  0.288328  0.328931  0  0.947026  0
H  H25  1  0.01249977  0.04711135  0.28538974  1  0  0.343425  0  0.894206  0  0  0.33346  0  0.94451  0  0  0.339736  0  0.941067  0  0  0.288378  0.328966  0  0.94711  0
H  H26  1  0.08314471  0.07221566  0.64720652  1  0  0.341052  0  0.923703  0  0  0.32622  0  0.983349  0  0  0.333456  0  0.978661  0  0  0.278977  0.321042  0  0.986719  0
H  H27  1  0.91685830  0.92778600  0.35279093  1  0  0.341023  0  0.923686  0  0  0.326194  0  0.983339  0  0  0.333427  0  0.978657  0  0  0.278968  0.321015  0  0.986709  0
H  H28  1  0.88959273  0.12874356  0.71288665  1  0  0.333131  0  0.907362  0  0  0.32348  0  0.959909  0  0  0.328861  0  0.957595  0  0  0.285549  0.319524  0  0.96178  0
H  H29  1  0.11041243  0.87125906  0.28711407  1  0  0.333083  0  0.907377  0  0  0.323492  0  0.959839  0  0  0.328872  0  0.957529  0  0  0.285551  0.319535  0  0.961715  0
H  H30  1  0.44740207  0.65258549  0.91084876  1  0  0.087405  0  0.935689  0  0  0.102218  0  0.998193  0  0  0.103624  0  0.997636  0  0  0.110031  0.101197  0  0.998783  0
H  H31  1  0.55259123  0.34741503  0.08915344  1  0  0.087402  0  0.935743  0  0  0.102223  0  0.998231  0  0  0.103627  0  0.997679  0  0  0.110018  0.101202  0  0.998821  0
H  H32  1  0.47031131  0.41330575  0.93140319  1  0  0.079046  0  0.962446  0  0  0.08896  0  1.031205  0  0  0.091259  0  1.029464  0  0  0.103355  0.087133  0  1.032876  0
H  H33  1  0.52969317  0.58669250  0.06859842  1  0  0.079058  0  0.962449  0  0  0.088982  0  1.031193  0  0  0.091284  0  1.029447  0  0  0.103374  0.087154  0  1.032865  0
H  H34  1  0.73337682  0.47655595  0.89426530  1  0  0.095365  0  0.934098  0  0  0.105177  0  1.001286  0  0  0.1077  0  0.999801  0  0  0.107391  0.103494  0  1.002248  0
H  H35  1  0.26663064  0.52344129  0.10573331  1  0  0.095389  0  0.934095  0  0  0.105164  0  1.001302  0  0  0.107665  0  0.999846  0  0  0.107407  0.10348  0  1.002262  0
H  H36  1  0.89193338  0.53246776  0.74130185  1  0  0.075687  0  0.946109  0  0  0.087537  0  1.016122  0  0  0.089506  0  1.012996  0  0  0.096583  0.086081  0  1.018423  0
H  H37  1  0.10806801  0.46753173  0.25869615  1  0  0.075628  0  0.946085  0  0  0.08748  0  1.01615  0  0  0.089434  0  1.013012  0  0  0.096558  0.086023  0  1.01845  0
H  H38  1  0.67026910  0.72111972  0.80918875  1  0  0.076257  0  0.941229  0  0  0.086547  0  1.012364  0  0  0.088714  0  1.009831  0  0  0.100382  0.0848  0  1.014457  0
H  H39  1  0.32973296  0.27887527  0.19081369  1  0  0.076278  0  0.941272  0  0  0.08656  0  1.012395  0  0  0.088727  0  1.009866  0  0  0.100401  0.084815  0  1.014481  0
H  H40  1  0.36894071  0.85152366  0.77015122  1  0  0.107439  0  0.917005  0  0  0.117735  0  0.977165  0  0  0.120648  0  0.975572  0  0  0.11301  0.115826  0  0.977993  0
H  H41  1  0.63105901  0.14847678  0.22985113  1  0  0.107382  0  0.917038  0  0  0.117693  0  0.977195  0  0  0.120608  0  0.9756  0  0  0.112985  0.115784  0  0.978024  0
C  C42  1  0.38624797  0.63459034  0.85055550  1  0  -0.114527  0  3.591477  0  0  -0.122919  0  3.825791  0  0  -0.128221  0  3.840252  0  0  -0.078784  -0.119294  0  3.816032  0
C  C43  1  0.61375100  0.36540586  0.14944407  1  0  -0.114616  0  3.591605  0  0  -0.123045  0  3.826008  0  0  -0.128341  0  3.840461  0  0  -0.078819  -0.119419  0  3.816251  0
C  C44  1  0.49029279  0.47081070  0.85263987  1  0  -0.125067  0  3.578305  0  0  -0.137244  0  3.813692  0  0  -0.142523  0  3.827065  0  0  -0.086771  -0.133676  0  3.804721  0
C  C45  1  0.50970958  0.52918652  0.14736066  1  0  -0.125039  0  3.578342  0  0  -0.137231  0  3.813693  0  0  -0.142513  0  3.827065  0  0  -0.086782  -0.133666  0  3.80473  0
C  C46  1  0.69552685  0.44521797  0.83182020  1  0  -0.129297  0  3.568745  0  0  -0.136797  0  3.803416  0  0  -0.142032  0  3.817256  0  0  -0.08113  -0.133284  0  3.793597  0
C  C47  1  0.30447790  0.55478259  0.16817731  1  0  -0.129394  0  3.568932  0  0  -0.136753  0  3.803599  0  0  -0.141997  0  3.81742  0  0  -0.081147  -0.133239  0  3.793778  0
C  C48  1  0.74863883  0.54744004  0.73471709  1  0  -0.119398  0  3.573411  0  0  -0.132383  0  3.806019  0  0  -0.137865  0  3.820045  0  0  -0.083969  -0.128377  0  3.795986  0
C  C49  1  0.25136161  0.45256167  0.26527986  1  0  -0.119103  0  3.573267  0  0  -0.132252  0  3.805977  0  0  -0.13764  0  3.819864  0  0  -0.083909  -0.128246  0  3.795939  0
C  C50  1  0.63413572  0.70670065  0.73910037  1  0  -0.125236  0  3.582  0  0  -0.13539  0  3.818648  0  0  -0.139681  0  3.832554  0  0  -0.084091  -0.13234  0  3.808917  0
C  C51  1  0.36586142  0.29329983  0.26090148  1  0  -0.125376  0  3.582183  0  0  -0.13549  0  3.818867  0  0  -0.139804  0  3.832758  0  0  -0.084102  -0.132446  0  3.809153  0
C  C52  1  0.42526205  0.74150253  0.75516350  1  0  -0.129995  0  3.586677  0  0  -0.140881  0  3.821884  0  0  -0.146828  0  3.835082  0  0  -0.085178  -0.136935  0  3.813008  0
C  C53  1  0.57473555  0.25849688  0.24483778  1  0  -0.129898  0  3.586644  0  0  -0.140789  0  3.821903  0  0  -0.146739  0  3.835107  0  0  -0.08517  -0.136847  0  3.81303  0
C  C54  1  0.18609995  0.68100546  0.88829692  1  0  0.697944  0  3.790697  0  0  0.638145  0  4.089186  0  0  0.67482  0  4.084582  0  0  0.215281  0.61304  0  4.091397  0
C  C55  1  0.81389856  0.31899184  0.11170249  1  0  0.697967  0  3.79067  0  0  0.638163  0  4.089166  0  0  0.674837  0  4.084562  0  0  0.215254  0.613059  0  4.091377  0
C  C56  1  0.42659700  0.39926895  0.78742107  1  0  0.689217  0  3.786408  0  0  0.630183  0  4.083099  0  0  0.667392  0  4.077295  0  0  0.209591  0.604835  0  4.086112  0
C  C57  1  0.57340987  0.60073263  0.21257751  1  0  0.689104  0  3.786604  0  0  0.63008  0  4.083282  0  0  0.66729  0  4.07748  0  0  0.209545  0.604732  0  4.086295  0
C  C58  1  0.80915520  0.28197242  0.85051082  1  0  0.692628  0  3.8147  0  0  0.630521  0  4.122626  0  0  0.665684  0  4.116435  0  0  0.214585  0.606563  0  4.125913  0
C  C59  1  0.19084304  0.71803144  0.14948738  1  0  0.692726  0  3.814633  0  0  0.63044  0  4.122783  0  0  0.665605  0  4.11659  0  0  0.214578  0.606483  0  4.126068  0
C  C60  1  0.74235488  0.52008510  0.63101070  1  0  0.681886  0  3.794905  0  0  0.62248  0  4.084159  0  0  0.660802  0  4.079724  0  0  0.211004  0.596751  0  4.08549  0
C  C61  1  0.25764528  0.47991430  0.36899035  1  0  0.681581  0  3.79502  0  0  0.622347  0  4.084095  0  0  0.660646  0  4.079655  0  0  0.210895  0.59662  0  4.085423  0
C  C62  1  0.68461299  0.82344262  0.65514436  1  0  0.701821  0  3.803442  0  0  0.645856  0  4.103348  0  0  0.680244  0  4.096918  0  0  0.209888  0.622594  0  4.107221  0
C  C63  1  0.31539019  0.17655569  0.34485589  1  0  0.701762  0  3.803289  0  0  0.645797  0  4.103184  0  0  0.680183  0  4.096757  0  0  0.209841  0.622534  0  4.107058  0
C  C64  1  0.32603550  0.75503086  0.66364457  1  0  0.677847  0  3.811598  0  0  0.619921  0  4.105443  0  0  0.657384  0  4.100342  0  0  0.20552  0.594452  0  4.108347  0
C  C65  1  0.67396691  0.24496629  0.33635816  1  0  0.67789  0  3.811508  0  0  0.619886  0  4.105441  0  0  0.657348  0  4.100343  0  0  0.205554  0.594421  0  4.108338  0
N  N66  1  0.96030595  0.05624664  0.66907711  1  0  -0.842753  0  3.01678  0  0  -0.787476  0  3.254672  0  0  -0.813198  0  3.243364  0  0  -0.803876  -0.769952  0  3.262556  0
N  N67  1  0.03969665  0.94375599  0.33092384  1  0  -0.842691  0  3.016879  0  0  -0.78746  0  3.254683  0  0  -0.81318  0  3.243367  0  0  -0.803894  -0.769936  0  3.262569  0
O  O68  1  0.13012412  0.58999330  0.95670516  1  0  -0.650963  0  2.17131  0  0  -0.565632  0  2.463698  0  0  -0.601029  0  2.450184  0  0  -0.329735  -0.540876  0  2.471876  0
O  O69  1  0.86987523  0.41000501  0.04329617  1  0  -0.650989  0  2.171308  0  0  -0.565648  0  2.463693  0  0  -0.601048  0  2.450184  0  0  -0.329727  -0.540893  0  2.471871  0
O  O70  1  0.09056553  0.81528278  0.85661226  1  0  -0.631089  0  2.125741  0  0  -0.548385  0  2.397821  0  0  -0.582901  0  2.386106  0  0  -0.321532  -0.523972  0  2.4047  0
O  O71  1  0.90942746  0.18471247  0.14338511  1  0  -0.631069  0  2.125762  0  0  -0.54836  0  2.397844  0  0  -0.582878  0  2.386131  0  0  -0.321498  -0.523945  0  2.404718  0
O  O72  1  0.27463671  0.37817158  0.81242573  1  0  -0.66268  0  2.122407  0  0  -0.580561  0  2.397791  0  0  -0.61403  0  2.383495  0  0  -0.329453  -0.557025  0  2.406453  0
O  O73  1  0.72536437  0.62182568  0.18757418  1  0  -0.662576  0  2.122662  0  0  -0.580467  0  2.398043  0  0  -0.613935  0  2.383753  0  0  -0.32939  -0.556931  0  2.4067  0
O  O74  1  0.53817224  0.35461074  0.71639087  1  0  -0.58142  0  2.153098  0  0  -0.493474  0  2.415335  0  0  -0.528631  0  2.405821  0  0  -0.3145  -0.469223  0  2.420886  0
O  O75  1  0.46182640  0.64539517  0.28361056  1  0  -0.581431  0  2.153171  0  0  -0.493482  0  2.415425  0  0  -0.52864  0  2.405908  0  0  -0.314507  -0.46923  0  2.420979  0
O  O76  1  0.74241117  0.19520777  0.91785234  1  0  -0.659285  0  2.137598  0  0  -0.572665  0  2.405413  0  0  -0.607551  0  2.393664  0  0  -0.331799  -0.548167  0  2.412567  0
O  O77  1  0.25758446  0.80479620  0.08214316  1  0  -0.659338  0  2.137562  0  0  -0.572642  0  2.405424  0  0  -0.607528  0  2.393673  0  0  -0.331781  -0.548144  0  2.412578  0
O  O78  1  0.96400626  0.23724034  0.80623606  1  0  -0.647741  0  2.115048  0  0  -0.574265  0  2.372441  0  0  -0.602964  0  2.360155  0  0  -0.313183  -0.554208  0  2.380511  0
O  O79  1  0.03599933  0.76276125  0.19376263  1  0  -0.647731  0  2.115112  0  0  -0.574201  0  2.372593  0  0  -0.602899  0  2.360313  0  0  -0.31317  -0.554145  0  2.38066  0
O  O80  1  0.88244324  0.42858848  0.59456586  1  0  -0.60402  0  2.178429  0  0  -0.510702  0  2.467839  0  0  -0.548811  0  2.455703  0  0  -0.323921  -0.484225  0  2.47446  0
O  O81  1  0.11755434  0.57141099  0.40543395  1  0  -0.603981  0  2.178455  0  0  -0.510717  0  2.467812  0  0  -0.548827  0  2.455685  0  0  -0.323903  -0.484239  0  2.474431  0
O  O82  1  0.59772066  0.59590423  0.58557410  1  0  -0.580676  0  2.303123  0  0  -0.48888  0  2.56364  0  0  -0.527068  0  2.559203  0  0  -0.302712  -0.462492  0  2.565471  0
O  O83  1  0.40227866  0.40409416  0.41442503  1  0  -0.580569  0  2.303253  0  0  -0.488812  0  2.563698  0  0  -0.527003  0  2.559268  0  0  -0.302662  -0.462426  0  2.565528  0
O  O84  1  0.80752841  0.78278201  0.58669770  1  0  -0.661988  0  2.03461  0  0  -0.587481  0  2.290923  0  0  -0.617276  0  2.277422  0  0  -0.333265  -0.567834  0  2.299967  0
O  O85  1  0.19246741  0.21721856  0.41330206  1  0  -0.66194  0  2.034388  0  0  -0.587421  0  2.290699  0  0  -0.617218  0  2.277197  0  0  -0.33324  -0.567775  0  2.299745  0
O  O86  1  0.60521292  0.95521438  0.66241881  1  0  -0.645486  0  1.983201  0  0  -0.581739  0  2.226313  0  0  -0.608604  0  2.213115  0  0  -0.337819  -0.56309  0  2.234824  0
O  O87  1  0.39478474  0.04478493  0.33758540  1  0  -0.645464  0  1.983267  0  0  -0.58172  0  2.226382  0  0  -0.608584  0  2.213184  0  0  -0.337832  -0.563071  0  2.234894  0
O  O88  1  0.33026188  0.85888561  0.58718693  1  0  -0.581686  0  2.160671  0  0  -0.496985  0  2.430488  0  0  -0.529407  0  2.420216  0  0  -0.327062  -0.475326  0  2.436928  0
O  O89  1  0.66973831  0.14111374  0.41281559  1  0  -0.581701  0  2.160623  0  0  -0.496986  0  2.430517  0  0  -0.529409  0  2.420247  0  0  -0.32709  -0.475333  0  2.43696  0
O  O90  1  0.23698694  0.67015253  0.67430061  1  0  -0.595715  0  2.113779  0  0  -0.513548  0  2.37761  0  0  -0.549403  0  2.369182  0  0  -0.317345  -0.489631  0  2.382919  0
O  O91  1  0.76301275  0.32984797  0.32570028  1  0  -0.595728  0  2.113738  0  0  -0.513513  0  2.377599  0  0  -0.549364  0  2.369171  0  0  -0.317337  -0.489594  0  2.382902  0
O  O92  1  0.45586755  0.18371926  0.03676326  1  0  -0.858915  0  1.95218  0  0  -0.790453  0  2.172973  0  0  -0.815591  0  2.13594  0  0  -0.600986  -0.772399  0  2.198947  0
O  O93  1  0.54413121  0.81628340  0.96323803  1  0  -0.858868  0  1.95223  0  0  -0.790411  0  2.173023  0  0  -0.815552  0  2.135989  0  0  -0.600937  -0.772358  0  2.198998  0
O  O94  1  0.71297576  0.92494822  0.11952910  1  0  -0.816429  0  1.916505  0  0  -0.749992  0  2.115613  0  0  -0.774226  0  2.080877  0  0  -0.56862  -0.73253  0  2.136914  0
O  O95  1  0.28702218  0.07505338  0.88047174  1  0  -0.816383  0  1.916552  0  0  -0.749944  0  2.115667  0  0  -0.77418  0  2.080932  0  0  -0.568614  -0.732482  0  2.136971  0
O  O96  1  0.27720840  0.14923054  0.60606195  1  0  -0.830563  0  1.933065  0  0  -0.755724  0  2.139797  0  0  -0.782257  0  2.105124  0  0  -0.583416  -0.737468  0  2.163603  0
O  O97  1  0.72279017  0.85076663  0.39394112  1  0  -0.830605  0  1.933055  0  0  -0.755784  0  2.139784  0  0  -0.782314  0  2.105109  0  0  -0.5834  -0.737527  0  2.163592  0
