# generated using pymatgen
data_NaH35C26N2O
_symmetry_space_group_name_H-M   'P 1'
_cell_length_a   8.69322528
_cell_length_b   12.00090104
_cell_length_c   12.79120000
_cell_angle_alpha   72.93402280
_cell_angle_beta   79.75062508
_cell_angle_gamma   68.83101336
_symmetry_Int_Tables_number   1
_chemical_formula_structural   NaH35C26N2O
_chemical_formula_sum   'Na2 H70 C52 N4 O2'
_cell_volume   1185.73527847
_cell_formula_units_Z   2
loop_
 _symmetry_equiv_pos_site_id
 _symmetry_equiv_pos_as_xyz
  1  'x, y, z'
loop_
 _atom_site_type_symbol
 _atom_site_label
 _atom_site_symmetry_multiplicity
 _atom_site_fract_x
 _atom_site_fract_y
 _atom_site_fract_z
 _atom_site_occupancy
 _atom_site_hle17_bader_spin_density
 _atom_site_hle17_ddec_charge
 _atom_site_hle17_ddec_spin_density
 _atom_site_hle17_ddec_sum_bond_order
 _atom_site_hle17_magmom
 _atom_site_hse06_10hf_bader_spin_density
 _atom_site_hse06_10hf_ddec_charge
 _atom_site_hse06_10hf_ddec_spin_density
 _atom_site_hse06_10hf_ddec_sum_bond_order
 _atom_site_hse06_10hf_magmom
 _atom_site_hse06_bader_spin_density
 _atom_site_hse06_ddec_charge
 _atom_site_hse06_ddec_spin_density
 _atom_site_hse06_ddec_sum_bond_order
 _atom_site_hse06_magmom
 _atom_site_pbe_bader_charge
 _atom_site_pbe_bader_spin_density
 _atom_site_pbe_cm5_charge
 _atom_site_pbe_ddec_charge
 _atom_site_pbe_ddec_spin_density
 _atom_site_pbe_ddec_sum_bond_order
 _atom_site_pbe_magmom
Na  Na0  1  0.43162578  0.89499525  0.59322112  1  0  0.846951  0  0.438345  0  0  0.779852  0  0.611125  0  0  0.79141  0  0.590479  0  0.861207  0  0.579915  0.772344  0  0.624817  0
Na  Na1  1  0.56837655  0.10500618  0.40677531  1  0  0.846941  0  0.438357  0  0  0.779861  0  0.611073  0  0  0.791425  0  0.590441  0  0.861257  0  0.579911  0.772363  0  0.624777  0
H  H2  1  0.14822697  0.72293860  0.66104563  1  0  0.080622  0  1.012588  0  0  0.090524  0  1.083932  0  0  0.092884  0  1.082267  0  0.05718  0  0.094036  0.088889  0  1.085226  0
H  H3  1  0.85177694  0.27706191  0.33895165  1  0  0.080621  0  1.012591  0  0  0.090516  0  1.083946  0  0  0.092874  0  1.082287  0  0.057213  0  0.094049  0.088883  0  1.085241  0
H  H4  1  0.99729656  0.54587932  0.88727243  1  0  0.093441  0  0.950761  0  0  0.106888  0  1.010034  0  0  0.109557  0  1.009657  0  0.047455  0  0.096519  0.104202  0  1.011971  0
H  H5  1  0.00270180  0.45412580  0.11273363  1  0  0.093376  0  0.950627  0  0  0.106802  0  1.009936  0  0  0.109474  0  1.009555  0  0.047561  0  0.096451  0.104114  0  1.011878  0
H  H6  1  0.73143408  0.16423665  0.84177007  1  0  0.08686  0  0.964416  0  0  0.106289  0  1.030859  0  0  0.107504  0  1.030894  0  0.015046  0  0.081709  0.105458  0  1.030845  0
H  H7  1  0.26855626  0.83576017  0.15823065  1  0  0.086814  0  0.964468  0  0  0.106261  0  1.030897  0  0  0.107478  0  1.030923  0  0.01488  0  0.081697  0.105439  0  1.030874  0
H  H8  1  0.64193892  0.05336593  0.92905208  1  0  0.095711  0  0.947689  0  0  0.118036  0  1.006439  0  0  0.119452  0  1.006408  0  0.017221  0  0.084678  0.117227  0  1.006191  0
H  H9  1  0.35805298  0.94662996  0.07094479  1  0  0.095732  0  0.947738  0  0  0.118059  0  1.006486  0  0  0.119469  0  1.006458  0  0.017247  0  0.08467  0.117248  0  1.006239  0
H  H10  1  0.51376181  0.20535949  0.87144638  1  0  0.085146  0  0.975298  0  0  0.107172  0  1.040044  0  0  0.108134  0  1.040678  0  0.017605  0  0.081246  0.106723  0  1.039137  0
H  H11  1  0.48623091  0.79463456  0.12855247  1  0  0.08521  0  0.975269  0  0  0.107172  0  1.040095  0  0  0.108126  0  1.040735  0  0.017613  0  0.081249  0.106723  0  1.039188  0
H  H12  1  0.18190369  0.37725372  0.81484112  1  0  0.098468  0  0.967686  0  0  0.119714  0  1.030879  0  0  0.121228  0  1.030486  0  0.020767  0  0.086512  0.117464  0  1.033667  0
H  H13  1  0.81810286  0.62275140  0.18515926  1  0  0.098474  0  0.967791  0  0  0.119731  0  1.030974  0  0  0.121245  0  1.030583  0  0.020542  0  0.086537  0.117488  0  1.033755  0
H  H14  1  0.12288425  0.36703715  0.69295451  1  0  0.107363  0  0.95745  0  0  0.129347  0  1.020135  0  0  0.130877  0  1.019764  0  0.061889  0  0.093157  0.128231  0  1.020191  0
H  H15  1  0.87711523  0.63297074  0.30704518  1  0  0.107366  0  0.957414  0  0  0.129351  0  1.020114  0  0  0.130886  0  1.019738  0  0.061826  0  0.093137  0.128235  0  1.020172  0
H  H16  1  0.09030631  0.26524516  0.81923327  1  0  0.103911  0  0.948087  0  0  0.126336  0  1.008184  0  0  0.128008  0  1.007369  0  0.01571  0  0.091699  0.125204  0  1.008712  0
H  H17  1  0.90969633  0.73476088  0.18076655  1  0  0.103886  0  0.94814  0  0  0.126327  0  1.008212  0  0  0.128  0  1.007396  0  0.015643  0  0.091677  0.125195  0  1.00874  0
H  H18  1  0.43621621  0.59045721  0.65855223  1  0  0.105415  0  0.952383  0  0  0.125721  0  1.016539  0  0  0.127254  0  1.015616  0  0.04595  0  0.094657  0.124627  0  1.017077  0
H  H19  1  0.56378845  0.40954422  0.34144626  1  0  0.105405  0  0.952358  0  0  0.125716  0  1.016513  0  0  0.127249  0  1.015589  0  0.045956  0  0.094653  0.124622  0  1.017048  0
H  H20  1  0.37024133  0.52496908  0.79312723  1  0  0.108367  0  0.936163  0  0  0.133001  0  0.989751  0  0  0.134309  0  0.989711  0  0.01827  0  0.09128  0.130667  0  0.993074  0
H  H21  1  0.62976257  0.47503143  0.20687005  1  0  0.108371  0  0.936151  0  0  0.132981  0  0.989776  0  0  0.134288  0  0.989737  0  0.018204  0  0.09127  0.130645  0  0.993101  0
H  H22  1  0.51313706  0.42779582  0.71218920  1  0  0.103916  0  0.975341  0  0  0.12556  0  1.037737  0  0  0.126966  0  1.037848  0  0.064877  0  0.089319  0.124371  0  1.037758  0
H  H23  1  0.48686878  0.57220562  0.28780915  1  0  0.103907  0  0.97537  0  0  0.125576  0  1.037733  0  0  0.126983  0  1.037842  0  0.064423  0  0.089362  0.124388  0  1.037753  0
H  H24  1  0.79796629  0.37645733  0.71552151  1  0  0.093961  0  0.96175  0  0  0.107542  0  1.022265  0  0  0.110081  0  1.021951  0  0.044815  0  0.098175  0.105887  0  1.02245  0
H  H25  1  0.20204184  0.62354687  0.28447971  1  0  0.093912  0  0.961789  0  0  0.107475  0  1.02234  0  0  0.110013  0  1.022028  0  0.044745  0  0.098146  0.105819  0  1.022523  0
H  H26  1  0.89780442  0.98353365  0.85099393  1  0  0.084346  0  0.98208  0  0  0.09739  0  1.04521  0  0  0.100304  0  1.042826  0  0.026858  0  0.092881  0.09519  0  1.04729  0
H  H27  1  0.10219059  0.01646316  0.14900544  1  0  0.084329  0  0.982014  0  0  0.097363  0  1.045162  0  0  0.100279  0  1.042774  0  0.036003  0  0.092863  0.095156  0  1.047248  0
H  H28  1  0.57469630  0.18659111  0.58119425  1  0  0.093785  0  0.992535  0  0  0.112413  0  1.059327  0  0  0.115283  0  1.057425  0  0.044991  0  0.087838  0.110102  0  1.061042  0
H  H29  1  0.42530562  0.81341124  0.41880354  1  0  0.093857  0  0.992488  0  0  0.112457  0  1.059298  0  0  0.115327  0  1.057396  0  0.04498  0  0.087846  0.110147  0  1.061013  0
H  H30  1  0.67938917  0.24743837  0.64639140  1  0  0.089475  0  0.974187  0  0  0.111255  0  1.038939  0  0  0.112231  0  1.039301  0  -0.010725  0  0.082608  0.110555  0  1.038592  0
H  H31  1  0.32061168  0.75255845  0.35361117  1  0  0.089488  0  0.974164  0  0  0.111264  0  1.038916  0  0  0.112241  0  1.039279  0  -0.010741  0  0.082599  0.110564  0  1.038571  0
H  H32  1  0.46076254  0.28110849  0.67173537  1  0  0.087022  0  0.966148  0  0  0.112335  0  1.024032  0  0  0.112907  0  1.025051  0  0.008724  0  0.081949  0.112029  0  1.023134  0
H  H33  1  0.53923867  0.71889017  0.32826352  1  0  0.087048  0  0.966123  0  0  0.11236  0  1.023999  0  0  0.112939  0  1.02501  0  0.008704  0  0.08198  0.11206  0  1.023093  0
H  H34  1  0.39926769  0.69597463  0.02268043  1  0  0.068457  0  0.948647  0  0  0.085225  0  1.012455  0  0  0.085144  0  1.013421  0  0.062671  0  0.10305  0.085389  0  1.011381  0
H  H35  1  0.60072727  0.30402495  0.97732209  1  0  0.068454  0  0.948634  0  0  0.08522  0  1.012452  0  0  0.085133  0  1.013417  0  0.062749  0  0.103044  0.085383  0  1.011382  0
H  H36  1  0.35509873  0.57685295  0.99064826  1  0  0.059792  0  0.961509  0  0  0.071776  0  1.031601  0  0  0.071746  0  1.033339  0  0.081114  0  0.09724  0.071415  0  1.030653  0
H  H37  1  0.64489466  0.42314756  0.00935342  1  0  0.059788  0  0.961516  0  0  0.07177  0  1.031612  0  0  0.071726  0  1.033362  0  0.081113  0  0.097238  0.071414  0  1.030661  0
H  H38  1  0.05551021  0.58893916  0.61184405  1  0  0.096987  0  0.969831  0  0  0.120103  0  1.028692  0  0  0.12058  0  1.030483  0  0.019564  0  0.082679  0.119753  0  1.027654  0
H  H39  1  0.94449060  0.41106042  0.38815307  1  0  0.097072  0  0.969853  0  0  0.120148  0  1.028744  0  0  0.120626  0  1.030533  0  0.019516  0  0.0827  0.119796  0  1.027708  0
H  H40  1  0.18184553  0.67041428  0.52050727  1  0  0.09039  0  0.968031  0  0  0.112896  0  1.027459  0  0  0.114012  0  1.027375  0  0.012855  0  0.083213  0.112177  0  1.027571  0
H  H41  1  0.81815568  0.32958438  0.47949005  1  0  0.09041  0  0.967979  0  0  0.112888  0  1.027435  0  0  0.114007  0  1.027348  0  0.012863  0  0.083202  0.11217  0  1.027546  0
H  H42  1  0.06285432  0.60977282  0.46790488  1  0  0.08684  0  0.968465  0  0  0.107044  0  1.034342  0  0  0.108107  0  1.034727  0  0.017135  0  0.080012  0.106257  0  1.034131  0
H  H43  1  0.93714491  0.39022769  0.53209140  1  0  0.086758  0  0.968586  0  0  0.106951  0  1.034468  0  0  0.108015  0  1.034851  0  0.017395  0  0.079986  0.106166  0  1.034254  0
H  H44  1  0.07829689  0.71256145  0.96788128  1  0  0.065688  0  0.94044  0  0  0.082718  0  1.004  0  0  0.083001  0  1.004503  0  0.049215  0  0.103156  0.082377  0  1.003851  0
H  H45  1  0.92169837  0.28744275  0.03211837  1  0  0.065703  0  0.940404  0  0  0.082733  0  1.003951  0  0  0.083018  0  1.004449  0  0.049161  0  0.103177  0.082392  0  1.003801  0
H  H46  1  0.13222823  0.83865322  0.97796174  1  0  0.064701  0  0.91378  0  0  0.082806  0  0.970163  0  0  0.083612  0  0.969287  0  0.015538  0  0.102519  0.08171  0  0.971493  0
H  H47  1  0.86777019  0.16134914  0.02203803  1  0  0.064753  0  0.913737  0  0  0.082853  0  0.970112  0  0  0.083657  0  0.96924  0  0.015563  0  0.102562  0.081758  0  0.971441  0
H  H48  1  0.41581093  0.04066235  0.70846123  1  0  0.090755  0  0.998096  0  0  0.10771  0  1.069001  0  0  0.110578  0  1.067107  0  0.011161  0  0.085646  0.105735  0  1.07007  0
H  H49  1  0.58418327  0.95933631  0.29153539  1  0  0.090855  0  0.998061  0  0  0.107765  0  1.069021  0  0  0.110631  0  1.067132  0  0.011299  0  0.085688  0.105793  0  1.070079  0
H  H50  1  0.34332695  0.12878179  0.80788019  1  0  0.084699  0  0.97608  0  0  0.108489  0  1.037248  0  0  0.109073  0  1.038351  0  0.006642  0  0.079128  0.107782  0  1.037069  0
H  H51  1  0.65666958  0.87121687  0.19211458  1  0  0.084729  0  0.976073  0  0  0.108512  0  1.037253  0  0  0.109102  0  1.038349  0  0.00664  0  0.07913  0.107801  0  1.037077  0
H  H52  1  0.46601149  0.97066858  0.84689358  1  0  0.09025  0  0.972412  0  0  0.110167  0  1.03801  0  0  0.111601  0  1.037961  0  0.032585  0  0.080914  0.108883  0  1.038589  0
H  H53  1  0.53398388  0.02933008  0.15310211  1  0  0.090303  0  0.972383  0  0  0.110231  0  1.037952  0  0  0.111662  0  1.037904  0  0.032398  0  0.080939  0.108946  0  1.038532  0
H  H54  1  0.81736942  0.74950944  0.91947978  1  0  0.107759  0  0.9707  0  0  0.128237  0  1.035427  0  0  0.129135  0  1.036599  0  0.061308  0  0.088599  0.126794  0  1.035438  0
H  H55  1  0.18262762  0.25048276  0.08054016  1  0  0.107745  0  0.970939  0  0  0.12825  0  1.035635  0  0  0.129147  0  1.036809  0  0.061184  0  0.088578  0.126806  0  1.035645  0
H  H56  1  0.70480776  0.67222394  0.02794780  1  0  0.090157  0  0.965636  0  0  0.111157  0  1.032898  0  0  0.112139  0  1.032466  0  0.032242  0  0.084353  0.110622  0  1.032849  0
H  H57  1  0.29519101  0.32775904  0.97206430  1  0  0.090127  0  0.965421  0  0  0.111113  0  1.032751  0  0  0.112093  0  1.032322  0  0.032528  0  0.084303  0.110579  0  1.032701  0
H  H58  1  0.59954604  0.79350779  0.92094344  1  0  0.108979  0  0.975314  0  0  0.126936  0  1.040293  0  0  0.128678  0  1.040003  0  0.046076  0  0.092733  0.125099  0  1.040939  0
H  H59  1  0.40044510  0.20648718  0.07907645  1  0  0.108926  0  0.97547  0  0  0.126954  0  1.040367  0  0  0.128697  0  1.040078  0  0.046014  0  0.092727  0.125116  0  1.041014  0
H  H60  1  0.05305385  0.88267187  0.40337740  1  0  0.101757  0  0.977549  0  0  0.121464  0  1.040498  0  0  0.121712  0  1.043531  0  0.047334  0  0.086544  0.121386  0  1.038177  0
H  H61  1  0.94694655  0.11732864  0.59662108  1  0  0.10176  0  0.977579  0  0  0.121466  0  1.040536  0  0  0.121714  0  1.043571  0  0.047351  0  0.08656  0.121388  0  1.038212  0
H  H62  1  0.94441832  0.82019030  0.34244525  1  0  0.083577  0  0.955501  0  0  0.107293  0  1.017187  0  0  0.107722  0  1.018414  0  -0.0078  0  0.079531  0.106745  0  1.016761  0
H  H63  1  0.05558050  0.17981113  0.65755238  1  0  0.083522  0  0.955542  0  0  0.107261  0  1.017193  0  0  0.107689  0  1.01842  0  -0.007783  0  0.079483  0.106703  0  1.016776  0
H  H64  1  0.71318432  0.70464917  0.61067995  1  0  0.08785  0  0.992892  0  0  0.103385  0  1.066119  0  0  0.103891  0  1.068542  0  0.004652  0  0.084646  0.102808  0  1.064808  0
H  H65  1  0.28681725  0.29535134  0.38931761  1  0  0.08785  0  0.992924  0  0  0.103388  0  1.066149  0  0  0.103892  0  1.068572  0  0.004834  0  0.084638  0.10281  0  1.064837  0
H  H66  1  0.78769816  0.66539228  0.48379284  1  0  0.089918  0  0.960938  0  0  0.114456  0  1.018744  0  0  0.115105  0  1.019553  0  0.011916  0  0.082003  0.113937  0  1.018274  0
H  H67  1  0.21230381  0.33460731  0.51620571  1  0  0.089927  0  0.960934  0  0  0.114469  0  1.018733  0  0  0.115119  0  1.01954  0  0.011935  0  0.082008  0.11395  0  1.018265  0
H  H68  1  0.66091389  0.81821269  0.48275832  1  0  0.078654  0  1.015849  0  0  0.097725  0  1.084127  0  0  0.10025  0  1.08229  0  0.028686  0  0.082531  0.095752  0  1.085672  0
H  H69  1  0.33908768  0.18178782  0.51723924  1  0  0.078672  0  1.015835  0  0  0.097758  0  1.084092  0  0  0.100263  0  1.082273  0  0.028518  0  0.082549  0.095783  0  1.085641  0
H  H70  1  0.83740559  0.94957008  0.39787328  1  0  0.073524  0  0.995308  0  0  0.090561  0  1.070732  0  0  0.092827  0  1.069211  0  -0.011831  0  0.080482  0.088905  0  1.071872  0
H  H71  1  0.16259364  0.05043043  0.60212691  1  0  0.07355  0  0.995301  0  0  0.090558  0  1.070757  0  0  0.092827  0  1.069233  0  -0.011774  0  0.080487  0.088907  0  1.07188  0
C  C72  1  0.62141171  0.52781783  0.77469456  1  0  0.081718  0  3.772846  0  0  0.103238  0  4.017334  0  0  0.10451  0  4.040873  0  -0.048395  0  -0.008128  0.103809  0  3.999783  0
C  C73  1  0.37859178  0.47218360  0.22530643  1  0  0.081594  0  3.773028  0  0  0.103226  0  4.017387  0  0  0.104459  0  4.040981  0  -0.048527  0  -0.008124  0.103797  0  3.999835  0
C  C74  1  0.75706298  0.98856212  0.72538416  1  0  -0.092408  0  3.628478  0  0  -0.071783  0  3.856472  0  0  -0.078199  0  3.882557  0  0.006423  0  -0.029631  -0.068056  0  3.838685  0
C  C75  1  0.24293548  0.01143747  0.27461324  1  0  -0.0924  0  3.628573  0  0  -0.071751  0  3.856578  0  0  -0.07816  0  3.88266  0  0.006379  0  -0.029615  -0.068025  0  3.838787  0
C  C76  1  0.03791185  0.79844305  0.67533315  1  0  -0.19647  0  3.830927  0  0  -0.229138  0  4.090386  0  0  -0.230458  0  4.112337  0  -0.091899  0  -0.109836  -0.227893  0  4.075271  0
C  C77  1  0.96209246  0.20155653  0.32466433  1  0  -0.196473  0  3.831025  0  0  -0.229117  0  4.090455  0  0  -0.230433  0  4.112394  0  -0.092357  0  -0.109841  -0.227885  0  4.075361  0
C  C78  1  0.89198850  0.53939926  0.85667201  1  0  -0.192984  0  3.723754  0  0  -0.221701  0  3.970462  0  0  -0.227173  0  3.99207  0  -0.022061  0  -0.10096  -0.217641  0  3.956213  0
C  C79  1  0.10801342  0.46060310  0.14333203  1  0  -0.192858  0  3.723559  0  0  -0.221535  0  3.970281  0  0  -0.227008  0  3.991892  0  -0.021774  0  -0.100893  -0.217474  0  3.956028  0
C  C80  1  0.33636985  0.76970819  0.77105635  1  0  -0.217212  0  3.253515  0  0  -0.276642  0  3.578865  0  0  -0.257059  0  3.577821  0  0.785402  0  0.018779  -0.28943  0  3.578941  0
C  C81  1  0.66363050  0.23029509  0.22894372  1  0  -0.217212  0  3.253518  0  0  -0.2766  0  3.578896  0  0  -0.257022  0  3.577861  0  0.785068  0  0.018799  -0.289391  0  3.578973  0
C  C82  1  0.75894758  0.93845560  0.63494987  1  0  0.298232  0  3.850217  0  0  0.282724  0  4.103024  0  0  0.296007  0  4.12025  0  0.707972  0  0.076494  0.274834  0  4.090474  0
C  C83  1  0.24105206  0.06154399  0.36504818  1  0  0.298207  0  3.850162  0  0  0.282613  0  4.103104  0  0  0.295889  0  4.120336  0  0.707966  0  0.076439  0.274728  0  4.090544  0
C  C84  1  0.03819074  0.85131619  0.75900886  1  0  0.130539  0  3.883073  0  0  0.121188  0  4.145642  0  0  0.123231  0  4.170641  0  0.307131  0  0.055553  0.119519  0  4.128678  0
C  C85  1  0.96181007  0.14868339  0.24098982  1  0  0.130552  0  3.883121  0  0  0.121232  0  4.14568  0  0  0.123274  0  4.170676  0  0.307352  0  0.055543  0.119562  0  4.128713  0
C  C86  1  0.90317894  0.83793618  0.61333771  1  0  -0.078624  0  3.626364  0  0  -0.056881  0  3.852378  0  0  -0.062336  0  3.877887  0  0.015659  0  -0.025855  -0.053514  0  3.835099  0
C  C87  1  0.09682187  0.16206340  0.38666098  1  0  -0.078621  0  3.626297  0  0  -0.056851  0  3.85237  0  0  -0.062301  0  3.877881  0  0.015945  0  -0.02585  -0.053484  0  3.835089  0
C  C88  1  0.60521492  0.09365454  0.75414989  1  0  0.22755  0  3.565129  0  0  0.26725  0  3.776948  0  0  0.268447  0  3.798232  0  0.084647  0  -0.009356  0.266471  0  3.762666  0
C  C89  1  0.39478395  0.90634413  0.24584615  1  0  0.227438  0  3.565141  0  0  0.267163  0  3.77694  0  0  0.268357  0  3.798223  0  0.084191  0  -0.009444  0.26639  0  3.762643  0
C  C90  1  0.59946063  0.61743871  0.83216650  1  0  0.04696  0  3.732089  0  0  0.030403  0  3.978281  0  0  0.032214  0  4.000752  0  0.389012  0  0.08531  0.028819  0  3.963505  0
C  C91  1  0.40053977  0.38256180  0.16783824  1  0  0.047075  0  3.732131  0  0  0.030498  0  3.978374  0  0  0.032324  0  4.000852  0  0.388935  0  0.08535  0.028915  0  3.963597  0
C  C92  1  0.91414458  0.77456685  0.52218685  1  0  0.229303  0  3.548733  0  0  0.266688  0  3.763174  0  0  0.268578  0  3.781687  0  0.071917  0  -0.008501  0.265768  0  3.749545  0
C  C93  1  0.08585582  0.22543366  0.47781164  1  0  0.229323  0  3.548631  0  0  0.26662  0  3.763213  0  0  0.26851  0  3.781727  0  0.071717  0  -0.008496  0.265692  0  3.749615  0
C  C94  1  0.62581394  0.13039673  0.85499685  1  0  -0.339061  0  3.695088  0  0  -0.418249  0  3.932028  0  0  -0.421257  0  3.943015  0  -0.082889  0  -0.24564  -0.415737  0  3.923529  0
C  C95  1  0.37417914  0.86959916  0.14500145  1  0  -0.339053  0  3.6951  0  0  -0.418192  0  3.932016  0  0  -0.421214  0  3.943059  0  -0.082369  0  -0.245579  -0.41569  0  3.92351  0
C  C96  1  0.08690915  0.36099266  0.78083406  1  0  -0.337789  0  3.745064  0  0  -0.420783  0  3.984208  0  0  -0.423068  0  3.992788  0  -0.064215  0  -0.237241  -0.418556  0  3.978572  0
C  C97  1  0.91309425  0.63901431  0.21916697  1  0  -0.337694  0  3.745166  0  0  -0.420727  0  3.984251  0  0  -0.423018  0  3.992833  0  -0.063902  0  -0.23721  -0.418507  0  3.978612  0
C  C98  1  0.47813457  0.51673934  0.73254294  1  0  -0.321089  0  3.731402  0  0  -0.402164  0  3.964986  0  0  -0.404087  0  3.973974  0  -0.065612  0  -0.239013  -0.400516  0  3.959707  0
C  C99  1  0.52186893  0.48326209  0.26745569  1  0  -0.321074  0  3.731465  0  0  -0.402189  0  3.965038  0  0  -0.404103  0  3.974041  0  -0.065185  0  -0.239065  -0.400543  0  3.959761  0
C  C100  1  0.91780487  0.45081748  0.79920175  1  0  0.147931  0  3.808658  0  0  0.173625  0  4.050047  0  0  0.176127  0  4.074594  0  -0.048537  0  -0.015124  0.172566  0  4.032501  0
C  C101  1  0.08219741  0.54918672  0.20080174  1  0  0.147653  0  3.808635  0  0  0.173401  0  4.049964  0  0  0.175904  0  4.074513  0  -0.048923  0  -0.015197  0.172343  0  4.032416  0
C  C102  1  0.78065341  0.44625781  0.75936156  1  0  -0.196094  0  3.717898  0  0  -0.223321  0  3.960113  0  0  -0.228975  0  3.982052  0  -0.029318  0  -0.100674  -0.219444  0  3.944407  0
C  C103  1  0.21935045  0.55374546  0.24063887  1  0  -0.195921  0  3.717937  0  0  -0.223181  0  3.960102  0  0  -0.228816  0  3.982039  0  -0.028938  0  -0.100605  -0.219303  0  3.944395  0
C  C104  1  0.89660082  0.94407374  0.78465669  1  0  -0.192608  0  3.827299  0  0  -0.223294  0  4.085857  0  0  -0.223795  0  4.106026  0  -0.128953  0  -0.111733  -0.221986  0  4.071931  0
C  C105  1  0.10339805  0.05592492  0.21534092  1  0  -0.192592  0  3.827319  0  0  -0.223281  0  4.085872  0  0  -0.22378  0  4.106036  0  -0.138098  0  -0.111727  -0.221966  0  4.071948  0
C  C106  1  0.73433057  0.62273294  0.87475561  1  0  0.093346  0  3.75499  0  0  0.113711  0  4.00125  0  0  0.115606  0  4.023814  0  -0.03926  0  -0.006085  0.111837  0  3.986398  0
C  C107  1  0.26566826  0.37726849  0.12524906  1  0  0.093352  0  3.755001  0  0  0.113624  0  4.00143  0  0  0.115519  0  4.023994  0  -0.039316  0  -0.006136  0.11175  0  3.98658  0
C  C108  1  0.57840735  0.20943929  0.65727545  1  0  -0.336119  0  3.662693  0  0  -0.416233  0  3.893053  0  0  -0.419388  0  3.902858  0  -0.069441  0  -0.243273  -0.413818  0  3.885948  0
C  C109  1  0.42159229  0.79056030  0.34272260  1  0  -0.33623  0  3.662642  0  0  -0.416319  0  3.89302  0  0  -0.419476  0  3.902817  0  -0.069432  0  -0.243308  -0.41391  0  3.885913  0
C  C110  1  0.93872994  0.86139619  0.41003503  1  0  -0.322503  0  3.662646  0  0  -0.400335  0  3.895021  0  0  -0.404137  0  3.907084  0  -0.042306  0  -0.240787  -0.397589  0  3.886604  0
C  C111  1  0.06127005  0.13860524  0.58996247  1  0  -0.322494  0  3.662642  0  0  -0.400296  0  3.895037  0  0  -0.404099  0  3.907097  0  -0.042351  0  -0.240755  -0.397536  0  3.886625  0
C  C112  1  0.34669173  0.67449224  0.96227130  1  0  -0.012694  0  3.57364  0  0  -0.070912  0  3.82719  0  0  -0.066748  0  3.838264  0  0.20411  0  -0.060552  -0.073713  0  3.819594  0
C  C113  1  0.65330400  0.32550827  0.03773010  1  0  -0.012681  0  3.573693  0  0  -0.07085  0  3.827168  0  0  -0.066689  0  3.838279  0  0.204221  0  -0.060516  -0.073661  0  3.819577  0
C  C114  1  0.06274548  0.65420120  0.53185622  1  0  -0.337018  0  3.674379  0  0  -0.413136  0  3.903932  0  0  -0.415774  0  3.914418  0  -0.073456  0  -0.244557  -0.4111  0  3.89647  0
C  C115  1  0.93725492  0.34579930  0.46813992  1  0  -0.337028  0  3.674431  0  0  -0.413061  0  3.904012  0  0  -0.415699  0  3.914498  0  -0.073664  0  -0.244548  -0.411024  0  3.896545  0
C  C116  1  0.17009543  0.76052241  0.93998238  1  0  -0.001182  0  3.569561  0  0  -0.059949  0  3.824187  0  0  -0.055377  0  3.834274  0  0.281426  0  -0.055781  -0.062915  0  3.817715  0
C  C117  1  0.82990298  0.23947995  0.06001818  1  0  -0.001247  0  3.569507  0  0  -0.059973  0  3.82411  0  0  -0.055398  0  3.834185  0  0.281313  0  -0.05583  -0.062938  0  3.817637  0
C  C118  1  0.44818773  0.05570067  0.78080512  1  0  -0.331128  0  3.662441  0  0  -0.410104  0  3.893446  0  0  -0.413589  0  3.903643  0  -0.064639  0  -0.24296  -0.407335  0  3.886941  0
C  C119  1  0.55180998  0.94429799  0.21918950  1  0  -0.33125  0  3.662489  0  0  -0.410223  0  3.893495  0  0  -0.413706  0  3.903689  0  -0.064512  0  -0.242992  -0.407451  0  3.886999  0
C  C120  1  0.71261314  0.71444586  0.93903696  1  0  -0.321924  0  3.729623  0  0  -0.406474  0  3.971759  0  0  -0.408637  0  3.981042  0  -0.093341  0  -0.239608  -0.403919  0  3.965482  0
C  C121  1  0.28738075  0.28554819  0.06097738  1  0  -0.321796  0  3.729651  0  0  -0.406401  0  3.971739  0  0  -0.408564  0  3.981026  0  -0.093425  0  -0.239475  -0.403843  0  3.965461  0
C  C122  1  0.75848978  0.73940545  0.52580219  1  0  -0.34417  0  3.668864  0  0  -0.422142  0  3.897727  0  0  -0.425247  0  3.907922  0  -0.076393  0  -0.24953  -0.41958  0  3.890679  0
C  C123  1  0.24151061  0.26059506  0.47419551  1  0  -0.344199  0  3.668895  0  0  -0.422173  0  3.897798  0  0  -0.425264  0  3.908014  0  -0.076305  0  -0.249538  -0.419606  0  3.890739  0
N  N124  1  0.43684944  0.69810266  0.85217207  1  0  -0.146772  0  3.591189  0  0  -0.054005  0  3.822519  0  0  -0.07291  0  3.846898  0  -1.208263  0  -0.275233  -0.041455  0  3.805925  0
N  N125  1  0.56314898  0.30189969  0.14782849  1  0  -0.146792  0  3.591282  0  0  -0.054098  0  3.822729  0  0  -0.073006  0  3.847106  0  -1.208289  0  -0.275297  -0.041545  0  3.806136  0
N  N126  1  0.18139337  0.80463242  0.81835514  1  0  -0.132109  0  3.591613  0  0  -0.037055  0  3.816542  0  0  -0.056116  0  3.841731  0  -1.220015  0  -0.26301  -0.024343  0  3.799755  0
N  N127  1  0.81860702  0.19536808  0.18164569  1  0  -0.132128  0  3.591682  0  0  -0.037139  0  3.816659  0  0  -0.056198  0  3.841843  0  -1.219705  0  -0.263014  -0.024424  0  3.799867  0
O  O128  1  0.63248418  0.98232937  0.57446096  1  0  -0.791113  0  2.032389  0  0  -0.724051  0  2.27863  0  0  -0.747681  0  2.272575  0  -1.263606  0  -0.540234  -0.707783  0  2.281546  0
O  O129  1  0.36751973  0.01767114  0.42553319  1  0  -0.791096  0  2.032417  0  0  -0.723976  0  2.278657  0  0  -0.747607  0  2.272609  0  -1.26357  0  -0.540162  -0.707712  0  2.281572  0
