# generated using pymatgen
data_SrH12C10(NO)6
_symmetry_space_group_name_H-M   'P 1'
_cell_length_a   4.39264282
_cell_length_b   12.06024813
_cell_length_c   13.34637454
_cell_angle_alpha   91.58171828
_cell_angle_beta   99.43942554
_cell_angle_gamma   90.05439135
_symmetry_Int_Tables_number   1
_chemical_formula_structural   SrH12C10(NO)6
_chemical_formula_sum   'Sr2 H24 C20 N12 O12'
_cell_volume   697.19218970
_cell_formula_units_Z   2
loop_
 _symmetry_equiv_pos_site_id
 _symmetry_equiv_pos_as_xyz
  1  'x, y, z'
loop_
 _atom_site_type_symbol
 _atom_site_label
 _atom_site_symmetry_multiplicity
 _atom_site_fract_x
 _atom_site_fract_y
 _atom_site_fract_z
 _atom_site_occupancy
 _atom_site_hle17_bader_spin_density
 _atom_site_hle17_ddec_charge
 _atom_site_hle17_ddec_spin_density
 _atom_site_hle17_ddec_sum_bond_order
 _atom_site_hle17_magmom
 _atom_site_hse06_10hf_bader_spin_density
 _atom_site_hse06_10hf_ddec_charge
 _atom_site_hse06_10hf_ddec_spin_density
 _atom_site_hse06_10hf_ddec_sum_bond_order
 _atom_site_hse06_10hf_magmom
 _atom_site_hse06_bader_spin_density
 _atom_site_hse06_ddec_charge
 _atom_site_hse06_ddec_spin_density
 _atom_site_hse06_ddec_sum_bond_order
 _atom_site_hse06_magmom
 _atom_site_pbe_bader_spin_density
 _atom_site_pbe_cm5_charge
 _atom_site_pbe_ddec_charge
 _atom_site_pbe_ddec_spin_density
 _atom_site_pbe_ddec_sum_bond_order
 _atom_site_pbe_magmom
Sr  Sr0  1  0.63123455  0.74983236  0.99994693  1  0  1.615759  0  1.011905  0  0  1.464403  0  1.37127  0  0  1.503429  0  1.327018  0  0  0.92699  1.435636  0  1.402674  0
Sr  Sr1  1  0.36878707  0.25016809  0.00005713  1  0  1.615701  0  1.011987  0  0  1.464376  0  1.371298  0  0  1.503405  0  1.327041  0  0  0.926952  1.435603  0  1.402708  0
H  H2  1  0.20777978  0.55605916  0.54553836  1  0  0.315851  0  0.951027  0  0  0.286724  0  1.034773  0  0  0.296269  0  1.02642  0  0  0.28685  0.27997  0  1.040602  0
H  H3  1  0.66248218  0.94418046  0.45443545  1  0  0.316242  0  0.951024  0  0  0.287498  0  1.033983  0  0  0.297017  0  1.025652  0  0  0.287363  0.280748  0  1.039827  0
H  H4  1  0.79220537  0.44395527  0.45446778  1  0  0.315739  0  0.951116  0  0  0.286621  0  1.034845  0  0  0.296168  0  1.026491  0  0  0.286788  0.279867  0  1.040674  0
H  H5  1  0.33751291  0.05580836  0.54555759  1  0  0.316122  0  0.951106  0  0  0.287391  0  1.034072  0  0  0.296918  0  1.025733  0  0  0.2873  0.280639  0  1.039914  0
H  H6  1  0.45575115  0.56378656  0.66751120  1  0  0.330973  0  0.928978  0  0  0.310565  0  0.994791  0  0  0.318434  0  0.989224  0  0  0.2986  0.304962  0  0.998765  0
H  H7  1  0.78776332  0.93660774  0.33225396  1  0  0.332356  0  0.928217  0  0  0.311538  0  0.994608  0  0  0.31945  0  0.988938  0  0  0.298896  0.30592  0  0.998595  0
H  H8  1  0.54426064  0.43622231  0.33249791  1  0  0.330743  0  0.929281  0  0  0.310422  0  0.994975  0  0  0.318291  0  0.98941  0  0  0.298524  0.304818  0  0.998947  0
H  H9  1  0.21222898  0.06338321  0.66774146  1  0  0.332364  0  0.928064  0  0  0.311561  0  0.994461  0  0  0.319475  0  0.988789  0  0  0.298909  0.305944  0  0.998444  0
H  H10  1  0.60129689  0.25671718  0.57127227  1  0  0.077381  0  0.942979  0  0  0.084493  0  1.00934  0  0  0.087382  0  1.007027  0  0  0.111492  0.082357  0  1.011066  0
H  H11  1  0.03106147  0.24330303  0.42933762  1  0  0.076268  0  0.944765  0  0  0.083613  0  1.010793  0  0  0.086503  0  1.008518  0  0  0.11095  0.081482  0  1.012494  0
H  H12  1  0.39868425  0.74330154  0.42873344  1  0  0.077317  0  0.943056  0  0  0.0844  0  1.009452  0  0  0.087295  0  1.007124  0  0  0.111464  0.082262  0  1.01118  0
H  H13  1  0.96891860  0.75668456  0.57065771  1  0  0.076212  0  0.944737  0  0  0.083561  0  1.010779  0  0  0.086457  0  1.008497  0  0  0.110919  0.081429  0  1.012486  0
H  H14  1  0.75901850  0.19108981  0.74914899  1  0  0.096161  0  0.954229  0  0  0.101386  0  1.022853  0  0  0.105062  0  1.02103  0  0  0.118841  0.098771  0  1.024275  0
H  H15  1  0.00972808  0.30888307  0.25126852  1  0  0.096006  0  0.954219  0  0  0.101237  0  1.022931  0  0  0.104933  0  1.021027  0  0  0.11866  0.098628  0  1.024395  0
H  H16  1  0.24101558  0.80890672  0.25084335  1  0  0.096238  0  0.954251  0  0  0.101469  0  1.022857  0  0  0.105159  0  1.021043  0  0  0.118814  0.098855  0  1.024278  0
H  H17  1  0.99026674  0.69111581  0.74872990  1  0  0.096054  0  0.954332  0  0  0.101267  0  1.023054  0  0  0.104962  0  1.021152  0  0  0.118661  0.098654  0  1.024514  0
H  H18  1  0.17332139  0.91177341  0.01246574  1  0  0.42598  0  0.881866  0  0  0.394658  0  0.946727  0  0  0.406839  0  0.928727  0  0  0.301879  0.38603  0  0.959462  0
H  H19  1  0.16032945  0.58809085  0.98747797  1  0  0.425309  0  0.882473  0  0  0.394157  0  0.947262  0  0  0.406321  0  0.929274  0  0  0.301924  0.385524  0  0.960012  0
H  H20  1  0.82669621  0.08822583  0.98753549  1  0  0.425871  0  0.881979  0  0  0.394528  0  0.946871  0  0  0.406708  0  0.928874  0  0  0.30183  0.3859  0  0.959605  0
H  H21  1  0.83968728  0.41190872  0.01252629  1  0  0.425389  0  0.882356  0  0  0.394259  0  0.94712  0  0  0.406412  0  0.92914  0  0  0.301944  0.385625  0  0.959871  0
H  H22  1  0.03617079  0.91297906  0.11912553  1  0  0.424669  0  0.886123  0  0  0.389471  0  0.956785  0  0  0.401925  0  0.938684  0  0  0.291664  0.38066  0  0.969577  0
H  H23  1  0.91784047  0.58722217  0.88059637  1  0  0.42482  0  0.885833  0  0  0.389337  0  0.957061  0  0  0.401857  0  0.938875  0  0  0.291785  0.380499  0  0.969878  0
H  H24  1  0.96384417  0.08701612  0.88087482  1  0  0.424684  0  0.88609  0  0  0.389497  0  0.956742  0  0  0.401955  0  0.938634  0  0  0.29165  0.380684  0  0.969534  0
H  H25  1  0.08217642  0.41277671  0.11940703  1  0  0.424765  0  0.885894  0  0  0.389352  0  0.957047  0  0  0.401872  0  0.93886  0  0  0.291766  0.380513  0  0.969865  0
C  C26  1  0.49771904  0.45270519  0.82666831  1  0  0.661984  0  3.910512  0  0  0.601949  0  4.215796  0  0  0.636829  0  4.207151  0  0  0.223474  0.578367  0  4.220975  0
C  C27  1  0.66974713  0.04753519  0.17315167  1  0  0.659123  0  3.913213  0  0  0.599541  0  4.218054  0  0  0.634389  0  4.209474  0  0  0.222589  0.575974  0  4.223202  0
C  C28  1  0.50228696  0.54729808  0.17333407  1  0  0.661933  0  3.910891  0  0  0.601913  0  4.216165  0  0  0.636799  0  4.207517  0  0  0.223439  0.578331  0  4.221344  0
C  C29  1  0.33022882  0.95245271  0.82684183  1  0  0.659145  0  3.912639  0  0  0.599553  0  4.21749  0  0  0.6344  0  4.208915  0  0  0.222689  0.575985  0  4.222637  0
C  C30  1  0.24168903  0.39945768  0.75304168  1  0  -0.078379  0  3.719579  0  0  -0.067542  0  3.968863  0  0  -0.076317  0  3.986961  0  0  0.105098  -0.06214  0  3.956848  0
C  C31  1  0.48785415  0.10067820  0.24695050  1  0  -0.076827  0  3.717804  0  0  -0.066598  0  3.967351  0  0  -0.075366  0  3.985462  0  0  0.105086  -0.061216  0  3.955371  0
C  C32  1  0.75832277  0.60055711  0.24696228  1  0  -0.078355  0  3.719078  0  0  -0.067502  0  3.96837  0  0  -0.076277  0  3.986462  0  0  0.104993  -0.062096  0  3.956355  0
C  C33  1  0.51212162  0.89930490  0.75304147  1  0  -0.076554  0  3.717539  0  0  -0.066295  0  3.967013  0  0  -0.075064  0  3.985133  0  0  0.105084  -0.06092  0  3.955048  0
C  C34  1  0.14490604  0.44041132  0.65256593  1  0  0.438704  0  3.815  0  0  0.40545  0  4.080806  0  0  0.424287  0  4.094058  0  0  0.236816  0.39279  0  4.071628  0
C  C35  1  0.49220673  0.05982789  0.34752786  1  0  0.437767  0  3.81357  0  0  0.404903  0  4.078934  0  0  0.423765  0  4.092155  0  0  0.236821  0.392225  0  4.069797  0
C  C36  1  0.85508777  0.55959365  0.34744632  1  0  0.438725  0  3.814819  0  0  0.40544  0  4.080763  0  0  0.42428  0  4.094009  0  0  0.236892  0.392775  0  4.07159  0
C  C37  1  0.50775822  0.94016041  0.65246322  1  0  0.437443  0  3.81421  0  0  0.404679  0  4.079435  0  0  0.42354  0  4.092663  0  0  0.236792  0.392004  0  4.070292  0
C  C38  1  0.78527264  0.29919880  0.62349198  1  0  0.101745  0  3.749676  0  0  0.071596  0  4.015465  0  0  0.079532  0  4.029931  0  0  0.046413  0.066551  0  4.005582  0
C  C39  1  0.16219280  0.20091993  0.37689746  1  0  0.102482  0  3.7509  0  0  0.072266  0  4.016585  0  0  0.080184  0  4.031067  0  0  0.047148  0.067224  0  4.006704  0
C  C40  1  0.21472052  0.70082081  0.37651341  1  0  0.101929  0  3.750045  0  0  0.07185  0  4.015813  0  0  0.079792  0  4.030283  0  0  0.046532  0.066807  0  4.005926  0
C  C41  1  0.83778748  0.79907012  0.62309829  1  0  0.102625  0  3.751098  0  0  0.072416  0  4.016777  0  0  0.080333  0  4.031264  0  0  0.04722  0.067375  0  4.006892  0
C  C42  1  0.87361925  0.26154350  0.72195774  1  0  0.015314  0  3.748163  0  0  -0.017182  0  4.029446  0  0  -0.020591  0  4.047834  0  0  0.022928  -0.015328  0  4.01721  0
C  C43  1  0.15130581  0.23844225  0.27834703  1  0  0.01478  0  3.748387  0  0  -0.017981  0  4.030082  0  0  -0.021364  0  4.04846  0  0  0.023134  -0.016156  0  4.017856  0
C  C44  1  0.12638225  0.73847206  0.27804163  1  0  0.015229  0  3.748237  0  0  -0.017251  0  4.029423  0  0  -0.020688  0  4.04784  0  0  0.022964  -0.015394  0  4.017189  0
C  C45  1  0.84870290  0.76155257  0.72165043  1  0  0.014642  0  3.748557  0  0  -0.018103  0  4.030239  0  0  -0.02149  0  4.04862  0  0  0.023089  -0.016266  0  4.018  0
N  N46  1  0.10483027  0.31136289  0.78549930  1  0  -0.288166  0  3.192029  0  0  -0.25036  0  3.457861  0  0  -0.253639  0  3.474725  0  0  -0.304634  -0.247375  0  3.446241  0
N  N47  1  0.31849989  0.18868316  0.21462211  1  0  -0.287773  0  3.189954  0  0  -0.249711  0  3.455909  0  0  -0.253013  0  3.472778  0  0  -0.304952  -0.246708  0  3.444295  0
N  N48  1  0.89519581  0.68864178  0.21449973  1  0  -0.288215  0  3.1922  0  0  -0.250408  0  3.458064  0  0  -0.253688  0  3.474937  0  0  -0.3046  -0.247426  0  3.446443  0
N  N49  1  0.68149262  0.81131025  0.78537372  1  0  -0.287909  0  3.190054  0  0  -0.249854  0  3.455996  0  0  -0.253158  0  3.472868  0  0  -0.305007  -0.246848  0  3.444379  0
N  N50  1  0.91768061  0.38624489  0.58810369  1  0  -0.39086  0  3.061106  0  0  -0.339121  0  3.318329  0  0  -0.35347  0  3.328684  0  0  -0.314255  -0.329449  0  3.311224  0
N  N51  1  0.33005574  0.11396391  0.41217656  1  0  -0.390428  0  3.05947  0  0  -0.338924  0  3.316672  0  0  -0.353281  0  3.327013  0  0  -0.31494  -0.329243  0  3.309573  0
N  N52  1  0.08230397  0.61378457  0.41190327  1  0  -0.39098  0  3.061323  0  0  -0.339325  0  3.318647  0  0  -0.35368  0  3.329001  0  0  -0.314421  -0.329647  0  3.311539  0
N  N53  1  0.66991980  0.88601907  0.58781612  1  0  -0.390368  0  3.059765  0  0  -0.338938  0  3.316945  0  0  -0.353299  0  3.327291  0  0  -0.314946  -0.329254  0  3.309839  0
N  N54  1  0.27034796  0.53097300  0.61949813  1  0  -0.656491  0  3.146476  0  0  -0.616335  0  3.388666  0  0  -0.640858  0  3.387233  0  0  -0.571486  -0.599155  0  3.389306  0
N  N55  1  0.65097351  0.96939763  0.38049412  1  0  -0.658823  0  3.147011  0  0  -0.618715  0  3.388941  0  0  -0.643272  0  3.387481  0  0  -0.572241  -0.601507  0  3.389617  0
N  N56  1  0.72965552  0.46904942  0.38050556  1  0  -0.656147  0  3.147109  0  0  -0.616057  0  3.389222  0  0  -0.640578  0  3.387792  0  0  -0.571319  -0.598877  0  3.389858  0
N  N57  1  0.34902502  0.03058818  0.61950179  1  0  -0.65852  0  3.147312  0  0  -0.618464  0  3.389135  0  0  -0.643023  0  3.387665  0  0  -0.572112  -0.601254  0  3.389804  0
O  O58  1  0.11501424  0.86399224  0.06617240  1  0  -0.938712  0  1.814493  0  0  -0.873156  0  2.011392  0  0  -0.895639  0  1.976717  0  0  -0.646423  -0.857073  0  2.035576  0
O  O59  1  0.04917443  0.63606508  0.93384948  1  0  -0.938258  0  1.815485  0  0  -0.872631  0  2.011742  0  0  -0.895108  0  1.976988  0  0  -0.646768  -0.856532  0  2.035991  0
O  O60  1  0.88498149  0.13600946  0.93382427  1  0  -0.938642  0  1.81447  0  0  -0.873075  0  2.011384  0  0  -0.895551  0  1.976684  0  0  -0.646376  -0.856987  0  2.035567  0
O  O61  1  0.95084675  0.36393279  0.06615489  1  0  -0.938264  0  1.815466  0  0  -0.87274  0  2.011566  0  0  -0.895204  0  1.976841  0  0  -0.646781  -0.85664  0  2.03582  0
O  O62  1  0.54697782  0.41568465  0.91618868  1  0  -0.716706  0  2.08383  0  0  -0.650962  0  2.3349  0  0  -0.678229  0  2.322983  0  0  -0.374443  -0.631758  0  2.342571  0
O  O63  1  0.62945984  0.08465386  0.08367454  1  0  -0.715286  0  2.085042  0  0  -0.649697  0  2.336117  0  0  -0.676918  0  2.324086  0  0  -0.374011  -0.630532  0  2.343867  0
O  O64  1  0.45304357  0.58431568  0.08381610  1  0  -0.716666  0  2.084062  0  0  -0.650946  0  2.335185  0  0  -0.678196  0  2.323226  0  0  -0.374461  -0.631741  0  2.342855  0
O  O65  1  0.37054238  0.91534048  0.91632076  1  0  -0.715329  0  2.084863  0  0  -0.649719  0  2.335933  0  0  -0.676938  0  2.323902  0  0  -0.374036  -0.630553  0  2.343686  0
O  O66  1  0.65117710  0.53120045  0.79663400  1  0  -0.627281  0  2.007552  0  0  -0.563655  0  2.23133  0  0  -0.58946  0  2.223642  0  0  -0.295881  -0.545786  0  2.236258  0
O  O67  1  0.85279225  0.96898883  0.20297356  1  0  -0.625655  0  2.006925  0  0  -0.562139  0  2.230415  0  0  -0.587824  0  2.222553  0  0  -0.295308  -0.544288  0  2.23535  0
O  O68  1  0.34883183  0.46880973  0.20337735  1  0  -0.627279  0  2.007757  0  0  -0.563691  0  2.231499  0  0  -0.589501  0  2.22381  0  0  -0.295836  -0.54582  0  2.236425  0
O  O69  1  0.14718946  0.03100744  0.79702026  1  0  -0.625673  0  2.006735  0  0  -0.56226  0  2.230327  0  0  -0.587946  0  2.222454  0  0  -0.295379  -0.544422  0  2.235308  0
