# generated using pymatgen
data_AlH11C16O5
_symmetry_space_group_name_H-M   'P 1'
_cell_length_a   6.68148701
_cell_length_b   17.50720174
_cell_length_c   21.11954918
_cell_angle_alpha   107.61744166
_cell_angle_beta   90.00194005
_cell_angle_gamma   90.00702656
_symmetry_Int_Tables_number   1
_chemical_formula_structural   AlH11C16O5
_chemical_formula_sum   'Al4 H44 C64 O20'
_cell_volume   2354.57389678
_cell_formula_units_Z   4
loop_
 _symmetry_equiv_pos_site_id
 _symmetry_equiv_pos_as_xyz
  1  'x, y, z'
loop_
 _atom_site_type_symbol
 _atom_site_label
 _atom_site_symmetry_multiplicity
 _atom_site_fract_x
 _atom_site_fract_y
 _atom_site_fract_z
 _atom_site_occupancy
 _atom_site_pbe_bader_charge
 _atom_site_pbe_bader_spin_density
 _atom_site_pbe_cm5_charge
 _atom_site_pbe_ddec_charge
 _atom_site_pbe_ddec_spin_density
 _atom_site_pbe_ddec_sum_bond_order
 _atom_site_pbe_magmom
Al  Al0  1  0.88521469  0.50018571  0.50044060  1  2.503892  0  0.403836  1.642316  0  2.587966  0
Al  Al1  1  0.38522101  0.49979822  0.49954001  1  2.504022  0  0.403683  1.64231  0  2.587926  0
Al  Al2  1  0.35777801  0.99983276  0.99973808  1  2.502958  0  0.403  1.6485  0  2.585285  0
Al  Al3  1  0.85779563  0.00011976  0.00011775  1  2.503624  0  0.402898  1.648417  0  2.585013  0
H  H4  1  0.43296985  0.25216204  0.69077519  1  0.050281  0  0.093416  0.093098  0  1.009411  0
H  H5  1  0.93270675  0.74808719  0.30936645  1  0.048294  0  0.093159  0.092741  0  1.010014  0
H  H6  1  0.86501393  0.15755614  0.74377600  1  0.079114  0  0.088414  0.0879  0  1.063122  0
H  H7  1  0.36467483  0.84238432  0.25618044  1  0.07785  0  0.088438  0.088168  0  1.062792  0
H  H8  1  0.09527073  0.11257395  0.71326433  1  0.047277  0  0.093735  0.099218  0  0.997835  0
H  H9  1  0.59481065  0.88746732  0.28674919  1  0.046987  0  0.093791  0.099134  0  0.998093  0
H  H10  1  0.10554378  0.18675561  0.63790627  1  0.026611  0  0.092429  0.089455  0  0.984137  0
H  H11  1  0.60512584  0.81330607  0.36211461  1  0.027192  0  0.092533  0.089804  0  0.984141  0
H  H12  1  0.87460288  0.23147468  0.66901054  1  0.016647  0  0.093779  0.094645  0  0.980813  0
H  H13  1  0.37432411  0.76846958  0.33095644  1  0.015491  0  0.093731  0.094885  0  0.980945  0
H  H14  1  0.84412690  0.27826200  0.82803587  1  0.06404  0  0.099843  0.077532  0  0.980821  0
H  H15  1  0.34415339  0.72163361  0.17189243  1  0.064611  0  0.099804  0.077519  0  0.980499  0
H  H16  1  0.09853259  0.40447692  0.80192898  1  0.072833  0  0.094683  0.096212  0  0.999968  0
H  H17  1  0.59877024  0.59556414  0.19810433  1  0.071074  0  0.094611  0.096151  0  0.999668  0
H  H18  1  0.40506945  0.27262631  0.83398726  1  0.046415  0  0.095603  0.068196  0  1.005044  0
H  H19  1  0.90502516  0.72752209  0.16612374  1  0.04633  0  0.095545  0.068044  0  1.004611  0
H  H20  1  0.42573898  0.34156425  0.75736346  1  0.019954  0  0.092868  0.094556  0  0.984451  0
H  H21  1  0.92583745  0.65866069  0.24279153  1  0.011423  0  0.093055  0.094841  0  0.984636  0
H  H22  1  0.87006038  0.36363764  0.76490787  1  0.035596  0  0.09581  0.101546  0  0.976882  0
H  H23  1  0.37017992  0.63630497  0.23505212  1  0.036344  0  0.095803  0.101469  0  0.976951  0
H  H24  1  0.41635076  0.12784135  0.65984574  1  0.004729  0  0.096119  0.091175  0  1.024991  0
H  H25  1  0.59325350  0.99863399  0.63279494  1  0.047483  0  0.097631  0.092404  0  0.996768  0
H  H26  1  0.74778172  0.95285841  0.72266701  1  0.11153  0  0.101169  0.097285  0  0.997732  0
H  H27  1  0.72653620  0.04070507  0.84052318  1  0.100081  0  0.103815  0.108056  0  1.010919  0
H  H28  1  0.54727720  0.16944084  0.86752364  1  0.052034  0  0.100408  0.09983  0  1.006627  0
H  H29  1  0.91588119  0.87241307  0.34024249  1  0.006243  0  0.09602  0.091232  0  1.024817  0
H  H30  1  0.09279595  0.00164164  0.36727041  1  0.046811  0  0.097947  0.093059  0  0.996808  0
H  H31  1  0.24752072  0.04735203  0.27739890  1  0.059251  0  0.101134  0.096926  0  0.997288  0
H  H32  1  0.22657499  0.95942357  0.15957174  1  0.100825  0  0.10367  0.107774  0  1.010963  0
H  H33  1  0.04733892  0.83064076  0.13258387  1  0.054466  0  0.100118  0.099456  0  1.006859  0
H  H34  1  0.80545801  0.28992632  0.93744597  1  0.04761  0  0.098708  0.096846  0  1.012607  0
H  H35  1  0.88767858  0.35493451  0.05594828  1  0.055791  0  0.102353  0.098944  0  0.988126  0
H  H36  1  0.18536276  0.44494335  0.08682055  1  0.03892  0  0.09915  0.095246  0  0.993485  0
H  H37  1  0.39410569  0.47092433  0.99759415  1  0.064826  0  0.094351  0.093481  0  1.040179  0
H  H38  1  0.31001328  0.40748010  0.87989098  1  0.036826  0  0.096008  0.091545  0  1.022785  0
H  H39  1  0.30585141  0.71001262  0.06245104  1  0.051  0  0.098452  0.096792  0  1.012663  0
H  H40  1  0.38849537  0.64507295  0.94397794  1  0.065396  0  0.102553  0.099178  0  0.988728  0
H  H41  1  0.68631745  0.55516008  0.91321622  1  0.041745  0  0.099488  0.095708  0  0.993445  0
H  H42  1  0.89471220  0.52918748  0.00252057  1  0.063846  0  0.094295  0.093107  0  1.040422  0
H  H43  1  0.81023732  0.59258040  0.12018789  1  0.034391  0  0.095931  0.091691  0  1.022678  0
H  H44  1  0.63506907  0.40302185  0.50645823  1  0.628118  0  0.35986  0.440212  0  0.837568  0
H  H45  1  0.13510676  0.59701645  0.49362282  1  0.628707  0  0.360093  0.440531  0  0.836972  0
H  H46  1  0.60729488  0.10564643  0.02309787  1  0.625453  0  0.362949  0.444386  0  0.829701  0
H  H47  1  0.10719129  0.89444554  0.97901737  1  0.628039  0  0.363452  0.44523  0  0.829143  0
C  C48  1  0.63582638  0.57643981  0.42185934  1  1.649482  0  0.277995  0.736705  0  4.142204  0
C  C49  1  0.13595835  0.42354784  0.57812902  1  1.649  0  0.277484  0.735885  0  4.143592  0
C  C50  1  0.63453176  0.61113030  0.60111026  1  1.695172  0  0.276498  0.701665  0  4.18458  0
C  C51  1  0.13421771  0.38885762  0.39886871  1  1.698339  0  0.276179  0.700947  0  4.186005  0
C  C52  1  0.13125650  0.32624743  0.33609861  1  0.272903  0  -0.000164  -0.138573  0  3.847576  0
C  C53  1  0.63145241  0.67374637  0.66386215  1  0.322856  0  -0.000247  -0.138539  0  3.84637  0
C  C54  1  0.12439651  0.27339547  0.28285125  1  -0.364955  0  -0.007785  0.026241  0  4.243949  0
C  C55  1  0.62456097  0.72661706  0.71711172  1  -0.415466  0  -0.007827  0.025657  0  4.243042  0
C  C56  1  0.11713599  0.21537942  0.22391819  1  -0.217503  0  -0.00662  0.032227  0  4.24125  0
C  C57  1  0.61721996  0.78464941  0.77602819  1  -0.218236  0  -0.006257  0.033008  0  4.241043  0
C  C58  1  0.11033759  0.16302111  0.17037250  1  0.090283  0  -0.00237  -0.148073  0  3.855873  0
C  C59  1  0.61029687  0.83701845  0.82954435  1  0.092839  0  -0.002007  -0.147991  0  3.855147  0
C  C60  1  0.34565494  0.23531836  0.78602228  1  -0.002652  0  -0.07591  -0.060956  0  3.791913  0
C  C61  1  0.84552602  0.76483479  0.21407088  1  -0.001601  0  -0.075789  -0.060042  0  3.792176  0
C  C62  1  0.01965995  0.17048389  0.73326377  1  -0.0558  0  -0.160539  -0.197108  0  3.848074  0
C  C63  1  0.51932331  0.82952539  0.26673457  1  -0.055142  0  -0.160664  -0.197274  0  3.847232  0
C  C64  1  0.02634182  0.21947654  0.68371258  1  -0.008559  0  -0.152876  -0.180497  0  3.843342  0
C  C65  1  0.52604864  0.78054276  0.31629242  1  -0.007356  0  -0.15273  -0.180914  0  3.8443  0
C  C66  1  0.13719398  0.38137357  0.62695338  1  0.180583  0  -0.056092  -0.239749  0  3.98321  0
C  C67  1  0.63715906  0.61865960  0.37306292  1  0.181838  0  -0.056121  -0.239766  0  3.982156  0
C  C68  1  0.12130326  0.21755334  0.79944019  1  0.136872  0  0.009803  0.118095  0  3.826047  0
C  C69  1  0.62116767  0.78250851  0.20058629  1  0.13758  0  0.009667  0.117905  0  3.82474  0
C  C70  1  0.34896614  0.28396948  0.73570926  1  -0.030783  0  -0.153664  -0.222148  0  3.835541  0
C  C71  1  0.84886006  0.71621077  0.26440168  1  -0.019877  0  -0.153611  -0.222138  0  3.836752  0
C  C72  1  0.13428017  0.30047336  0.71549831  1  0.134036  0  0.000811  0.173541  0  3.898803  0
C  C73  1  0.63417450  0.69959522  0.28453930  1  0.134151  0  0.000853  0.172952  0  3.899397  0
C  C74  1  0.01934606  0.34788813  0.77890557  1  -0.057496  0  -0.150731  -0.219557  0  3.825565  0
C  C75  1  0.51942917  0.65212186  0.22108981  1  -0.056304  0  -0.15069  -0.219279  0  3.825008  0
C  C76  1  0.00043455  0.29818528  0.82812076  1  -0.005202  0  -0.069861  -0.050234  0  3.772776  0
C  C77  1  0.50050777  0.70179826  0.17185867  1  -0.006119  0  -0.069993  -0.050239  0  3.772032  0
C  C78  1  0.13841140  0.34545662  0.66802609  1  -0.464075  0  -0.012519  -0.008235  0  4.012608  0
C  C79  1  0.63832435  0.65460722  0.33201148  1  -0.46504  0  -0.012503  -0.00821  0  4.012048  0
C  C80  1  0.11116994  0.17166460  0.84589512  1  -0.350282  0  -0.001277  0.012122  0  4.009785  0
C  C81  1  0.61104500  0.82835080  0.15409640  1  -0.349364  0  -0.001028  0.012638  0  4.009646  0
C  C82  1  0.10798017  0.13361664  0.88531850  1  0.078752  0  -0.0447  -0.224049  0  3.951131  0
C  C83  1  0.60786039  0.86630724  0.11460231  1  0.078614  0  -0.044878  -0.224555  0  3.951883  0
C  C84  1  0.60808005  0.89730364  0.89343518  1  1.708834  0  0.277237  0.703735  0  4.183555  0
C  C85  1  0.10809584  0.10277526  0.10646454  1  1.710879  0  0.277304  0.703722  0  4.184048  0
C  C86  1  0.60756048  0.91234615  0.06888517  1  1.658819  0  0.278826  0.731466  0  4.146838  0
C  C87  1  0.10771281  0.08750249  0.93097609  1  1.662918  0  0.279655  0.731064  0  4.147133  0
C  C88  1  0.46729183  0.15859446  0.76607931  1  -0.039054  0  -0.015762  0.072585  0  3.952933  0
C  C89  1  0.48327855  0.10936158  0.70003983  1  -0.033339  0  -0.100232  -0.147177  0  4.007073  0
C  C90  1  0.58339183  0.03592591  0.68449003  1  -0.062306  0  -0.097637  -0.088831  0  4.04866  0
C  C91  1  0.66978218  0.01020939  0.73477046  1  -0.093505  0  -0.093109  -0.089983  0  4.022031  0
C  C92  1  0.65731539  0.05890459  0.80061817  1  -0.044541  0  -0.087739  -0.06814  0  3.993755  0
C  C93  1  0.55760168  0.13228121  0.81580055  1  -0.054884  0  -0.089974  -0.135567  0  3.986781  0
C  C94  1  0.96707603  0.84158483  0.23401214  1  -0.054452  0  -0.016024  0.071028  0  3.955732  0
C  C95  1  0.98293404  0.89086256  0.30004761  1  -0.018492  0  -0.099929  -0.146518  0  4.006905  0
C  C96  1  0.08306316  0.96430470  0.31558285  1  -0.063279  0  -0.098153  -0.089893  0  4.050562  0
C  C97  1  0.16958041  0.98998101  0.26529822  1  -0.039671  0  -0.092595  -0.088603  0  4.022266  0
C  C98  1  0.15724582  0.94124336  0.19946695  1  -0.052081  0  -0.0879  -0.06829  0  3.994146  0
C  C99  1  0.05752337  0.86785503  0.18429416  1  -0.052493  0  -0.089941  -0.135413  0  3.987942  0
C  C100  1  0.05207448  0.34286100  0.89967478  1  -0.011947  0  -0.014929  0.077696  0  3.951168  0
C  C101  1  0.93467958  0.32980681  0.95061523  1  -0.093756  0  -0.093709  -0.138444  0  3.996802  0
C  C102  1  0.98146321  0.36609620  0.01738805  1  -0.025474  0  -0.094443  -0.082257  0  4.039191  0
C  C103  1  0.14782912  0.41654667  0.03468217  1  -0.02444  0  -0.096517  -0.093264  0  4.034455  0
C  C104  1  0.26513704  0.43098863  0.98474396  1  -0.045007  0  -0.097434  -0.086995  0  4.034219  0
C  C105  1  0.21695076  0.39461415  0.91793750  1  -0.075249  0  -0.097685  -0.144205  0  3.993621  0
C  C106  1  0.55237025  0.65714711  0.10031549  1  -0.015076  0  -0.014865  0.077846  0  3.950732  0
C  C107  1  0.43514717  0.67018863  0.04933450  1  -0.09308  0  -0.093701  -0.139158  0  3.996951  0
C  C108  1  0.48216303  0.63392723  0.98257698  1  -0.040671  0  -0.094363  -0.081544  0  4.039126  0
C  C109  1  0.64859387  0.58352787  0.96533939  1  -0.017529  0  -0.097069  -0.094337  0  4.035268  0
C  C110  1  0.76571581  0.56909606  0.01532545  1  -0.045091  0  -0.097325  -0.086377  0  4.034011  0
C  C111  1  0.71730830  0.60544343  0.08211069  1  -0.076817  0  -0.097607  -0.144441  0  3.993048  0
O  O112  1  0.46420069  0.58717767  0.57604077  1  -1.222318  0  -0.223561  -0.572549  0  2.291137  0
O  O113  1  0.96385569  0.41298513  0.42375210  1  -1.22514  0  -0.22317  -0.571755  0  2.292583  0
O  O114  1  0.80547167  0.56034786  0.44234960  1  -1.239767  0  -0.230391  -0.592265  0  2.283387  0
O  O115  1  0.30569121  0.43987400  0.55783121  1  -1.238256  0  -0.23034  -0.592292  0  2.283488  0
O  O116  1  0.80622336  0.58715813  0.57737018  1  -1.226507  0  -0.223741  -0.572679  0  2.287033  0
O  O117  1  0.30590169  0.41264763  0.42277842  1  -1.2274  0  -0.223549  -0.572487  0  2.286852  0
O  O118  1  0.96536943  0.44031276  0.55875871  1  -1.241263  0  -0.228942  -0.590448  0  2.280135  0
O  O119  1  0.46514578  0.55940002  0.44099645  1  -1.240936  0  -0.22951  -0.591108  0  2.280009  0
O  O120  1  0.63527111  0.45268402  0.49511735  1  -1.427482  0  -0.445377  -0.993167  0  2.194898  0
O  O121  1  0.13530729  0.54729144  0.50486537  1  -1.428116  0  -0.445605  -0.993379  0  2.194151  0
O  O122  1  0.77782694  0.93035051  0.05012878  1  -1.240462  0  -0.230232  -0.591672  0  2.286482  0
O  O123  1  0.27795432  0.06938307  0.94963261  1  -1.238412  0  -0.23006  -0.590507  0  2.287356  0
O  O124  1  0.43716614  0.91997326  0.91861253  1  -1.235814  0  -0.222402  -0.574997  0  2.288057  0
O  O125  1  0.93709077  0.08003765  0.08134094  1  -1.235213  0  -0.22306  -0.575945  0  2.287199  0
O  O126  1  0.43679525  0.93072042  0.05057221  1  -1.24045  0  -0.231716  -0.597893  0  2.299179  0
O  O127  1  0.93698866  0.06917886  0.94935222  1  -1.244836  0  -0.231591  -0.596913  0  2.299362  0
O  O128  1  0.27866506  0.07911458  0.08133762  1  -1.232139  0  -0.22435  -0.578929  0  2.293313  0
O  O129  1  0.77865349  0.92105174  0.91851800  1  -1.231055  0  -0.22415  -0.578187  0  2.293138  0
O  O130  1  0.60766346  0.04764864  0.00952865  1  -1.422423  0  -0.446088  -0.999722  0  2.205461  0
O  O131  1  0.10761437  0.95232691  0.99048290  1  -1.425703  0  -0.446521  -1.001025  0  2.206155  0
