# generated using pymatgen
data_CuH6C9SN3
_symmetry_space_group_name_H-M   'P 1'
_cell_length_a   13.00230487
_cell_length_b   13.54298073
_cell_length_c   13.54297979
_cell_angle_alpha   70.70464711
_cell_angle_beta   85.37365034
_cell_angle_gamma   85.37370302
_symmetry_Int_Tables_number   1
_chemical_formula_structural   CuH6C9SN3
_chemical_formula_sum   'Cu8 H48 C72 S8 N24'
_cell_volume   2239.79117881
_cell_formula_units_Z   8
loop_
 _symmetry_equiv_pos_site_id
 _symmetry_equiv_pos_as_xyz
  1  'x, y, z'
loop_
 _atom_site_type_symbol
 _atom_site_label
 _atom_site_symmetry_multiplicity
 _atom_site_fract_x
 _atom_site_fract_y
 _atom_site_fract_z
 _atom_site_occupancy
 _atom_site_pbe_bader_charge
 _atom_site_pbe_bader_spin_density
 _atom_site_pbe_cm5_charge
 _atom_site_pbe_ddec_charge
 _atom_site_pbe_ddec_spin_density
 _atom_site_pbe_ddec_sum_bond_order
 _atom_site_pbe_magmom
Cu  Cu0  1  0.15325928  0.54582247  0.44875663  1  0.464519  0  0.364301  0.181333  0  2.863578  0
Cu  Cu1  1  0.34673721  0.55124723  0.45417263  1  0.460805  0  0.364304  0.181276  0  2.863711  0
Cu  Cu2  1  0.84673870  0.45417384  0.55124775  1  0.460629  0  0.364276  0.181176  0  2.863847  0
Cu  Cu3  1  0.65326077  0.44876002  0.54582216  1  0.464585  0  0.364291  0.181304  0  2.86359  0
Cu  Cu4  1  0.21262163  0.73424390  0.43800852  1  0.594322  0  0.438595  0.256183  0  2.715188  0
Cu  Cu5  1  0.28737652  0.56198753  0.26575509  1  0.594349  0  0.438564  0.256122  0  2.715246  0
Cu  Cu6  1  0.78737845  0.26575475  0.56199045  1  0.594386  0  0.4386  0.256231  0  2.715134  0
Cu  Cu7  1  0.71262738  0.43801113  0.73424058  1  0.594315  0  0.43857  0.256107  0  2.715299  0
H  H8  1  0.12053574  0.04597847  0.12624547  1  0.070145  0  0.108976  0.123774  0  1.006145  0
H  H9  1  0.37946021  0.87375824  0.95401904  1  0.070095  0  0.109035  0.123817  0  1.006144  0
H  H10  1  0.87946147  0.95401864  0.87376313  1  0.070101  0  0.108999  0.123791  0  1.006183  0
H  H11  1  0.62054081  0.12625062  0.04597864  1  0.070156  0  0.109007  0.12378  0  1.006024  0
H  H12  1  0.13707700  0.95140726  0.31603902  1  0.087343  0  0.115856  0.082315  0  1.011641  0
H  H13  1  0.36292321  0.68396431  0.04858901  1  0.0873  0  0.115882  0.082318  0  1.011677  0
H  H14  1  0.86292197  0.04858593  0.68396853  1  0.087268  0  0.115864  0.082319  0  1.011565  0
H  H15  1  0.63708006  0.31604453  0.95140330  1  0.087343  0  0.115815  0.082268  0  1.011675  0
H  H16  1  0.12169113  0.10866376  0.96378799  1  0.092035  0  0.108696  0.116794  0  0.994065  0
H  H17  1  0.37829753  0.03621171  0.89133813  1  0.091982  0  0.10873  0.116798  0  0.994164  0
H  H18  1  0.87829650  0.89133717  0.03621355  1  0.092001  0  0.108684  0.116771  0  0.994125  0
H  H19  1  0.62169840  0.96379322  0.10866649  1  0.091836  0  0.108663  0.116641  0  0.994202  0
H  H20  1  0.13634496  0.17196921  0.77006732  1  0.071465  0  0.111032  0.083724  0  0.977355  0
H  H21  1  0.36365446  0.22993544  0.82803108  1  0.071488  0  0.111021  0.083727  0  0.977299  0
H  H22  1  0.86364742  0.82803020  0.22993652  1  0.071466  0  0.111032  0.083768  0  0.977308  0
H  H23  1  0.63635291  0.77007193  0.17197317  1  0.071188  0  0.111086  0.083773  0  0.977443  0
H  H24  1  0.14869371  0.87042919  0.75639682  1  0.078901  0  0.108382  0.078115  0  0.994827  0
H  H25  1  0.35131212  0.24360202  0.12957546  1  0.078866  0  0.108394  0.078169  0  0.994813  0
H  H26  1  0.85130706  0.12957184  0.24360572  1  0.07886  0  0.108367  0.078118  0  0.99484  0
H  H27  1  0.64869173  0.75640064  0.87043364  1  0.079008  0  0.1084  0.078143  0  0.99483  0
H  H28  1  0.13300109  0.79288848  0.95254080  1  0.059503  0  0.106155  0.113648  0  1.030945  0
H  H29  1  0.36700015  0.04745363  0.20711552  1  0.106641  0  0.106157  0.113637  0  1.03083  0
H  H30  1  0.86700191  0.20711334  0.04745906  1  0.059476  0  0.106169  0.113652  0  1.030838  0
H  H31  1  0.63300466  0.95254509  0.79289039  1  0.106771  0  0.106185  0.113715  0  1.030933  0
H  H32  1  0.03645438  0.17405691  0.58291600  1  0.060797  0  0.102101  0.114366  0  1.054726  0
H  H33  1  0.46354781  0.41709914  0.82593265  1  0.061275  0  0.102085  0.114302  0  1.054791  0
H  H34  1  0.96354860  0.82593395  0.41709198  1  0.061192  0  0.102078  0.114301  0  1.054762  0
H  H35  1  0.53645446  0.58291282  0.17405648  1  0.061291  0  0.102091  0.114336  0  1.054729  0
H  H36  1  0.03208458  0.36200255  0.56930945  1  0.129672  0  0.093476  0.066475  0  1.067939  0
H  H37  1  0.46791322  0.43070122  0.63798809  1  0.129463  0  0.093494  0.066466  0  1.067965  0
H  H38  1  0.96791299  0.63798828  0.43069828  1  0.129572  0  0.093491  0.066427  0  1.067981  0
H  H39  1  0.53208253  0.56930364  0.36200254  1  0.129654  0  0.093522  0.066534  0  1.067896  0
H  H40  1  0.34184651  0.09563379  0.39993147  1  0.113792  0  0.110351  0.119992  0  1.007519  0
H  H41  1  0.15814854  0.60006955  0.90436110  1  0.113643  0  0.110366  0.119997  0  1.007492  0
H  H42  1  0.65814920  0.90435931  0.60006238  1  0.113375  0  0.110381  0.120033  0  1.007446  0
H  H43  1  0.84184948  0.39992356  0.09563254  1  0.114104  0  0.110379  0.119947  0  1.007624  0
H  H44  1  0.35630812  0.91020488  0.39430246  1  0.130738  0  0.103659  0.082171  0  1.042732  0
H  H45  1  0.14368987  0.60569867  0.08979095  1  0.130726  0  0.103643  0.082121  0  1.042782  0
H  H46  1  0.64368850  0.08978747  0.60569894  1  0.130751  0  0.103658  0.08213  0  1.042823  0
H  H47  1  0.85631246  0.39429996  0.91020192  1  0.13061  0  0.103651  0.082258  0  1.042755  0
H  H48  1  0.08161002  0.84017622  0.57162210  1  0.104593  0  0.107723  0.081281  0  1.009991  0
H  H49  1  0.41838792  0.42837896  0.15981502  1  0.104723  0  0.10773  0.081284  0  1.010002  0
H  H50  1  0.91839128  0.15981699  0.42838597  1  0.104367  0  0.107727  0.081312  0  1.010027  0
H  H51  1  0.58161730  0.57162202  0.84017385  1  0.104675  0  0.107698  0.081213  0  1.01004  0
H  H52  1  0.05524878  0.02003278  0.58373908  1  0.092412  0  0.103949  0.103638  0  1.040912  0
H  H53  1  0.44474732  0.41626089  0.97995912  1  0.092679  0  0.103953  0.103643  0  1.040928  0
H  H54  1  0.94475230  0.97996275  0.41626306  1  0.092492  0  0.103933  0.103631  0  1.040954  0
H  H55  1  0.55525423  0.58373693  0.02003040  1  0.092503  0  0.103963  0.103681  0  1.040979  0
C  C56  1  0.12309898  0.74885302  0.23633976  1  0.910891  0  0.222288  0.374575  0  4.013008  0
C  C57  1  0.37689719  0.76366166  0.25114078  1  0.910366  0  0.222371  0.374771  0  4.012789  0
C  C58  1  0.87690146  0.25114015  0.76366250  1  0.910899  0  0.222354  0.374778  0  4.012695  0
C  C59  1  0.62310398  0.23634323  0.74885082  1  0.910765  0  0.222222  0.374519  0  4.013098  0
C  C60  1  0.12151831  0.89908046  0.09076393  1  0.451661  0  0.126045  0.23052  0  4.029592  0
C  C61  1  0.37847734  0.90923317  0.10091773  1  0.451275  0  0.126058  0.230586  0  4.02956  0
C  C62  1  0.87848109  0.10091742  0.90923832  1  0.451583  0  0.126084  0.230599  0  4.029608  0
C  C63  1  0.62152257  0.09076862  0.89908168  1  0.451345  0  0.126101  0.230648  0  4.029506  0
C  C64  1  0.12287433  0.96087425  0.15576638  1  0.094358  0  -0.095825  -0.236395  0  3.972629  0
C  C65  1  0.37712262  0.84423488  0.03912348  1  0.094563  0  -0.095874  -0.236454  0  3.972577  0
C  C66  1  0.87712429  0.03912442  0.84423862  1  0.094381  0  -0.095853  -0.236454  0  3.972756  0
C  C67  1  0.62287688  0.15577318  0.96087238  1  0.094383  0  -0.095913  -0.236483  0  3.972444  0
C  C68  1  0.13130842  0.90827504  0.26171315  1  0.445465  0  0.048276  0.135625  0  3.950962  0
C  C69  1  0.36868726  0.73828694  0.09172125  1  0.445351  0  0.048315  0.135686  0  3.951077  0
C  C70  1  0.86868878  0.09172126  0.73829056  1  0.445512  0  0.048336  0.135744  0  3.95088  0
C  C71  1  0.63131391  0.26171876  0.90827378  1  0.445411  0  0.048367  0.135783  0  3.950775  0
C  C72  1  0.12646450  0.94382319  0.97514489  1  -0.034972  0  0.004459  0.061267  0  3.982689  0
C  C73  1  0.37353542  0.02485147  0.05617750  1  -0.034788  0  0.004403  0.061243  0  3.982733  0
C  C74  1  0.87353395  0.05617702  0.02485444  1  -0.034964  0  0.004467  0.061329  0  3.982521  0
C  C75  1  0.62646844  0.97514958  0.94382549  1  -0.03468  0  0.004424  0.061135  0  3.982742  0
C  C76  1  0.12755467  0.05194632  0.92204232  1  0.010411  0  -0.084135  -0.167814  0  3.960725  0
C  C77  1  0.37244407  0.07795472  0.94805814  1  0.009966  0  -0.084114  -0.167761  0  3.960689  0
C  C78  1  0.87244272  0.94805859  0.07795553  1  0.010328  0  -0.084134  -0.167821  0  3.960705  0
C  C79  1  0.62755594  0.92204712  0.05194937  1  0.009892  0  -0.084072  -0.167514  0  3.96054  0
C  C80  1  0.13598055  0.08788285  0.81280525  1  0.519842  0  0.038851  0.086054  0  4.002129  0
C  C81  1  0.36402064  0.18719585  0.91212147  1  0.519966  0  0.038761  0.08586  0  4.002099  0
C  C82  1  0.86401397  0.91211972  0.18719881  1  0.519983  0  0.038785  0.085869  0  4.002205  0
C  C83  1  0.63598532  0.81280996  0.08788565  1  0.520253  0  0.03876  0.085945  0  4.002189  0
C  C84  1  0.14212302  0.92095199  0.80539375  1  0.522141  0  0.034051  0.076448  0  4.015077  0
C  C85  1  0.35788279  0.19460218  0.07905272  1  0.522042  0  0.03393  0.076208  0  4.015152  0
C  C86  1  0.85787613  0.07904980  0.19460646  1  0.522034  0  0.033941  0.076237  0  4.015137  0
C  C87  1  0.64212516  0.80539658  0.92095733  1  0.522278  0  0.034052  0.076421  0  4.015182  0
C  C88  1  0.13340386  0.87731256  0.91399039  1  -0.029787  0  -0.085807  -0.166401  0  3.951881  0
C  C89  1  0.36660041  0.08600825  0.12268984  1  -0.076883  0  -0.085798  -0.166318  0  3.951743  0
C  C90  1  0.86659995  0.12268928  0.08601234  1  -0.029538  0  -0.085795  -0.166328  0  3.951554  0
C  C91  1  0.63340346  0.91399361  0.87731731  1  -0.077035  0  -0.085827  -0.166444  0  3.951908  0
C  C92  1  0.25720248  0.34397306  0.44461769  1  0.944865  0  0.223769  0.386966  0  3.996195  0
C  C93  1  0.24279560  0.55539075  0.65602021  1  0.945191  0  0.223767  0.386898  0  3.996159  0
C  C94  1  0.74279859  0.65602408  0.55539057  1  0.945677  0  0.223788  0.386903  0  3.996127  0
C  C95  1  0.75720157  0.44461728  0.34397513  1  0.945136  0  0.22372  0.386908  0  3.996275  0
C  C96  1  0.18589512  0.18274454  0.49344470  1  0.526156  0  0.129451  0.23796  0  4.003663  0
C  C97  1  0.31410398  0.50656152  0.81725135  1  0.526987  0  0.129321  0.237652  0  4.003757  0
C  C98  1  0.81410731  0.81725414  0.50655701  1  0.526354  0  0.129358  0.237738  0  4.003813  0
C  C99  1  0.68589820  0.49344027  0.18274490  1  0.526847  0  0.129423  0.23784  0  4.003752  0
C  C100  1  0.09984686  0.22149082  0.54176662  1  0.037643  0  -0.097637  -0.235918  0  3.952809  0
C  C101  1  0.40015530  0.45824386  0.77850084  1  0.03661  0  -0.09757  -0.235744  0  3.953024  0
C  C102  1  0.90015518  0.77850239  0.45823918  1  0.036952  0  -0.097624  -0.235835  0  3.95298  0
C  C103  1  0.59984650  0.54176340  0.22149066  1  0.036578  0  -0.09761  -0.235822  0  3.952834  0
C  C104  1  0.09730987  0.32610087  0.53471181  1  0.422173  0  0.047072  0.150303  0  3.917489  0
C  C105  1  0.40269001  0.46529940  0.67389139  1  0.422031  0  0.047003  0.15024  0  3.917778  0
C  C106  1  0.90269219  0.67389235  0.46529620  1  0.422009  0  0.047008  0.150282  0  3.917678  0
C  C107  1  0.59730948  0.53470785  0.32610032  1  0.421834  0  0.047022  0.150246  0  3.917544  0
C  C108  1  0.19646248  0.07416784  0.49072560  1  0.016321  0  0.011136  0.075355  0  3.960277  0
C  C109  1  0.30353195  0.50927319  0.92582862  1  0.015649  0  0.011207  0.075454  0  3.960523  0
C  C110  1  0.80353318  0.92582684  0.50927141  1  0.015592  0  0.011222  0.075521  0  3.960486  0
C  C111  1  0.69646731  0.49072543  0.07416600  1  0.015743  0  0.011171  0.075479  0  3.960266  0
C  C112  1  0.28270249  0.04067535  0.43816738  1  0.007284  0  -0.080216  -0.153787  0  3.93051  0
C  C113  1  0.21729129  0.56183193  0.95931873  1  0.007943  0  -0.080283  -0.153762  0  3.930494  0
C  C114  1  0.71729325  0.95931776  0.56182867  1  0.008263  0  -0.080351  -0.153859  0  3.930484  0
C  C115  1  0.78270827  0.43816118  0.04067476  1  0.007331  0  -0.080309  -0.153727  0  3.930496  0
C  C116  1  0.29126260  0.93862926  0.43577346  1  0.410071  0  0.035179  0.079719  0  3.948007  0
C  C117  1  0.20873299  0.56422420  0.06136735  1  0.409967  0  0.035254  0.079834  0  3.947867  0
C  C118  1  0.70873304  0.06136622  0.56422550  1  0.409962  0  0.035266  0.079762  0  3.948174  0
C  C119  1  0.79127028  0.43577210  0.93862844  1  0.409408  0  0.035197  0.079553  0  3.947951  0
C  C120  1  0.13732745  0.89953922  0.53396867  1  0.431288  0  0.031777  0.065007  0  3.966476  0
C  C121  1  0.36266765  0.46602882  0.10045645  1  0.431313  0  0.031725  0.065032  0  3.966226  0
C  C122  1  0.86266986  0.10045472  0.46603361  1  0.431612  0  0.031634  0.06488  0  3.966465  0
C  C123  1  0.63733464  0.53396980  0.89953421  1  0.431348  0  0.031893  0.065304  0  3.966297  0
C  C124  1  0.12280477  0.00031692  0.53977103  1  -0.050035  0  -0.080704  -0.159802  0  3.978044  0
C  C125  1  0.37718921  0.46022820  0.99967582  1  -0.050211  0  -0.080664  -0.159824  0  3.978008  0
C  C126  1  0.87719185  0.99967544  0.46022963  1  -0.049973  0  -0.080615  -0.159815  0  3.978085  0
C  C127  1  0.62281165  0.53976884  0.00031623  1  -0.049982  0  -0.08069  -0.15997  0  3.978104  0
S  S128  1  0.11315593  0.61308863  0.28340474  1  -0.23378  0  -0.233981  -0.341193  0  3.028976  0
S  S129  1  0.38684349  0.71659550  0.38691029  1  -0.233677  0  -0.233985  -0.341231  0  3.028951  0
S  S130  1  0.88684880  0.38691006  0.71659528  1  -0.233608  0  -0.233949  -0.341155  0  3.028889  0
S  S131  1  0.61315795  0.28340630  0.61308824  1  -0.23378  0  -0.233957  -0.341167  0  3.028947  0
S  S132  1  0.36274922  0.41896004  0.38697644  1  -0.266032  0  -0.246339  -0.353448  0  2.975006  0
S  S133  1  0.13724649  0.61302960  0.58103704  1  -0.265874  0  -0.246372  -0.353506  0  2.974981  0
S  S134  1  0.63724864  0.58103864  0.61303011  1  -0.266124  0  -0.246369  -0.353468  0  2.975013  0
S  S135  1  0.86274927  0.38697687  0.41896117  1  -0.266025  0  -0.246329  -0.353432  0  2.975023  0
N  N136  1  0.13623669  0.80295808  0.30357726  1  -1.237033  0  -0.360966  -0.295751  0  3.547523  0
N  N137  1  0.36376089  0.69642060  0.19703460  1  -1.236692  0  -0.361092  -0.295901  0  3.547621  0
N  N138  1  0.86376131  0.19703662  0.69642175  1  -1.236948  0  -0.361045  -0.295969  0  3.547604  0
N  N139  1  0.63623824  0.30357957  0.80295656  1  -1.237279  0  -0.360947  -0.29571  0  3.547356  0
N  N140  1  0.11838932  0.79441341  0.13225475  1  -1.193417  0  -0.316025  -0.365938  0  3.280429  0
N  N141  1  0.38161050  0.86774559  0.20558492  1  -1.193468  0  -0.316038  -0.366058  0  3.280352  0
N  N142  1  0.88161385  0.20558606  0.86774736  1  -1.193533  0  -0.316092  -0.366121  0  3.280218  0
N  N143  1  0.61839004  0.13225856  0.79441364  1  -1.193327  0  -0.316038  -0.366017  0  3.280322  0
N  N144  1  0.14352633  0.02454518  0.75432781  1  -1.237835  0  -0.320286  -0.265785  0  3.357401  0
N  N145  1  0.35648146  0.24567638  0.97545360  1  -1.237828  0  -0.320127  -0.265542  0  3.357225  0
N  N146  1  0.85647394  0.97545194  0.24567831  1  -1.237984  0  -0.320147  -0.265551  0  3.357447  0
N  N147  1  0.64352508  0.75433175  0.02454899  1  -1.238017  0  -0.320303  -0.265824  0  3.357457  0
N  N148  1  0.21963784  0.86827130  0.48219920  1  -1.22384  0  -0.352805  -0.201945  0  3.580322  0
N  N149  1  0.28035750  0.51779933  0.13172677  1  -1.223643  0  -0.352805  -0.202064  0  3.580125  0
N  N150  1  0.78035696  0.13172656  0.51780495  1  -1.223679  0  -0.352782  -0.20195  0  3.580273  0
N  N151  1  0.71964391  0.48220165  0.86826613  1  -1.223125  0  -0.352876  -0.202071  0  3.58031  0
N  N152  1  0.26391643  0.24424818  0.44646246  1  -1.196599  0  -0.314994  -0.353946  0  3.247872  0
N  N153  1  0.23607902  0.55354471  0.75574697  1  -1.196618  0  -0.314952  -0.353789  0  3.247757  0
N  N154  1  0.73608378  0.75574972  0.55354266  1  -1.19657  0  -0.31493  -0.353816  0  3.247784  0
N  N155  1  0.76391829  0.44646097  0.24424841  1  -1.19665  0  -0.314939  -0.353867  0  3.247951  0
N  N156  1  0.17312038  0.38932802  0.48464551  1  -1.195224  0  -0.365871  -0.265389  0  3.538561  0
N  N157  1  0.32687753  0.51536470  0.61066545  1  -1.195785  0  -0.365802  -0.265259  0  3.538531  0
N  N158  1  0.82688092  0.61066600  0.51536599  1  -1.195751  0  -0.365794  -0.265197  0  3.538435  0
N  N159  1  0.67312121  0.48464255  0.38932854  1  -1.195138  0  -0.365894  -0.265417  0  3.538623  0
