# generated using pymatgen
data_Zn2H32C41(N2O7)2
_symmetry_space_group_name_H-M   'P 1'
_cell_length_a   9.41002732
_cell_length_b   10.28539372
_cell_length_c   11.77100359
_cell_angle_alpha   95.72065119
_cell_angle_beta   89.98585938
_cell_angle_gamma   89.94592106
_symmetry_Int_Tables_number   1
_chemical_formula_structural   Zn2H32C41(N2O7)2
_chemical_formula_sum   'Zn2 H32 C41 N4 O14'
_cell_volume   1133.59197020
_cell_formula_units_Z   1
loop_
 _symmetry_equiv_pos_site_id
 _symmetry_equiv_pos_as_xyz
  1  'x, y, z'
loop_
 _atom_site_type_symbol
 _atom_site_label
 _atom_site_symmetry_multiplicity
 _atom_site_fract_x
 _atom_site_fract_y
 _atom_site_fract_z
 _atom_site_occupancy
 _atom_site_pbe_bader_charge
 _atom_site_pbe_bader_spin_density
 _atom_site_pbe_cm5_charge
 _atom_site_pbe_ddec_charge
 _atom_site_pbe_ddec_spin_density
 _atom_site_pbe_ddec_sum_bond_order
 _atom_site_pbe_magmom
Zn  Zn0  1  0.61874211  0.50196705  0.99909986  1  1.24627  0  0.689819  0.765895  0  2.370252  0
Zn  Zn1  1  0.97113764  0.00010334  0.50217952  1  1.259569  0  0.694404  0.771109  0  2.351861  0
H  H2  1  0.77985097  0.18480335  0.38866994  1  0.110426  0  0.123037  0.09755  0  0.982562  0
H  H3  1  0.57354029  0.16970174  0.25645177  1  0.093487  0  0.116991  0.142352  0  1.021071  0
H  H4  1  0.63384787  0.75011091  0.21531317  1  0.134299  0  0.115605  0.146945  0  1.011958  0
H  H5  1  0.84009061  0.78306889  0.35127049  1  0.089791  0  0.115625  0.08221  0  1.013977  0
H  H6  1  0.49773044  0.12116391  0.08166990  1  0.11547  0  0.111668  0.095764  0  1.002051  0
H  H7  1  0.35394198  0.09481755  0.17566603  1  0.092498  0  0.11443  0.096536  0  0.970761  0
H  H8  1  0.30120232  0.79883183  0.03560381  1  0.111442  0  0.114333  0.100305  0  0.973444  0
H  H9  1  0.18692839  0.91173045  0.11820237  1  0.119082  0  0.110989  0.094318  0  1.007187  0
H  H10  1  0.91780854  0.83830428  0.81158786  1  0.125344  0  0.112912  0.135591  0  1.012365  0
H  H11  1  0.70049586  0.70268060  0.84322192  1  0.12931  0  0.114596  0.087424  0  1.037113  0
H  H12  1  0.86521697  0.59130261  0.14489676  1  0.097236  0  0.118035  0.085892  0  0.982519  0
H  H13  1  0.08166633  0.72417426  0.13089367  1  0.134888  0  0.111103  0.132391  0  1.042994  0
H  H14  1  0.34151695  0.29754211  0.74841176  1  0.110095  0  0.104665  0.115949  0  1.02094  0
H  H15  1  0.96070515  0.41128823  0.57852487  1  0.079947  0  0.10501  0.117399  0  1.022913  0
H  H16  1  0.22882741  0.70433840  0.75393466  1  0.077548  0  0.105469  0.124281  0  1.017073  0
H  H17  1  0.77437382  0.81656822  0.61375992  1  0.081427  0  0.122983  0.097993  0  0.982935  0
H  H18  1  0.56860445  0.83353739  0.74654558  1  0.124403  0  0.116617  0.143524  0  1.024543  0
H  H19  1  0.62876061  0.25316778  0.78373486  1  0.153843  0  0.115883  0.147437  0  1.011167  0
H  H20  1  0.83414953  0.21824593  0.64712027  1  0.064597  0  0.115616  0.08262  0  1.015454  0
H  H21  1  0.49838595  0.88414322  0.92348603  1  0.102745  0  0.111345  0.094614  0  1.002197  0
H  H22  1  0.35286330  0.90799203  0.83066257  1  0.093974  0  0.11441  0.097132  0  0.972217  0
H  H23  1  0.30041660  0.20533311  0.96919649  1  0.080553  0  0.114119  0.100154  0  0.973729  0
H  H24  1  0.18687282  0.09154162  0.88720147  1  0.116745  0  0.110719  0.093478  0  1.013389  0
H  H25  1  0.91944133  0.17504728  0.19543367  1  0.128981  0  0.112626  0.135588  0  1.018743  0
H  H26  1  0.70080367  0.30736826  0.16010484  1  0.111524  0  0.114626  0.08754  0  1.031901  0
H  H27  1  0.86104761  0.40327521  0.85172444  1  0.087816  0  0.117449  0.085264  0  0.984548  0
H  H28  1  0.07774833  0.27135934  0.86874377  1  0.119612  0  0.110591  0.132028  0  1.05101  0
H  H29  1  0.34263875  0.70717518  0.25574383  1  0.10267  0  0.104474  0.115655  0  1.020984  0
H  H30  1  0.96852587  0.58688410  0.43047256  1  0.121183  0  0.104637  0.117195  0  1.02792  0
H  H31  1  0.23434624  0.29910894  0.24479511  1  0.102037  0  0.104895  0.123032  0  1.021102  0
H  H32  1  0.02765565  0.72224905  0.58679326  1  0.655939  0  0.294765  0.352673  0  0.991071  0
H  H33  1  0.03471015  0.27831190  0.41916393  1  0.657412  0  0.29459  0.353466  0  0.991224  0
C  C34  1  0.74503751  0.08995873  0.34846659  1  0.444573  0  0.048122  0.115713  0  3.965617  0
C  C35  1  0.63047353  0.08161769  0.27390025  1  0.03224  0  -0.098265  -0.266697  0  3.948213  0
C  C36  1  0.59289792  0.95770346  0.22153520  1  0.518736  0  0.114457  0.317832  0  4.039845  0
C  C37  1  0.66623401  0.84721186  0.25178133  1  0.043363  0  -0.092228  -0.239872  0  3.935911  0
C  C38  1  0.77890992  0.86591772  0.32669374  1  0.429661  0  0.039955  0.103237  0  3.981131  0
C  C39  1  0.41976211  0.04928790  0.10539848  1  0.346712  0  -0.060013  -0.039737  0  3.819152  0
C  C40  1  0.23651290  0.88780320  0.03414075  1  0.345639  0  -0.05986  -0.041507  0  3.813635  0
C  C41  1  0.01590494  0.79264780  0.96851560  1  0.456466  0  0.112698  0.314999  0  4.040997  0
C  C42  1  0.90677392  0.78637312  0.88704663  1  -0.017626  0  -0.09423  -0.233251  0  3.957942  0
C  C43  1  0.78863612  0.71118571  0.90337982  1  0.476175  0  0.040031  0.102809  0  3.976082  0
C  C44  1  0.87894126  0.64926849  0.07286775  1  0.496034  0  0.043413  0.109621  0  3.99257  0
C  C45  1  0.00106468  0.72293038  0.06455859  1  0.013219  0  -0.100411  -0.260173  0  3.944995  0
C  C46  1  0.42722978  0.54396678  0.82877224  1  1.556327  0  0.200576  0.569235  0  4.211061  0
C  C47  1  0.29897617  0.50480229  0.75696057  1  -0.000715  0  -0.021356  -0.011421  0  3.991347  0
C  C48  1  0.26997942  0.37304528  0.72368830  1  -0.060935  0  -0.089552  -0.137294  0  3.950468  0
C  C49  1  0.14933115  0.33891726  0.65781704  1  -0.004648  0  -0.025108  -0.028044  0  4.026034  0
C  C50  1  0.05490264  0.43617275  0.62989129  1  -0.091983  0  -0.099767  -0.221852  0  3.948172  0
C  C51  1  0.20565517  0.60214970  0.72670694  1  -0.008607  0  -0.094164  -0.21379  0  3.916626  0
C  C52  1  0.11957849  0.19846460  0.61933156  1  1.521809  0  0.20278  0.563622  0  4.191095  0
C  C53  1  0.08233656  0.56790882  0.66424516  1  0.54228  0  0.07506  0.320698  0  4.080526  0
C  C54  1  0.73984149  0.91184665  0.65331698  1  0.474782  0  0.048113  0.115007  0  3.965256  0
C  C55  1  0.62561786  0.92120887  0.72830712  1  0.006236  0  -0.097968  -0.266387  0  3.946369  0
C  C56  1  0.58874685  0.04554782  0.78036212  1  0.502971  0  0.11429  0.318323  0  4.037937  0
C  C57  1  0.66114658  0.15557880  0.74822025  1  0.031115  0  -0.09253  -0.240126  0  3.932887  0
C  C58  1  0.77337945  0.13582501  0.67288254  1  0.430731  0  0.03932  0.100462  0  3.980382  0
C  C59  1  0.41911760  0.95500106  0.89980801  1  0.373615  0  -0.060257  -0.03967  0  3.819971  0
C  C60  1  0.23603532  0.11640123  0.97119306  1  0.380085  0  -0.059937  -0.040138  0  3.811652  0
C  C61  1  0.01475446  0.21143647  0.03489325  1  0.470942  0  0.112175  0.315675  0  4.03692  0
C  C62  1  0.90686208  0.22214362  0.11746497  1  0.013633  0  -0.095777  -0.235523  0  3.957977  0
C  C63  1  0.78812434  0.29600114  0.09920098  1  0.47167  0  0.039131  0.101199  0  3.973469  0
C  C64  1  0.87582544  0.34902947  0.92600725  1  0.459296  0  0.043526  0.109865  0  3.992751  0
C  C65  1  0.99822802  0.27602765  0.93606304  1  0.006911  0  -0.100965  -0.260782  0  3.945691  0
C  C66  1  0.42792310  0.46209163  0.16898030  1  1.5456  0  0.19846  0.566116  0  4.214204  0
C  C67  1  0.30222176  0.49938786  0.24437435  1  -0.052241  0  -0.020575  -0.011063  0  3.990537  0
C  C68  1  0.27295147  0.63042785  0.28059222  1  -0.040829  0  -0.089732  -0.137226  0  3.953487  0
C  C69  1  0.15385614  0.66244911  0.34915685  1  0.014248  0  -0.024866  -0.029879  0  4.026992  0
C  C70  1  0.06181062  0.56364359  0.37747902  1  -0.131096  0  -0.099241  -0.220113  0  3.945167  0
C  C71  1  0.21111429  0.40054824  0.27481407  1  -0.025445  0  -0.093397  -0.212101  0  3.915179  0
C  C72  1  0.12283827  0.80246825  0.38888323  1  1.508703  0  0.20433  0.567582  0  4.187242  0
C  C73  1  0.08972997  0.43255870  0.34043079  1  0.575351  0  0.074359  0.322271  0  4.077447  0
C  C74  1  0.32788962  0.00226379  0.00279917  1  0.059234  0  -0.017776  0.052548  0  3.838216  0
N  N75  1  0.82066635  0.98529942  0.37356143  1  -1.262693  0  -0.3458  -0.272812  0  3.592623  0
N  N76  1  0.77367511  0.64262234  0.99480050  1  -1.287148  0  -0.34894  -0.2779  0  3.609213  0
N  N77  1  0.81553119  0.01596577  0.62723552  1  -1.237614  0  -0.345857  -0.273101  0  3.59004  0
N  N78  1  0.77144712  0.35953334  0.00492031  1  -1.250158  0  -0.348771  -0.277352  0  3.609201  0
O  O79  1  0.45728933  0.66224891  0.85172278  1  -1.187633  0  -0.323679  -0.56501  0  2.172995  0
O  O80  1  0.49936771  0.44826416  0.86541863  1  -1.177104  0  -0.340567  -0.560029  0  2.311867  0
O  O81  1  0.05326139  0.17669975  0.52017325  1  -1.172942  0  -0.329081  -0.56273  0  2.366961  0
O  O82  1  0.15113379  0.10953058  0.67884661  1  -1.15753  0  -0.315858  -0.523256  0  2.087834  0
O  O83  1  0.12857474  0.86638974  0.94716250  1  -1.078385  0  -0.160079  -0.174223  0  2.572362  0
O  O84  1  0.49103796  0.93632707  0.14219532  1  -1.078515  0  -0.157135  -0.166284  0  2.551979  0
O  O85  1  0.98471552  0.65891587  0.63668703  1  -1.204868  0  -0.388263  -0.520438  0  2.328931  0
O  O86  1  0.45764645  0.34409154  0.14326654  1  -1.187965  0  -0.323894  -0.565054  0  2.172376  0
O  O87  1  0.49849502  0.55853774  0.13222589  1  -1.167378  0  -0.339763  -0.558664  0  2.30612  0
O  O88  1  0.05296499  0.82311715  0.48667174  1  -1.163129  0  -0.330553  -0.564819  0  2.363087  0
O  O89  1  0.15637174  0.89242426  0.33113545  1  -1.159773  0  -0.318201  -0.526302  0  2.084545  0
O  O90  1  0.12787848  0.13882777  0.05789984  1  -1.078567  0  -0.160386  -0.174072  0  2.567061  0
O  O91  1  0.48854651  0.06776616  0.86108320  1  -1.074498  0  -0.15638  -0.165831  0  2.549367  0
O  O92  1  0.99337367  0.34000255  0.36702174  1  -1.220495  0  -0.388652  -0.523599  0  2.330662  0
