# generated using pymatgen
data_AgH3C4S(NO)2
_symmetry_space_group_name_H-M   'P 1'
_cell_length_a   3.72929555
_cell_length_b   12.48557152
_cell_length_c   12.99710497
_cell_angle_alpha   90.00011996
_cell_angle_beta   90.09439535
_cell_angle_gamma   89.99974101
_symmetry_Int_Tables_number   1
_chemical_formula_structural   AgH3C4S(NO)2
_chemical_formula_sum   'Ag4 H12 C16 S4 N8 O8'
_cell_volume   605.17540096
_cell_formula_units_Z   4
loop_
 _symmetry_equiv_pos_site_id
 _symmetry_equiv_pos_as_xyz
  1  'x, y, z'
loop_
 _atom_site_type_symbol
 _atom_site_label
 _atom_site_symmetry_multiplicity
 _atom_site_fract_x
 _atom_site_fract_y
 _atom_site_fract_z
 _atom_site_occupancy
 _atom_site_hle17_bader_spin_density
 _atom_site_hle17_ddec_charge
 _atom_site_hle17_ddec_spin_density
 _atom_site_hle17_ddec_sum_bond_order
 _atom_site_hle17_magmom
 _atom_site_hse06_10hf_bader_spin_density
 _atom_site_hse06_10hf_ddec_charge
 _atom_site_hse06_10hf_ddec_spin_density
 _atom_site_hse06_10hf_ddec_sum_bond_order
 _atom_site_hse06_10hf_magmom
 _atom_site_hse06_bader_spin_density
 _atom_site_hse06_ddec_charge
 _atom_site_hse06_ddec_spin_density
 _atom_site_hse06_ddec_sum_bond_order
 _atom_site_hse06_magmom
 _atom_site_pbe_bader_spin_density
 _atom_site_pbe_cm5_charge
 _atom_site_pbe_ddec_charge
 _atom_site_pbe_ddec_spin_density
 _atom_site_pbe_ddec_sum_bond_order
 _atom_site_pbe_magmom
Ag  Ag0  1  0.99359491  0.94902214  0.90106710  1  0  0.58103  0  1.393361  0  0  0.453683  0  1.856096  0  0  0.486753  0  1.797037  0  0  0.429701  0.431246  0  1.896799  0
Ag  Ag1  1  0.00639590  0.44901333  0.59892811  1  0  0.581047  0  1.393291  0  0  0.453694  0  1.855975  0  0  0.486736  0  1.796951  0  0  0.429693  0.43125  0  1.896672  0
Ag  Ag2  1  0.00640535  0.05097895  0.09893053  1  0  0.581036  0  1.393371  0  0  0.453717  0  1.85611  0  0  0.486796  0  1.797035  0  0  0.429716  0.431276  0  1.896794  0
Ag  Ag3  1  0.99358014  0.55097975  0.40107252  1  0  0.581076  0  1.393333  0  0  0.453724  0  1.856104  0  0  0.4868  0  1.797015  0  0  0.429695  0.431284  0  1.896781  0
H  H4  1  0.91707464  0.72410174  0.86892370  1  0  0.128354  0  0.973652  0  0  0.14536  0  1.041272  0  0  0.147502  0  1.039736  0  0  0.088665  0.143702  0  1.042523  0
H  H5  1  0.08293015  0.22410170  0.63107572  1  0  0.128362  0  0.97367  0  0  0.145373  0  1.041273  0  0  0.147517  0  1.039733  0  0  0.088674  0.143712  0  1.04253  0
H  H6  1  0.08292308  0.27589455  0.13106931  1  0  0.128316  0  0.973657  0  0  0.145305  0  1.0413  0  0  0.147467  0  1.039743  0  0  0.088641  0.143639  0  1.042558  0
H  H7  1  0.91708590  0.77589698  0.36893196  1  0  0.128298  0  0.973687  0  0  0.145284  0  1.041332  0  0  0.147459  0  1.039762  0  0  0.088649  0.14362  0  1.04259  0
H  H8  1  0.96229577  0.62466522  0.77090402  1  0  0.134886  0  0.965427  0  0  0.150051  0  1.03633  0  0  0.151736  0  1.035525  0  0  0.094758  0.148767  0  1.036983  0
H  H9  1  0.03771050  0.12466546  0.72909596  1  0  0.134788  0  0.965488  0  0  0.150005  0  1.036328  0  0  0.151693  0  1.035522  0  0  0.094751  0.148723  0  1.036984  0
H  H10  1  0.03770461  0.37533026  0.22908976  1  0  0.134939  0  0.965394  0  0  0.150121  0  1.036258  0  0  0.151805  0  1.035459  0  0  0.094817  0.148833  0  1.036921  0
H  H11  1  0.96230287  0.87533322  0.27091171  1  0  0.134913  0  0.965344  0  0  0.150105  0  1.036209  0  0  0.151793  0  1.035404  0  0  0.094797  0.148815  0  1.03686  0
H  H12  1  0.53674626  0.65133635  0.82159528  1  0  0.133054  0  0.957234  0  0  0.151297  0  1.023116  0  0  0.152345  0  1.023269  0  0  0.095108  0.150537  0  1.022986  0
H  H13  1  0.46325697  0.15133591  0.67840321  1  0  0.133194  0  0.957085  0  0  0.151379  0  1.02304  0  0  0.152428  0  1.023193  0  0  0.095145  0.150623  0  1.022901  0
H  H14  1  0.46325407  0.34865993  0.17840004  1  0  0.13312  0  0.9571  0  0  0.151343  0  1.022998  0  0  0.152392  0  1.023153  0  0  0.095114  0.150586  0  1.022859  0
H  H15  1  0.53675647  0.84866198  0.32160215  1  0  0.13314  0  0.957116  0  0  0.151332  0  1.023048  0  0  0.152374  0  1.02322  0  0  0.095107  0.150574  0  1.022907  0
C  C16  1  0.73590950  0.77309345  0.72093902  1  0  0.266791  0  3.680932  0  0  0.268393  0  3.932515  0  0  0.273462  0  3.954793  0  0  0.110861  0.264745  0  3.917699  0
C  C17  1  0.26409721  0.27309429  0.77906127  1  0  0.266758  0  3.680993  0  0  0.268396  0  3.932537  0  0  0.273471  0  3.954808  0  0  0.11087  0.26474  0  3.917728  0
C  C18  1  0.26407742  0.22689963  0.27905626  1  0  0.266849  0  3.680803  0  0  0.268514  0  3.932445  0  0  0.273581  0  3.954731  0  0  0.110835  0.264858  0  3.917628  0
C  C19  1  0.73592162  0.72690679  0.22094334  1  0  0.26689  0  3.680772  0  0  0.268473  0  3.93249  0  0  0.273539  0  3.954777  0  0  0.11088  0.264824  0  3.917659  0
C  C20  1  0.58404690  0.76082088  0.62357829  1  0  -0.221115  0  3.650315  0  0  -0.207058  0  3.908833  0  0  -0.21635  0  3.927917  0  0  -0.011614  -0.201153  0  3.896502  0
C  C21  1  0.41595466  0.26082333  0.87642119  1  0  -0.221031  0  3.650271  0  0  -0.207002  0  3.908823  0  0  -0.216301  0  3.92792  0  0  -0.011616  -0.201096  0  3.896486  0
C  C22  1  0.41592662  0.23917700  0.37641695  1  0  -0.221022  0  3.650008  0  0  -0.207239  0  3.908839  0  0  -0.216538  0  3.927933  0  0  -0.011644  -0.20132  0  3.896487  0
C  C23  1  0.58407226  0.73918176  0.12358191  1  0  -0.221015  0  3.650053  0  0  -0.207164  0  3.908878  0  0  -0.216458  0  3.927971  0  0  -0.01161  -0.201246  0  3.896522  0
C  C24  1  0.79118252  0.68921268  0.80047777  1  0  -0.370354  0  3.676993  0  0  -0.453359  0  3.910785  0  0  -0.456391  0  3.919079  0  0  -0.247752  -0.450859  0  3.905093  0
C  C25  1  0.20882813  0.18921422  0.69952236  1  0  -0.370425  0  3.676991  0  0  -0.453417  0  3.910728  0  0  -0.456448  0  3.919012  0  0  -0.24778  -0.45091  0  3.905039  0
C  C26  1  0.20881244  0.31078281  0.19951754  1  0  -0.3705  0  3.676868  0  0  -0.453464  0  3.910603  0  0  -0.456514  0  3.918881  0  0  -0.247792  -0.450965  0  3.904926  0
C  C27  1  0.79119067  0.81078526  0.30048302  1  0  -0.370463  0  3.676892  0  0  -0.453373  0  3.910623  0  0  -0.456431  0  3.91888  0  0  -0.247786  -0.450885  0  3.904984  0
C  C28  1  0.41671175  0.66553255  0.57504959  1  0  0.65413  0  3.974979  0  0  0.600107  0  4.263432  0  0  0.636502  0  4.257418  0  0  0.195386  0.575297  0  4.266745  0
C  C29  1  0.58328045  0.16553568  0.92495197  1  0  0.654212  0  3.974851  0  0  0.600143  0  4.263374  0  0  0.636535  0  4.257364  0  0  0.195417  0.575339  0  4.266681  0
C  C30  1  0.58326711  0.33446373  0.42494644  1  0  0.654268  0  3.974676  0  0  0.600383  0  4.26305  0  0  0.636777  0  4.257039  0  0  0.195521  0.575572  0  4.266352  0
C  C31  1  0.41673567  0.83447181  0.07505340  1  0  0.654255  0  3.974641  0  0  0.600312  0  4.2631  0  0  0.636704  0  4.257078  0  0  0.195438  0.575501  0  4.26641  0
S  S32  1  0.59307464  0.88115571  0.56321528  1  0  0.304463  0  2.773712  0  0  0.289451  0  3.144967  0  0  0.294626  0  3.150824  0  0  0.253485  0.285196  0  3.141695  0
S  S33  1  0.40692781  0.38115830  0.93678368  1  0  0.304418  0  2.773622  0  0  0.28942  0  3.144897  0  0  0.294594  0  3.150755  0  0  0.253488  0.285163  0  3.141616  0
S  S34  1  0.40692292  0.11884618  0.43678311  1  0  0.304408  0  2.773629  0  0  0.289495  0  3.144966  0  0  0.294667  0  3.150823  0  0  0.253479  0.285225  0  3.141691  0
S  S35  1  0.59308041  0.61884839  0.06321705  1  0  0.3044  0  2.773494  0  0  0.289469  0  3.144809  0  0  0.294638  0  3.150668  0  0  0.253471  0.285204  0  3.141532  0
N  N36  1  0.84142680  0.87693566  0.73837696  1  0  -0.193582  0  3.148365  0  0  -0.142305  0  3.44923  0  0  -0.152623  0  3.461015  0  0  -0.198289  -0.135181  0  3.441244  0
N  N37  1  0.15857569  0.37693741  0.76162276  1  0  -0.193605  0  3.148373  0  0  -0.142329  0  3.449222  0  0  -0.152645  0  3.461004  0  0  -0.1983  -0.1352  0  3.441231  0
N  N38  1  0.15857076  0.12305902  0.26162143  1  0  -0.193488  0  3.148161  0  0  -0.142246  0  3.44904  0  0  -0.152561  0  3.460822  0  0  -0.198282  -0.135116  0  3.441042  0
N  N39  1  0.84142714  0.62306128  0.23837873  1  0  -0.193669  0  3.148305  0  0  -0.142366  0  3.449169  0  0  -0.152681  0  3.460958  0  0  -0.198326  -0.135238  0  3.441172  0
N  N40  1  0.78420884  0.94350365  0.66229804  1  0  -0.185804  0  2.864869  0  0  -0.175244  0  3.174281  0  0  -0.175243  0  3.185257  0  0  -0.172799  -0.17501  0  3.166953  0
N  N41  1  0.21579267  0.44350629  0.83770105  1  0  -0.185771  0  2.864774  0  0  -0.175222  0  3.174199  0  0  -0.17522  0  3.185173  0  0  -0.172789  -0.174985  0  3.166861  0
N  N42  1  0.21579672  0.05649343  0.33770192  1  0  -0.18593  0  2.86478  0  0  -0.175354  0  3.174205  0  0  -0.175351  0  3.185177  0  0  -0.172835  -0.175113  0  3.166866  0
N  N43  1  0.78420214  0.55649560  0.16229964  1  0  -0.1858  0  2.864804  0  0  -0.17523  0  3.174198  0  0  -0.175229  0  3.185177  0  0  -0.172787  -0.174998  0  3.166869  0
O  O44  1  0.42091452  0.57885495  0.62639815  1  0  -0.612037  0  2.123504  0  0  -0.531802  0  2.403647  0  0  -0.562937  0  2.389886  0  0  -0.314348  -0.510184  0  2.412432  0
O  O45  1  0.57906287  0.07885478  0.87360397  1  0  -0.612082  0  2.12339  0  0  -0.531871  0  2.403684  0  0  -0.563033  0  2.389987  0  0  -0.314387  -0.510262  0  2.412483  0
O  O46  1  0.57905368  0.42114854  0.37359554  1  0  -0.612122  0  2.123122  0  0  -0.53195  0  2.403301  0  0  -0.56309  0  2.389532  0  0  -0.314364  -0.51034  0  2.412113  0
O  O47  1  0.42095850  0.92115272  0.12640527  1  0  -0.612168  0  2.123285  0  0  -0.531982  0  2.4035  0  0  -0.563147  0  2.389799  0  0  -0.314378  -0.510363  0  2.412292  0
O  O48  1  0.27625603  0.68131957  0.48690996  1  0  -0.619832  0  2.097018  0  0  -0.54856  0  2.374137  0  0  -0.579357  0  2.361827  0  0  -0.323135  -0.527061  0  2.381813  0
O  O49  1  0.72374636  0.18132082  0.01309033  1  0  -0.619844  0  2.096953  0  0  -0.548552  0  2.374087  0  0  -0.579342  0  2.361771  0  0  -0.323139  -0.527059  0  2.381775  0
O  O50  1  0.72372301  0.31867991  0.51307992  1  0  -0.619869  0  2.097223  0  0  -0.548627  0  2.374317  0  0  -0.57941  0  2.361991  0  0  -0.323213  -0.527162  0  2.38207  0
O  O51  1  0.27626967  0.81868988  0.98691812  1  0  -0.619867  0  2.097008  0  0  -0.548613  0  2.374131  0  0  -0.579395  0  2.361804  0  0  -0.323196  -0.527142  0  2.381874  0
