# generated using pymatgen
data_TbH23C22N2O9
_symmetry_space_group_name_H-M   'P 1'
_cell_length_a   13.58079725
_cell_length_b   14.40689215
_cell_length_c   16.03676507
_cell_angle_alpha   116.69062223
_cell_angle_beta   97.20991907
_cell_angle_gamma   89.99546406
_symmetry_Int_Tables_number   1
_chemical_formula_structural   TbH23C22N2O9
_chemical_formula_sum   'Tb4 H92 C88 N8 O36'
_cell_volume   2775.58706286
_cell_formula_units_Z   4
loop_
 _symmetry_equiv_pos_site_id
 _symmetry_equiv_pos_as_xyz
  1  'x, y, z'
loop_
 _atom_site_type_symbol
 _atom_site_label
 _atom_site_symmetry_multiplicity
 _atom_site_fract_x
 _atom_site_fract_y
 _atom_site_fract_z
 _atom_site_occupancy
 _atom_site_pbe_bader_charge
 _atom_site_pbe_bader_spin_density
 _atom_site_pbe_cm5_charge
 _atom_site_pbe_ddec_charge
 _atom_site_pbe_ddec_spin_density
 _atom_site_pbe_ddec_sum_bond_order
 _atom_site_pbe_magmom
Tb  Tb0  1  0.53786497  0.03040685  0.63719537  1  2.181735  0  1.50292  2.055361  0  2.150476  0
Tb  Tb1  1  0.96206534  0.39326939  0.36277160  1  2.183078  0  1.503011  2.056248  0  2.148819  0
Tb  Tb2  1  0.46213461  0.96959179  0.36280464  1  2.181722  0  1.502922  2.055358  0  2.150483  0
Tb  Tb3  1  0.03793495  0.60673041  0.63722880  1  2.183073  0  1.502993  2.056263  0  2.148804  0
H  H4  1  0.21548077  0.19150098  0.45168680  1  0.10173  0  0.104556  0.109551  0  1.028625  0
H  H5  1  0.28425930  0.73980134  0.54821513  1  0.062378  0  0.104529  0.108805  0  1.029543  0
H  H6  1  0.78451942  0.80849973  0.54831296  1  0.101647  0  0.104606  0.109653  0  1.028606  0
H  H7  1  0.71574177  0.26019745  0.45178504  1  0.062355  0  0.104519  0.108812  0  1.029528  0
H  H8  1  0.07249702  0.40477115  0.68304243  1  0.119963  0  0.114797  0.127183  0  1.047583  0
H  H9  1  0.42729871  0.72180490  0.31693247  1  0.143857  0  0.11477  0.12752  0  1.047415  0
H  H10  1  0.92750393  0.59523027  0.31695803  1  0.119942  0  0.114811  0.127216  0  1.047664  0
H  H11  1  0.57269996  0.27819613  0.68306682  1  0.143866  0  0.114777  0.127542  0  1.047381  0
H  H12  1  0.29305300  0.20992547  0.72693808  1  0.107311  0  0.110245  0.11824  0  1.018642  0
H  H13  1  0.20686894  0.48296716  0.27296968  1  0.111452  0  0.110362  0.117774  0  1.019798  0
H  H14  1  0.70694509  0.79007177  0.27306053  1  0.107361  0  0.110227  0.11821  0  1.018679  0
H  H15  1  0.79313055  0.51703240  0.72702970  1  0.111608  0  0.110363  0.117779  0  1.019827  0
H  H16  1  0.22867581  0.41227580  0.86359176  1  0.059875  0  0.103276  0.076803  0  0.976491  0
H  H17  1  0.27123657  0.54861764  0.13635860  1  0.058032  0  0.10299  0.076263  0  0.976278  0
H  H18  1  0.77132300  0.58772385  0.13640849  1  0.05985  0  0.103269  0.0768  0  0.976498  0
H  H19  1  0.72876359  0.45138416  0.86364146  1  0.057999  0  0.103014  0.076339  0  0.976221  0
H  H20  1  0.09805651  0.40548514  0.82713954  1  0.087959  0  0.10657  0.077291  0  1.003836  0
H  H21  1  0.40184174  0.57851733  0.17288419  1  0.056557  0  0.106351  0.07758  0  1.002877  0
H  H22  1  0.90194232  0.59451281  0.17285977  1  0.087983  0  0.106583  0.077335  0  1.003803  0
H  H23  1  0.59815776  0.42148223  0.82711518  1  0.05655  0  0.10636  0.077633  0  1.002858  0
H  H24  1  0.11033760  0.47014149  0.97676835  1  0.069694  0  0.101886  0.111388  0  1.03368  0
H  H25  1  0.38987932  0.49357152  0.02328773  1  0.067521  0  0.101741  0.111271  0  1.033761  0
H  H26  1  0.88966268  0.52985706  0.02323080  1  0.069671  0  0.101883  0.111376  0  1.033646  0
H  H27  1  0.61012083  0.50642904  0.97671109  1  0.067529  0  0.101763  0.11131  0  1.033797  0
H  H28  1  0.05091950  0.49935344  0.12624961  1  0.061688  0  0.10028  0.097539  0  1.019162  0
H  H29  1  0.44916260  0.37328715  0.87372674  1  0.064032  0  0.100384  0.097921  0  1.018962  0
H  H30  1  0.94908069  0.50064665  0.87374952  1  0.061659  0  0.100273  0.09752  0  1.019216  0
H  H31  1  0.55083694  0.62671133  0.12627233  1  0.06409  0  0.100356  0.097892  0  1.018946  0
H  H32  1  0.07339172  0.17666746  0.05638506  1  0.102051  0  0.107414  0.109269  0  0.99906  0
H  H33  1  0.42661904  0.12040569  0.94346850  1  0.075239  0  0.107534  0.109708  0  0.999198  0
H  H34  1  0.92660931  0.82333241  0.94361541  1  0.10205  0  0.107425  0.109292  0  0.999063  0
H  H35  1  0.57337976  0.87959459  0.05653236  1  0.075237  0  0.107531  0.109674  0  0.999202  0
H  H36  1  0.13295396  0.14449345  0.90456433  1  0.055553  0  0.105146  0.118781  0  0.999576  0
H  H37  1  0.36730715  0.24006597  0.09541722  1  0.047627  0  0.105147  0.119059  0  0.999237  0
H  H38  1  0.86704568  0.85550597  0.09543725  1  0.055641  0  0.105135  0.11874  0  0.999583  0
H  H39  1  0.63269087  0.75993469  0.90458325  1  0.047613  0  0.105162  0.119086  0  0.99921  0
H  H40  1  0.78737376  0.99373252  0.65711938  1  0.119206  0  0.125845  0.045387  0  1.029668  0
H  H41  1  0.71269853  0.33694088  0.34317070  1  0.128569  0  0.125782  0.045408  0  1.029436  0
H  H42  1  0.21262666  0.00626590  0.34288197  1  0.119232  0  0.125843  0.045431  0  1.02964  0
H  H43  1  0.28730171  0.66306000  0.65683000  1  0.128406  0  0.125787  0.045412  0  1.029427  0
H  H44  1  0.80552471  0.27128740  0.74259317  1  0.112155  0  0.11167  0.132102  0  1.025874  0
H  H45  1  0.69430263  0.52870445  0.25737940  1  0.108512  0  0.111987  0.132914  0  1.025069  0
H  H46  1  0.19447551  0.72870973  0.25740378  1  0.112145  0  0.111665  0.132091  0  1.025869  0
H  H47  1  0.30569757  0.47129752  0.74262160  1  0.108543  0  0.111972  0.132895  0  1.02506  0
H  H48  1  0.92241244  0.26557044  0.70018403  1  0.064731  0  0.106161  0.120946  0  0.982589  0
H  H49  1  0.57737073  0.56537544  0.29971357  1  0.028258  0  0.106536  0.121471  0  0.982259  0
H  H50  1  0.07758620  0.73442623  0.29981089  1  0.065239  0  0.10617  0.120976  0  0.982547  0
H  H51  1  0.42262947  0.43462652  0.70028744  1  0.028289  0  0.106529  0.121443  0  0.982305  0
H  H52  1  0.91962927  0.27954801  0.81644446  1  0.052781  0  0.103662  0.11706  0  0.988826  0
H  H53  1  0.58025221  0.46298150  0.18351069  1  0.051793  0  0.103641  0.11736  0  0.988739  0
H  H54  1  0.08037147  0.72045150  0.18355098  1  0.052721  0  0.10368  0.117062  0  0.988808  0
H  H55  1  0.41974948  0.53702061  0.81649047  1  0.051934  0  0.103634  0.117331  0  0.988769  0
H  H56  1  0.94624537  0.99332292  0.66829236  1  0.077195  0  0.110926  0.12088  0  1.004716  0
H  H57  1  0.55376927  0.32500463  0.33173001  1  0.06731  0  0.11094  0.120909  0  1.005318  0
H  H58  1  0.05375565  0.00667571  0.33170686  1  0.077197  0  0.110926  0.120853  0  1.004715  0
H  H59  1  0.44623089  0.67499717  0.66827005  1  0.06729  0  0.110927  0.120876  0  1.005308  0
H  H60  1  0.01681320  0.10862743  0.75557456  1  0.073131  0  0.103539  0.11621  0  1.02273  0
H  H61  1  0.48315300  0.35303802  0.24448041  1  0.072089  0  0.103608  0.116228  0  1.023036  0
H  H62  1  0.98318777  0.89137165  0.24442434  1  0.073019  0  0.103519  0.116173  0  1.022743  0
H  H63  1  0.51684863  0.64696206  0.75551794  1  0.072153  0  0.103613  0.116229  0  1.023027  0
H  H64  1  0.99770128  0.08488682  0.63569965  1  0.046698  0  0.103133  0.114362  0  0.986119  0
H  H65  1  0.50220030  0.44911323  0.36436895  1  0.042565  0  0.102935  0.114343  0  0.985759  0
H  H66  1  0.00229825  0.91511104  0.36429880  1  0.046711  0  0.103139  0.114365  0  0.986088  0
H  H67  1  0.49779906  0.55088771  0.63562947  1  0.042632  0  0.102936  0.114326  0  0.98578  0
H  H68  1  0.57898922  0.79157145  0.62735554  1  0.092442  0  0.122744  0.04364  0  1.011084  0
H  H69  1  0.92101632  0.16445433  0.37261966  1  0.094921  0  0.122997  0.043801  0  1.010952  0
H  H70  1  0.42101102  0.20842818  0.37264391  1  0.092424  0  0.122748  0.043648  0  1.011099  0
H  H71  1  0.07898470  0.83554430  0.62737956  1  0.094792  0  0.122993  0.043791  0  1.010959  0
H  H72  1  0.69482673  0.66187660  0.73035591  1  0.038283  0  0.099937  0.111414  0  1.019298  0
H  H73  1  0.80538291  0.93169183  0.26970135  1  0.056191  0  0.099633  0.111104  0  1.019725  0
H  H74  1  0.30517495  0.33812302  0.26964275  1  0.038241  0  0.099949  0.111426  0  1.019237  0
H  H75  1  0.19461663  0.06830727  0.73029834  1  0.056214  0  0.099644  0.111143  0  1.019681  0
H  H76  1  0.78112613  0.66487679  0.65661300  1  0.133347  0  0.114392  0.146534  0  1.018398  0
H  H77  1  0.71906925  0.00834385  0.34347675  1  0.13389  0  0.114194  0.146079  0  1.019219  0
H  H78  1  0.21887554  0.33512282  0.34338566  1  0.133362  0  0.114399  0.146543  0  1.018365  0
H  H79  1  0.28093028  0.99165462  0.65652232  1  0.133878  0  0.114205  0.146096  0  1.019209  0
H  H80  1  0.65069838  0.65241015  0.61676837  1  0.073175  0  0.104667  0.112494  0  0.997721  0
H  H81  1  0.84949746  0.03583405  0.38325887  1  0.028457  0  0.10473  0.112355  0  0.997384  0
H  H82  1  0.34930330  0.34759009  0.38323091  1  0.073169  0  0.104685  0.112486  0  0.997739  0
H  H83  1  0.15050212  0.96416459  0.61674114  1  0.028414  0  0.104748  0.11238  0  0.997351  0
H  H84  1  0.82757213  0.91174220  0.76995990  1  0.053246  0  0.106405  0.119179  0  0.983267  0
H  H85  1  0.67234291  0.14186868  0.23011948  1  0.051517  0  0.106578  0.119258  0  0.982608  0
H  H86  1  0.17242886  0.08825814  0.23004026  1  0.053262  0  0.10641  0.119191  0  0.983266  0
H  H87  1  0.32765668  0.85813121  0.76988178  1  0.051522  0  0.106603  0.119312  0  0.98261  0
H  H88  1  0.83252575  0.81647406  0.81176199  1  0.12368  0  0.111496  0.138036  0  1.025969  0
H  H89  1  0.66745064  0.00480404  0.18836127  1  0.134285  0  0.11111  0.137541  0  1.025955  0
H  H90  1  0.16747523  0.18352565  0.18823754  1  0.123686  0  0.111506  0.138046  0  1.025948  0
H  H91  1  0.33254891  0.99519631  0.81163967  1  0.134294  0  0.111114  0.137547  0  1.02595  0
H  H92  1  0.75031278  0.92203351  0.85515206  1  0.046637  0  0.106349  0.118111  0  0.978632  0
H  H93  1  0.74956309  0.06697137  0.14489533  1  0.0657  0  0.106432  0.118225  0  0.978428  0
H  H94  1  0.24968746  0.07796550  0.14484676  1  0.04661  0  0.106325  0.118082  0  0.978661  0
H  H95  1  0.25043567  0.93302936  0.85510522  1  0.065677  0  0.106425  0.118207  0  0.978425  0
C  C96  1  0.33652693  0.11199714  0.54888988  1  1.596107  0  0.227125  0.63814  0  4.1593  0
C  C97  1  0.16334808  0.56308741  0.45102932  1  1.606225  0  0.226749  0.638237  0  4.156514  0
C  C98  1  0.66347182  0.88800172  0.45110880  1  1.596096  0  0.227073  0.638046  0  4.159457  0
C  C99  1  0.83665216  0.43691285  0.54897076  1  1.606193  0  0.226712  0.638148  0  4.156627  0
C  C100  1  0.26085312  0.19163594  0.58561163  1  -0.037063  0  -0.020422  -0.039377  0  3.976123  0
C  C101  1  0.23896055  0.60605267  0.41429721  1  0.030179  0  -0.020075  -0.04079  0  3.976907  0
C  C102  1  0.73914711  0.80836307  0.41438720  1  -0.037074  0  -0.020419  -0.039372  0  3.976118  0
C  C103  1  0.76104116  0.39394649  0.58570177  1  0.029765  0  -0.020042  -0.040712  0  3.976861  0
C  C104  1  0.20490732  0.22446319  0.52551105  1  -0.139619  0  -0.081252  -0.116483  0  3.947788  0
C  C105  1  0.29482692  0.69903472  0.47440221  1  -0.013355  0  -0.08111  -0.114631  0  3.946978  0
C  C106  1  0.79509519  0.77553683  0.47448958  1  -0.139447  0  -0.08128  -0.116672  0  3.947866  0
C  C107  1  0.70517410  0.30096391  0.52559702  1  -0.013011  0  -0.081075  -0.11465  0  3.947009  0
C  C108  1  0.13773009  0.30140055  0.56058990  1  0.058016  0  -0.017152  -0.027132  0  3.996676  0
C  C109  1  0.36200933  0.74091852  0.43934175  1  -0.011207  0  -0.017426  -0.027669  0  3.996204  0
C  C110  1  0.86227163  0.69859923  0.43940971  1  0.058024  0  -0.017152  -0.02695  0  3.996553  0
C  C111  1  0.63799170  0.25908073  0.56065810  1  -0.011114  0  -0.017433  -0.027695  0  3.996333  0
C  C112  1  0.12443104  0.34408646  0.65557735  1  -0.043741  0  -0.074059  -0.142698  0  3.921821  0
C  C113  1  0.37534118  0.68858892  0.34436914  1  -0.080401  0  -0.074194  -0.143408  0  3.922302  0
C  C114  1  0.87557068  0.65591332  0.34442225  1  -0.043702  0  -0.074107  -0.142836  0  3.921912  0
C  C115  1  0.62465836  0.31141081  0.65563117  1  -0.080401  0  -0.074189  -0.143368  0  3.922223  0
C  C116  1  0.17903208  0.31084151  0.71578626  1  -0.104126  0  -0.017381  0.066964  0  4.010062  0
C  C117  1  0.32083424  0.59508150  0.28415748  1  -0.043982  0  -0.017698  0.067075  0  4.01057  0
C  C118  1  0.82096821  0.68915767  0.28421351  1  -0.104162  0  -0.017363  0.066999  0  4.010027  0
C  C119  1  0.67916595  0.40491860  0.71584165  1  -0.043942  0  -0.0177  0.067096  0  4.010487  0
C  C120  1  0.24795347  0.23533064  0.68081568  1  0.031417  0  -0.075414  -0.127543  0  3.90816  0
C  C121  1  0.25190283  0.55452420  0.31910644  1  -0.083124  0  -0.075171  -0.126354  0  3.90931  0
C  C122  1  0.75204598  0.76466938  0.31918337  1  0.03132  0  -0.075395  -0.127458  0  3.90807  0
C  C123  1  0.74809737  0.44547714  0.68089394  1  -0.083287  0  -0.0752  -0.126396  0  3.909306  0
C  C124  1  0.16425677  0.35960359  0.81755323  1  0.400482  0  -0.0575  -0.01171  0  3.899713  0
C  C125  1  0.33570748  0.54209202  0.18241374  1  0.429699  0  -0.056781  -0.011431  0  3.898128  0
C  C126  1  0.83574287  0.64039522  0.18244772  1  0.400454  0  -0.057546  -0.0118  0  3.8998  0
C  C127  1  0.66429122  0.45790730  0.81758462  1  0.429736  0  -0.056833  -0.01163  0  3.898169  0
C  C128  1  0.12376370  0.30420353  0.93027948  1  0.40536  0  0.083299  0.257368  0  4.084614  0
C  C129  1  0.37642056  0.37405509  0.06971553  1  0.437438  0  0.082852  0.257935  0  4.084261  0
C  C130  1  0.87623663  0.69579519  0.06972060  1  0.405375  0  0.083268  0.25727  0  4.084677  0
C  C131  1  0.62357811  0.62594532  0.93028313  1  0.437566  0  0.082808  0.257873  0  4.084188  0
C  C132  1  0.10218325  0.40512111  0.99299638  1  -0.047783  0  -0.117863  -0.244681  0  4.033709  0
C  C133  1  0.39799112  0.41230017  0.00702303  1  -0.03571  0  -0.116768  -0.24415  0  4.032209  0
C  C134  1  0.89781708  0.59487823  0.00700433  1  -0.047803  0  -0.117828  -0.244571  0  4.033556  0
C  C135  1  0.60200763  0.58769931  0.99297627  1  -0.035705  0  -0.116766  -0.244128  0  4.032168  0
C  C136  1  0.06871794  0.42164097  0.07706304  1  -0.057736  0  -0.085914  -0.066642  0  4.002421  0
C  C137  1  0.43134370  0.34474256  0.92289493  1  -0.076983  0  -0.085847  -0.066575  0  4.001214  0
C  C138  1  0.93128243  0.57835666  0.92293675  1  -0.057671  0  -0.085968  -0.066747  0  4.002473  0
C  C139  1  0.56865580  0.65525700  0.07710444  1  -0.077017  0  -0.085818  -0.066534  0  4.001099  0
C  C140  1  0.05779839  0.34016854  0.10059864  1  -0.001768  0  -0.029277  -0.053134  0  3.990928  0
C  C141  1  0.44218566  0.23970840  0.89930700  1  0.02022  0  -0.030448  -0.054706  0  3.991604  0
C  C142  1  0.94220263  0.65983071  0.89940121  1  -0.001808  0  -0.029256  -0.053079  0  3.990942  0
C  C143  1  0.55781305  0.76029217  0.10069261  1  0.020196  0  -0.030439  -0.05473  0  3.991607  0
C  C144  1  0.08188993  0.24014553  0.03799928  1  -0.080797  0  -0.082166  -0.068801  0  3.997059  0
C  C145  1  0.41816648  0.20226512  0.96191177  1  -0.068589  0  -0.081671  -0.068705  0  3.996035  0
C  C146  1  0.91811105  0.75985480  0.96200087  1  -0.081029  0  -0.082116  -0.068761  0  3.997068  0
C  C147  1  0.58183159  0.79773508  0.03808901  1  -0.068572  0  -0.081649  -0.068594  0  3.995815  0
C  C148  1  0.11421394  0.22189097  0.95364501  1  0.062047  0  -0.108176  -0.212329  0  4.018523  0
C  C149  1  0.38596849  0.26838653  0.04632526  1  0.045607  0  -0.108133  -0.21275  0  4.01891  0
C  C150  1  0.88578638  0.77810712  0.04635446  1  0.062259  0  -0.108191  -0.212293  0  4.018635  0
C  C151  1  0.61403017  0.73161388  0.95367340  1  0.045499  0  -0.10818  -0.212833  0  4.018716  0
C  C152  1  0.02111206  0.35870594  0.19027642  1  1.547688  0  0.183952  0.56314  0  4.262706  0
C  C153  1  0.47876657  0.16851088  0.80959279  1  1.557101  0  0.184182  0.563898  0  4.261958  0
C  C154  1  0.97888818  0.64129432  0.80972366  1  1.547719  0  0.18396  0.563151  0  4.262804  0
C  C155  1  0.52123446  0.83148899  0.19040768  1  1.557035  0  0.184146  0.563803  0  4.261888  0
C  C156  1  0.78356658  0.07876527  0.68546907  1  1.380985  0  0.185002  0.324153  0  4.0932  0
C  C157  1  0.71641221  0.39358158  0.31475920  1  1.354218  0  0.184797  0.323769  0  4.093125  0
C  C158  1  0.21643301  0.92123399  0.31453157  1  1.380986  0  0.184994  0.324099  0  4.093108  0
C  C159  1  0.28358877  0.60641938  0.68524158  1  1.35471  0  0.184756  0.323717  0  4.093172  0
C  C160  1  0.88048642  0.24369338  0.74374850  1  0.246525  0  -0.129185  -0.258624  0  3.868847  0
C  C161  1  0.61934929  0.49993574  0.25622449  1  0.289276  0  -0.129965  -0.26061  0  3.868821  0
C  C162  1  0.11951297  0.75630460  0.25624775  1  0.246048  0  -0.129185  -0.258645  0  3.868816  0
C  C163  1  0.38065170  0.50006584  0.74377691  1  0.289103  0  -0.129926  -0.26054  0  3.868873  0
C  C164  1  0.96316938  0.07628863  0.69062721  1  0.260518  0  -0.128632  -0.281631  0  3.938176  0
C  C165  1  0.53679423  0.38565723  0.30942795  1  0.278764  0  -0.128242  -0.281637  0  3.937253  0
C  C166  1  0.03683085  0.92371038  0.30937162  1  0.260633  0  -0.128626  -0.281567  0  3.938178  0
C  C167  1  0.46320597  0.61434349  0.69057180  1  0.278616  0  -0.128234  -0.281602  0  3.937213  0
C  C168  1  0.63461368  0.84619980  0.68524766  1  1.408012  0  0.178444  0.311843  0  4.117154  0
C  C169  1  0.86531182  0.16114534  0.31476332  1  1.378191  0  0.17827  0.312562  0  4.116823  0
C  C170  1  0.36538731  0.15380053  0.31475250  1  1.407991  0  0.178439  0.311809  0  4.117093  0
C  C171  1  0.13468921  0.83885453  0.68523716  1  1.378643  0  0.1783  0.312662  0  4.116856  0
C  C172  1  0.70822184  0.68903588  0.67845634  1  0.222675  0  -0.133447  -0.284801  0  3.898933  0
C  C173  1  0.79194107  0.01072585  0.32159424  1  0.257863  0  -0.132649  -0.28306  0  3.899433  0
C  C174  1  0.29177983  0.31096373  0.32154232  1  0.222552  0  -0.133431  -0.28475  0  3.898883  0
C  C175  1  0.20805772  0.98927255  0.67840475  1  0.25792  0  -0.132709  -0.283154  0  3.899334  0
C  C176  1  0.78317309  0.86683368  0.79379585  1  0.243428  0  -0.129483  -0.261623  0  3.872921  0
C  C177  1  0.71676068  0.07314030  0.20627711  1  0.224865  0  -0.129597  -0.261179  0  3.871583  0
C  C178  1  0.21682789  0.13316603  0.20620368  1  0.243432  0  -0.129486  -0.261646  0  3.872958  0
C  C179  1  0.28323887  0.92685943  0.79372320  1  0.224879  0  -0.129604  -0.261187  0  3.871623  0
C  C180  1  0.08104683  0.33953095  0.49777115  1  1.581027  0  0.214026  0.619314  0  4.180036  0
C  C181  1  0.41876299  0.84181066  0.50218356  1  1.558032  0  0.215377  0.619783  0  4.178933  0
C  C182  1  0.91895415  0.66046876  0.50222838  1  1.581081  0  0.213992  0.619199  0  4.180035  0
C  C183  1  0.58123804  0.15818921  0.49781691  1  1.558001  0  0.215333  0.619731  0  4.179114  0
N  N184  1  0.87220710  0.13099417  0.70640985  1  -1.216635  0  -0.280141  0.029411  0  3.705486  0
N  N185  1  0.62771727  0.42467437  0.29367682  1  -1.209021  0  -0.280077  0.0303  0  3.702784  0
N  N186  1  0.12779313  0.86900422  0.29358835  1  -1.216638  0  -0.280143  0.029428  0  3.705553  0
N  N187  1  0.37228368  0.57532767  0.70632427  1  -1.209044  0  -0.280077  0.030357  0  3.702808  0
N  N188  1  0.70488500  0.80168697  0.71829076  1  -1.202394  0  -0.279174  0.029959  0  3.708773  0
N  N189  1  0.79510286  0.08354083  0.28174651  1  -1.206225  0  -0.279544  0.028462  0  3.709015  0
N  N190  1  0.29511667  0.19831265  0.28170790  1  -1.202233  0  -0.279221  0.02995  0  3.708874  0
N  N191  1  0.20489598  0.91645836  0.71825405  1  -1.206564  0  -0.279549  0.028423  0  3.709068  0
O  O192  1  0.37881797  0.07995272  0.60545135  1  -1.191548  0  -0.390872  -0.65427  0  2.367518  0
O  O193  1  0.12111381  0.47444106  0.39447955  1  -1.199047  0  -0.391362  -0.655145  0  2.366677  0
O  O194  1  0.62118087  0.92004647  0.39454921  1  -1.191557  0  -0.390827  -0.654212  0  2.367696  0
O  O195  1  0.87888569  0.52555850  0.60551983  1  -1.199048  0  -0.391357  -0.655115  0  2.366705  0
O  O196  1  0.35215386  0.08355015  0.46448372  1  -1.193588  0  -0.381079  -0.6669  0  2.338672  0
O  O197  1  0.14775118  0.61905897  0.53544315  1  -1.198896  0  -0.380666  -0.666011  0  2.336721  0
O  O198  1  0.64784572  0.91644849  0.53551629  1  -1.193578  0  -0.38106  -0.666839  0  2.338577  0
O  O199  1  0.85224910  0.38094082  0.46455724  1  -1.198895  0  -0.380661  -0.665967  0  2.336717  0
O  O200  1  0.97874866  0.44252869  0.23607871  1  -1.187221  0  -0.382111  -0.637382  0  2.217783  0
O  O201  1  0.52113513  0.20645501  0.76373994  1  -1.186886  0  -0.382001  -0.637321  0  2.217187  0
O  O202  1  0.02125088  0.55747104  0.76392161  1  -1.187249  0  -0.38209  -0.637364  0  2.217784  0
O  O203  1  0.47886218  0.79354449  0.23626015  1  -1.186871  0  -0.381978  -0.637265  0  2.217035  0
O  O204  1  0.03304499  0.29011604  0.22012271  1  -1.17826  0  -0.384461  -0.628846  0  2.203016  0
O  O205  1  0.46678884  0.07008842  0.77978379  1  -1.190742  0  -0.384505  -0.628963  0  2.204788  0
O  O206  1  0.96695525  0.70988421  0.77987737  1  -1.178259  0  -0.384465  -0.62885  0  2.203023  0
O  O207  1  0.53320996  0.92991061  0.22021582  1  -1.190699  0  -0.38449  -0.628906  0  2.204833  0
O  O208  1  0.05093878  0.43166530  0.53438545  1  -1.205464  0  -0.417211  -0.722791  0  2.470248  0
O  O209  1  0.44899282  0.89729498  0.46559160  1  -1.204148  0  -0.417945  -0.723166  0  2.46931  0
O  O210  1  0.94906136  0.56833526  0.46561336  1  -1.205487  0  -0.41718  -0.722722  0  2.470208  0
O  O211  1  0.55100677  0.10270429  0.53440904  1  -1.204168  0  -0.417887  -0.723078  0  2.469401  0
O  O212  1  0.06271910  0.28056086  0.40950365  1  -1.188937  0  -0.370728  -0.619809  0  2.194323  0
O  O213  1  0.43705469  0.87105664  0.59044989  1  -1.186514  0  -0.371124  -0.619331  0  2.193759  0
O  O214  1  0.93728114  0.71943939  0.59049642  1  -1.18893  0  -0.370731  -0.619815  0  2.194344  0
O  O215  1  0.56294559  0.12894254  0.40954988  1  -1.186485  0  -0.371155  -0.619377  0  2.193806  0
O  O216  1  0.63076336  0.94280332  0.71669001  1  -1.18157  0  -0.36024  -0.540146  0  2.365279  0
O  O217  1  0.86901678  0.22632765  0.28332847  1  -1.167892  0  -0.36026  -0.540629  0  2.366729  0
O  O218  1  0.36923693  0.05719710  0.28331100  1  -1.181556  0  -0.360231  -0.540126  0  2.365187  0
O  O219  1  0.13098277  0.77367333  0.71667309  1  -1.167914  0  -0.360267  -0.540693  0  2.366711  0
O  O220  1  0.70228755  0.12034913  0.69549985  1  -1.166988  0  -0.347975  -0.519603  0  2.354385  0
O  O221  1  0.79763817  0.42526007  0.30478129  1  -1.161821  0  -0.347822  -0.519751  0  2.355195  0
O  O222  1  0.29771278  0.87965021  0.30450086  1  -1.166999  0  -0.347988  -0.519611  0  2.354364  0
O  O223  1  0.20236277  0.57474072  0.69521854  1  -1.162102  0  -0.347792  -0.519729  0  2.35519  0
O  O224  1  0.15249431  0.27765175  0.84432850  1  -1.075133  0  -0.178704  -0.212055  0  2.572898  0
O  O225  1  0.34768088  0.43340687  0.15567127  1  -1.075151  0  -0.178918  -0.212314  0  2.572914  0
O  O226  1  0.84750527  0.72234626  0.15567089  1  -1.075138  0  -0.178684  -0.212038  0  2.572965  0
O  O227  1  0.65231704  0.56659347  0.84432731  1  -1.075171  0  -0.178863  -0.212261  0  2.572827  0
