# generated using pymatgen
data_Zn4H44C83N20O11F12
_symmetry_space_group_name_H-M   'P 1'
_cell_length_a   19.67589863
_cell_length_b   19.75485859
_cell_length_c   21.79444033
_cell_angle_alpha   109.39124727
_cell_angle_beta   106.45364516
_cell_angle_gamma   109.27310470
_symmetry_Int_Tables_number   1
_chemical_formula_structural   Zn4H44C83N20O11F12
_chemical_formula_sum   'Zn4 H44 C83 N20 O11 F12'
_cell_volume   6769.22691252
_cell_formula_units_Z   1
loop_
 _symmetry_equiv_pos_site_id
 _symmetry_equiv_pos_as_xyz
  1  'x, y, z'
loop_
 _atom_site_type_symbol
 _atom_site_label
 _atom_site_symmetry_multiplicity
 _atom_site_fract_x
 _atom_site_fract_y
 _atom_site_fract_z
 _atom_site_occupancy
 _atom_site_pbe_bader_charge
 _atom_site_pbe_bader_spin_density
 _atom_site_pbe_cm5_charge
 _atom_site_pbe_ddec_charge
 _atom_site_pbe_ddec_spin_density
 _atom_site_pbe_ddec_sum_bond_order
 _atom_site_pbe_magmom
Zn  Zn0  1  0.61046458  0.59750547  0.48019180  1  1.189762  0  0.744282  0.590333  0  2.530356  0
Zn  Zn1  1  0.40202587  0.39859737  0.50451602  1  1.250881  0  0.727965  0.680769  0  2.325456  0
Zn  Zn2  1  0.49617119  0.61164432  0.58835597  1  1.239668  0  0.731644  0.672433  0  2.40746  0
Zn  Zn3  1  0.52637853  0.40138428  0.37316445  1  1.225656  0  0.754123  0.679965  0  2.415914  0
H  H4  1  0.35871506  0.61445591  0.48240219  1  0.09952  0  0.12547  0.122113  0  0.986667  0
H  H5  1  0.12254261  0.57780531  0.74462229  1  0.12386  0  0.125092  0.146942  0  0.931761  0
H  H6  1  0.34661928  0.82571502  0.47293187  1  0.08725  0  0.103567  0.120165  0  0.961357  0
H  H7  1  0.56242978  0.64884548  0.75012110  1  0.135809  0  0.112628  0.103344  0  1.032102  0
H  H8  1  0.38912565  0.96252591  0.50353051  1  0.075142  0  0.114187  0.102183  0  0.953322  0
H  H9  1  0.47364868  0.96229938  0.37176934  1  0.072217  0  0.118284  0.118182  0  0.944215  0
H  H10  1  0.49155963  0.85889082  0.39044434  1  0.078735  0  0.108327  0.062748  0  0.945871  0
H  H11  1  0.34525222  0.91482997  0.28624888  1  0.055342  0  0.113288  0.106099  0  0.944952  0
H  H12  1  0.26637291  0.75558720  0.27397405  1  0.031146  0  0.100552  0.106201  0  0.979796  0
H  H13  1  0.26058831  0.79250715  0.39416096  1  0.049201  0  0.098469  0.10469  0  0.994016  0
H  H14  1  0.67778581  0.37107388  0.45493484  1  0.165965  0  0.13289  0.132716  0  0.9795  0
H  H15  1  0.24474129  0.30710484  0.36597919  1  0.1256  0  0.128047  0.124489  0  0.993173  0
H  H16  1  0.35936248  0.79844749  0.27213214  1  0.046623  0  0.099962  0.108353  0  0.967221  0
H  H17  1  0.52732311  0.71910893  0.16799782  1  0.100399  0  0.113352  0.118282  0  0.97826  0
H  H18  1  0.55977648  0.68873622  0.27135944  1  0.054126  0  0.102254  0.102957  0  0.998517  0
H  H19  1  0.42333346  0.46534624  0.01884524  1  0.138005  0  0.113624  0.119265  0  1.011735  0
H  H20  1  0.31500967  0.46176261  0.83535374  1  0.106944  0  0.115971  0.121797  0  0.996403  0
H  H21  1  0.41599261  0.38842868  0.63885803  1  0.172529  0  0.124863  0.122172  0  1.01248  0
H  H22  1  0.13463381  0.99495780  0.07907182  1  0.16042  0  0.121782  0.147964  0  0.988079  0
H  H23  1  0.97613225  0.82797384  0.87824020  1  0.087594  0  0.118312  0.127818  0  0.974605  0
H  H24  1  0.86726482  0.75344082  0.75227236  1  0.115612  0  0.113121  0.119095  0  0.98588  0
H  H25  1  0.14214638  0.24648622  0.24186757  1  0.09292  0  0.111588  0.115495  0  0.98227  0
H  H26  1  0.50869666  0.63696606  0.37082335  1  0.095086  0  0.113205  0.099482  0  1.047306  0
H  H27  1  0.88091693  0.99449149  0.93713067  1  0.154895  0  0.117827  0.142799  0  0.999019  0
H  H28  1  0.01576097  0.13888868  0.13110808  1  0.085027  0  0.114285  0.12135  0  0.985102  0
H  H29  1  0.73082213  0.60273397  0.62021805  1  0.093085  0  0.120224  0.110128  0  1.016233  0
H  H30  1  0.64750232  0.66152201  0.35827348  1  0.087396  0  0.125717  0.11565  0  0.97982  0
H  H31  1  0.78900712  0.71316702  0.55167160  1  0.040827  0  0.098334  0.0313  0  0.965055  0
H  H32  1  0.37332971  0.19994734  0.20083942  1  0.134336  0  0.127928  0.088771  0  0.958307  0
H  H33  1  0.27955549  0.16880731  0.46314124  1  0.085693  0  0.122924  0.075866  0  0.937659  0
H  H34  1  0.92128066  0.44719885  0.47832012  1  0.029893  0  0.098077  0.019118  0  0.96508  0
H  H35  1  0.11618925  0.48828289  0.80236267  1  0.061866  0  0.109049  0.041161  0  0.934746  0
H  H36  1  0.51029721  0.05367017  0.53077476  1  0.072777  0  0.103036  0.034139  0  0.961033  0
H  H37  1  0.45132084  0.41593526  0.22968427  1  0.132656  0  0.125054  0.113463  0  0.995095  0
H  H38  1  0.19140973  0.82139016  0.29248133  1  0.044043  0  0.101992  0.033279  0  0.957175  0
H  H39  1  0.28061413  0.99872644  0.46578413  1  0.084744  0  0.102419  0.035935  0  0.966461  0
H  H40  1  0.25664537  0.40215795  0.71998379  1  0.095405  0  0.102347  0.046605  0  0.987808  0
H  H41  1  0.50959130  0.40847439  0.15242868  1  0.035369  0  0.097743  0.030796  0  0.981627  0
H  H42  1  0.64190100  0.81662487  0.77303783  1  0.123702  0  0.124178  0.079869  0  0.955157  0
H  H43  1  0.05824308  0.54053833  0.55759374  1  0.055614  0  0.106552  0.062593  0  0.963855  0
H  H44  1  0.96070717  0.57306697  0.58113594  1  0.10061  0  0.111113  0.072563  0  0.950038  0
H  H45  1  0.88495187  0.36464982  0.57170608  1  0.110929  0  0.118769  0.120366  0  0.942157  0
H  H46  1  0.00816756  0.39393484  0.52254521  1  0.038719  0  0.102029  0.109416  0  0.974926  0
H  H47  1  0.00709240  0.36215969  0.58907532  1  0.092987  0  0.112574  0.136121  0  0.952682  0
C  C48  1  0.74674249  0.74424767  0.63309548  1  0.350983  0  0.078403  0.026987  0  3.986037  0
C  C49  1  0.47965057  0.62638308  0.40462706  1  0.408812  0  0.013167  -0.038491  0  3.929773  0
C  C50  1  0.50373711  0.47328194  0.27048544  1  0.416711  0  0.019856  -0.034472  0  3.977585  0
C  C51  1  0.39775630  0.24012999  0.47217806  1  0.411704  0  0.061307  0.016405  0  4.107284  0
C  C52  1  0.33518153  0.56300167  0.60517351  1  1.085867  0  0.210378  0.344096  0  4.124063  0
C  C53  1  0.54019248  0.54498712  0.26614754  1  -0.018817  0  -0.031433  -0.049375  0  4.082447  0
C  C54  1  0.26117655  0.49540413  0.58012540  1  0.212948  0  -0.049045  -0.202736  0  4.253448  0
C  C55  1  0.41524154  0.63975951  0.41024858  1  0.163029  0  -0.029927  0.041906  0  4.182876  0
C  C56  1  0.28497667  0.25010378  0.28488953  1  -0.0077  0  -0.006745  -0.006942  0  4.013388  0
C  C57  1  0.99835427  0.56865122  0.62618664  1  0.493833  0  0.028015  0.120185  0  3.802795  0
C  C58  1  0.92645864  0.41465650  0.56824100  1  -0.052909  0  -0.081153  -0.100129  0  3.804459  0
C  C59  1  0.43217437  0.18789087  0.45303513  1  0.127986  0  -0.028407  -0.091715  0  4.201117  0
C  C60  1  0.00479056  0.40972113  0.57459525  1  -0.035283  0  -0.1479  -0.227447  0  3.824852  0
C  C61  1  0.20098277  0.49111698  0.60305884  1  -0.185495  0  -0.05124  -0.033534  0  4.198869  0
C  C62  1  0.94604397  0.49558733  0.63304925  1  0.108631  0  -0.000374  -0.017421  0  3.90468  0
C  C63  1  0.53011997  0.58453632  0.71281484  1  0.390211  0  0.007741  -0.036512  0  3.974955  0
C  C64  1  0.06913861  0.55820138  0.61438972  1  0.552759  0  0.027547  0.096993  0  3.819899  0
C  C65  1  0.07986515  0.49171626  0.63243787  1  0.090397  0  0.000191  0.134592  0  3.902778  0
C  C66  1  0.08213482  0.51221867  0.70840091  1  -0.041425  0  -0.089054  -0.272007  0  3.823277  0
C  C67  1  0.99795608  0.49785818  0.70300546  1  1.085161  0  0.206389  0.466442  0  3.833094  0
C  C68  1  0.15063727  0.49012371  0.62529251  1  -0.072473  0  -0.062413  -0.143201  0  4.05144  0
C  C69  1  0.87073426  0.49568973  0.62762379  1  0.259869  0  -0.069174  -0.142519  0  4.064668  0
C  C70  1  0.48180124  0.52095917  0.72142648  1  0.072252  0  -0.033494  -0.028117  0  4.038181  0
C  C71  1  0.80607183  0.49292073  0.59992468  1  -0.536834  0  -0.035181  -0.053593  0  4.127289  0
C  C72  1  0.34141852  0.92189285  0.44736666  1  -0.049688  0  -0.082748  -0.115921  0  3.833258  0
C  C73  1  0.45845992  0.95684937  0.41531963  1  -0.028296  0  -0.085595  -0.195345  0  3.824977  0
C  C74  1  0.45568211  0.87822215  0.41574852  1  0.486568  0  0.036645  0.171444  0  3.756887  0
C  C75  1  0.67908945  0.42750993  0.48635900  1  0.443064  0  0.041162  -0.003387  0  3.899313  0
C  C76  1  0.38504086  0.68545769  0.38445088  1  -0.51261  0  -0.054577  -0.091749  0  4.181944  0
C  C77  1  0.37422015  0.95265754  0.39901705  1  0.10354  0  0.015921  0.140895  0  3.841684  0
C  C78  1  0.32544779  0.83386753  0.42503001  1  -0.035078  0  -0.156386  -0.218865  0  3.850441  0
C  C79  1  0.36779867  0.81043616  0.37765517  1  0.116788  0  -0.002707  0.130889  0  3.91696  0
C  C80  1  0.32656446  0.80841978  0.30465573  1  -0.029288  0  -0.151496  -0.22384  0  3.854953  0
C  C81  1  0.73363196  0.48793186  0.55829328  1  0.132837  0  -0.021298  0.039788  0  4.158517  0
C  C82  1  0.32063880  0.88770807  0.31669479  1  -0.009973  0  -0.083106  -0.113535  0  3.802409  0
C  C83  1  0.36861816  0.73495231  0.37130616  1  0.144579  0  -0.06708  -0.155412  0  4.071015  0
C  C84  1  0.38406142  0.03341790  0.41370864  1  -0.298548  0  -0.055247  -0.152119  0  4.092571  0
C  C85  1  0.40406984  0.10505728  0.43208231  1  0.025246  0  -0.045543  -0.055236  0  4.197153  0
C  C86  1  0.51590135  0.56044442  0.20450043  1  -0.024091  0  0.005369  0.067784  0  3.991383  0
C  C87  1  0.45429190  0.45138658  0.65576017  1  0.393641  0  0.023374  -0.009221  0  3.921401  0
C  C88  1  0.47515571  0.49720573  0.13168837  1  -0.012793  0  -0.019519  -0.026519  0  3.971961  0
C  C89  1  0.45180908  0.51414397  0.07422087  1  -0.074887  0  -0.066379  -0.140507  0  3.885651  0
C  C90  1  0.47205306  0.59404770  0.08663639  1  0.404893  0  0.0851  0.160638  0  4.059721  0
C  C91  1  0.51147940  0.65695168  0.15854106  1  -0.040769  0  -0.07091  -0.118  0  3.949269  0
C  C92  1  0.60312067  0.59891263  0.33656201  1  0.407713  0  0.016465  -0.04035  0  3.969569  0
C  C93  1  0.53104864  0.63972272  0.21596813  1  -0.034431  0  -0.091134  -0.130668  0  3.992588  0
C  C94  1  0.50437424  0.61253756  0.91265984  1  0.533982  0  0.107473  0.139378  0  4.026447  0
C  C95  1  0.51737916  0.59596119  0.85098641  1  0.516849  0  0.0903  0.119218  0  4.047065  0
C  C96  1  0.43175506  0.56165478  0.90915861  1  0.427026  0  0.079937  0.073692  0  4.099695  0
C  C97  1  0.46088552  0.53102726  0.78173559  1  0.038982  0  0.010823  0.010228  0  3.955739  0
C  C98  1  0.38449094  0.48402673  0.77721196  1  -0.027154  0  -0.021068  -0.02751  0  3.971405  0
C  C99  1  0.70635968  0.54624702  0.57146379  1  0.432811  0  0.021262  -0.030286  0  3.933132  0
C  C100  1  0.37253686  0.50029994  0.83965275  1  0.003749  0  -0.069127  -0.157788  0  3.959641  0
C  C101  1  0.81143432  0.83050185  0.77248304  1  0.035638  0  -0.009297  -0.021369  0  4.023645  0
C  C102  1  0.81802134  0.89892445  0.82686037  1  0.395207  0  0.10066  0.251963  0  4.044623  0
C  C103  1  0.26542063  0.43584870  0.52592772  1  1.083645  0  0.211355  0.357487  0  4.098619  0
C  C104  1  0.87730139  0.94111704  0.89702172  1  0.014027  0  -0.091557  -0.2665  0  3.952997  0
C  C105  1  0.93467515  0.91468024  0.91560024  1  0.332155  0  0.094862  0.19891  0  4.052846  0
C  C106  1  0.93077245  0.84706584  0.86297202  1  0.064355  0  -0.075654  -0.144772  0  3.94306  0
C  C107  1  0.87008527  0.80593907  0.79277159  1  -0.030119  0  -0.073043  -0.077806  0  3.960616  0
C  C108  1  0.13581107  0.04957077  0.11475505  1  0.029818  0  -0.085057  -0.253391  0  3.934323  0
C  C109  1  0.20432526  0.10927625  0.17693745  1  0.426049  0  0.103935  0.252465  0  4.035164  0
C  C110  1  0.06792386  0.06207023  0.09733534  1  0.342691  0  0.094038  0.196072  0  4.056978  0
C  C111  1  0.50531503  0.24236125  0.46082338  1  0.994849  0  0.202235  0.308204  0  4.104146  0
C  C112  1  0.21065367  0.18291291  0.22352390  1  -0.000753  0  -0.008029  -0.018296  0  4.034587  0
C  C113  1  0.13989575  0.19072749  0.20689326  1  0.033146  0  -0.081178  -0.096593  0  3.981649  0
C  C114  1  0.40227983  0.61449417  0.46104712  1  0.438406  0  0.02097  -0.032335  0  3.911796  0
C  C115  1  0.06957402  0.13142127  0.14534517  1  -0.024549  0  -0.079712  -0.149341  0  3.972201  0
C  C116  1  0.66159713  0.75467564  0.67977281  1  0.395322  0  0.075302  0.020318  0  4.036015  0
C  C117  1  0.74491871  0.78312455  0.69973895  1  0.037619  0  0.011072  -0.008339  0  3.938894  0
C  C118  1  0.81158775  0.74936795  0.61162727  1  0.984945  0  0.094588  0.243393  0  4.043399  0
C  C119  1  0.40668459  0.25508583  0.25357389  1  0.82595  0  0.104627  0.244812  0  3.906213  0
C  C120  1  0.32348844  0.22911432  0.47500672  1  0.83777  0  0.095662  0.239426  0  3.963296  0
C  C121  1  0.88261239  0.40943649  0.49584820  1  0.981732  0  0.110273  0.313626  0  3.908151  0
C  C122  1  0.11233761  0.46877406  0.74665597  1  0.98991  0  0.11615  0.338266  0  3.898136  0
C  C123  1  0.52611224  0.03135310  0.48540499  1  0.97551  0  0.107596  0.321192  0  3.929908  0
C  C124  1  0.23472900  0.87410683  0.29139039  1  0.954066  0  0.102856  0.306991  0  3.899417  0
C  C125  1  0.36591250  0.27926240  0.29492431  1  0.414672  0  0.068726  0.013147  0  4.050762  0
C  C126  1  0.27026808  0.93506658  0.44994387  1  0.93421  0  0.106226  0.305105  0  3.893545  0
C  C127  1  0.31157966  0.41671519  0.71085191  1  0.934856  0  0.099116  0.27285  0  3.961846  0
C  C128  1  0.46459566  0.41369372  0.11220048  1  0.943843  0  0.09141  0.268741  0  3.986622  0
C  C129  1  0.61310555  0.76786177  0.71678386  1  0.869992  0  0.112521  0.263834  0  3.892364  0
C  C130  1  0.29109197  0.30648725  0.34842639  1  0.434302  0  0.020769  -0.052351  0  3.908538  0
N  N131  1  0.66913315  0.69553943  0.57972922  1  -0.713534  0  -0.229397  -0.150069  0  3.560866  0
N  N132  1  0.41939959  0.55603039  0.96753334  1  -0.494182  0  -0.149861  -0.110286  0  3.319778  0
N  N133  1  0.00068650  0.95607570  0.98438523  1  -0.476401  0  -0.146753  -0.132228  0  3.254222  0
N  N134  1  0.44942907  0.31653187  0.48889736  1  -0.689421  0  -0.239105  -0.172171  0  3.570566  0
N  N135  1  0.99806919  0.01281273  0.03129929  1  -0.469971  0  -0.148072  -0.133619  0  3.282871  0
N  N136  1  0.52765782  0.55610886  0.64640227  1  -0.790693  0  -0.289783  -0.213216  0  3.527469  0
N  N137  1  0.62563365  0.45011528  0.45939214  1  -0.814437  0  -0.283164  -0.179343  0  3.666879  0
N  N138  1  0.48106095  0.47285907  0.61149908  1  -0.79835  0  -0.277675  -0.184504  0  3.525854  0
N  N139  1  0.64167277  0.52321658  0.51149640  1  -0.804662  0  -0.28516  -0.199816  0  3.58835  0
N  N140  1  0.51524190  0.31839697  0.48197085  1  -0.616183  0  -0.224757  -0.259701  0  3.256907  0
N  N141  1  0.61860610  0.70043052  0.60793628  1  -0.647565  0  -0.218386  -0.170036  0  3.426797  0
N  N142  1  0.33373130  0.46370675  0.51996866  1  -0.801828  0  -0.276771  -0.316145  0  3.427524  0
N  N143  1  0.60404566  0.56204260  0.37875274  1  -0.764457  0  -0.279446  -0.190395  0  3.523457  0
N  N144  1  0.45651300  0.59049381  0.48486306  1  -0.770154  0  -0.278153  -0.194648  0  3.604931  0
N  N145  1  0.41372790  0.34786354  0.36029122  1  -0.711212  0  -0.247693  -0.177442  0  3.558939  0
N  N146  1  0.36880724  0.36368782  0.39305287  1  -0.701461  0  -0.223031  -0.119219  0  3.479046  0
N  N147  1  0.50416939  0.59785116  0.45005763  1  -0.807571  0  -0.278877  -0.178803  0  3.613572  0
N  N148  1  0.54205520  0.48402280  0.33714043  1  -0.811331  0  -0.280081  -0.189196  0  3.605726  0
N  N149  1  0.37778360  0.54591593  0.57072016  1  -0.83273  0  -0.279005  -0.294479  0  3.532218  0
N  N150  1  0.46825301  0.61518595  0.03056670  1  -0.450968  0  -0.154262  -0.13627  0  3.250428  0
O  O151  1  0.88357280  0.78819214  0.65216744  1  -1.061037  0  -0.258112  -0.333226  0  2.101704  0
O  O152  1  0.41282830  0.35349581  0.05498508  1  -1.064543  0  -0.276831  -0.360613  0  2.075712  0
O  O153  1  0.53853597  0.72518612  0.68551311  1  -1.079365  0  -0.247459  -0.332197  0  2.268187  0
O  O154  1  0.48136839  0.29617797  0.27709355  1  -1.1009  0  -0.26289  -0.33438  0  2.244455  0
O  O155  1  0.30695933  0.28695382  0.49024367  1  -1.087976  0  -0.259741  -0.354578  0  2.295137  0
O  O156  1  0.81114791  0.36614360  0.45658731  1  -1.083566  0  -0.248661  -0.338798  0  2.117771  0
O  O157  1  0.13187450  0.41773011  0.72107812  1  -1.071331  0  -0.239932  -0.336065  0  2.153997  0
O  O158  1  0.59387587  0.06485298  0.49221515  1  -1.072624  0  -0.262293  -0.345149  0  2.084755  0
O  O159  1  0.21274169  0.91693281  0.27093700  1  -1.066226  0  -0.262141  -0.349346  0  2.087768  0
O  O160  1  0.20666825  0.88213399  0.43739597  1  -1.081662  0  -0.259181  -0.34716  0  2.100459  0
O  O161  1  0.30654860  0.37816254  0.65121585  1  -1.079845  0  -0.254092  -0.345438  0  2.192084  0
F  F162  1  0.20804602  0.35901462  0.48141526  1  -0.631766  0  -0.083941  -0.126034  0  1.372478  0
F  F163  1  0.26993728  0.09653820  0.19375601  1  -0.630394  0  -0.097312  -0.149422  0  1.342271  0
F  F164  1  0.76351633  0.92616190  0.80873517  1  -0.637303  0  -0.103627  -0.156765  0  1.331171  0
F  F165  1  0.56219159  0.22485253  0.44887326  1  -0.631418  0  -0.089398  -0.131387  0  1.3408  0
F  F166  1  0.36308403  0.63853691  0.65708283  1  -0.630859  0  -0.086522  -0.126219  0  1.346126  0
F  F167  1  0.00429148  0.55549600  0.76420040  1  -0.61737  0  -0.119142  -0.199976  0  1.285432  0
F  F168  1  0.95857819  0.42368086  0.70162763  1  -0.613132  0  -0.11763  -0.202751  0  1.255525  0
F  F169  1  0.02742059  0.64076168  0.68892442  1  -0.61014  0  -0.131343  -0.162871  0  1.285783  0
F  F170  1  0.13925068  0.63235365  0.65731000  1  -0.619172  0  -0.131753  -0.164213  0  1.288531  0
F  F171  1  0.49107077  0.89302442  0.48855723  1  -0.626374  0  -0.139684  -0.190811  0  1.234945  0
F  F172  1  0.59110911  0.64584176  0.86129201  1  -0.624298  0  -0.092798  -0.11673  0  1.380959  0
F  F173  1  0.56534673  0.67470929  0.97561180  1  -0.61232  0  -0.083895  -0.104424  0  1.40559  0
