# generated using pymatgen
data_CdH11C14N2O7
_symmetry_space_group_name_H-M   'P 1'
_cell_length_a   8.22726985
_cell_length_b   10.25098342
_cell_length_c   11.09957702
_cell_angle_alpha   65.86165404
_cell_angle_beta   92.76755064
_cell_angle_gamma   75.68681651
_symmetry_Int_Tables_number   1
_chemical_formula_structural   CdH11C14N2O7
_chemical_formula_sum   'Cd2 H22 C28 N4 O14'
_cell_volume   815.84381704
_cell_formula_units_Z   2
loop_
 _symmetry_equiv_pos_site_id
 _symmetry_equiv_pos_as_xyz
  1  'x, y, z'
loop_
 _atom_site_type_symbol
 _atom_site_label
 _atom_site_symmetry_multiplicity
 _atom_site_fract_x
 _atom_site_fract_y
 _atom_site_fract_z
 _atom_site_occupancy
 _atom_site_hle17_bader_spin_density
 _atom_site_hle17_ddec_charge
 _atom_site_hle17_ddec_spin_density
 _atom_site_hle17_ddec_sum_bond_order
 _atom_site_hle17_magmom
 _atom_site_hse06_10hf_bader_spin_density
 _atom_site_hse06_10hf_ddec_charge
 _atom_site_hse06_10hf_ddec_spin_density
 _atom_site_hse06_10hf_ddec_sum_bond_order
 _atom_site_hse06_10hf_magmom
 _atom_site_hse06_bader_spin_density
 _atom_site_hse06_ddec_charge
 _atom_site_hse06_ddec_spin_density
 _atom_site_hse06_ddec_sum_bond_order
 _atom_site_hse06_magmom
 _atom_site_pbe_bader_spin_density
 _atom_site_pbe_cm5_charge
 _atom_site_pbe_ddec_charge
 _atom_site_pbe_ddec_spin_density
 _atom_site_pbe_ddec_sum_bond_order
 _atom_site_pbe_magmom
Cd  Cd0  1  0.22129829  0.89174330  0.49384758  1  0  1.183983  0  1.575291  0  0  1.000026  0  2.004292  0  0  1.05896  0  1.950545  0  0  0.781416  0.954253  0  2.044255  0
Cd  Cd1  1  0.77871099  0.10825194  0.50616748  1  0  1.184034  0  1.575384  0  0  1.000069  0  2.004424  0  0  1.059  0  1.950674  0  0  0.781403  0.954301  0  2.04439  0
H  H2  1  0.01301129  0.51105892  0.79458011  1  0  0.134644  0  0.941387  0  0  0.140673  0  1.005813  0  0  0.144721  0  1.002173  0  0  0.121522  0.137538  0  1.008874  0
H  H3  1  0.98700627  0.48891620  0.20544115  1  0  0.134586  0  0.941337  0  0  0.140677  0  1.005714  0  0  0.144726  0  1.002074  0  0  0.121526  0.137537  0  1.008773  0
H  H4  1  0.00008484  0.08403000  0.81436301  1  0  0.133164  0  0.950224  0  0  0.133904  0  1.023464  0  0  0.13842  0  1.0193  0  0  0.116176  0.130704  0  1.026259  0
H  H5  1  0.99991952  0.91596978  0.18563057  1  0  0.133185  0  0.949965  0  0  0.133918  0  1.023231  0  0  0.138443  0  1.019045  0  0  0.116198  0.130714  0  1.026036  0
H  H6  1  0.25444131  0.35485249  0.52520434  1  0  0.102722  0  0.962668  0  0  0.110356  0  1.030772  0  0  0.114183  0  1.027298  0  0  0.111576  0.1075  0  1.033593  0
H  H7  1  0.74554320  0.64515419  0.47477318  1  0  0.1027  0  0.962834  0  0  0.110328  0  1.030942  0  0  0.114155  0  1.027465  0  0  0.111547  0.10747  0  1.033777  0
H  H8  1  0.34597801  0.22385993  0.00863780  1  0  0.110747  0  0.955516  0  0  0.124468  0  1.00933  0  0  0.127169  0  1.009296  0  0  0.110405  0.122495  0  1.009621  0
H  H9  1  0.65404758  0.77612407  0.99137497  1  0  0.110729  0  0.955403  0  0  0.124491  0  1.009193  0  0  0.127193  0  1.009155  0  0  0.110328  0.122504  0  1.009505  0
H  H10  1  0.53809237  0.74443320  0.14868577  1  0  0.105831  0  0.950455  0  0  0.119254  0  1.004209  0  0  0.121874  0  1.00403  0  0  0.11118  0.117358  0  1.004523  0
H  H11  1  0.46188024  0.25555003  0.85129090  1  0  0.105864  0  0.950438  0  0  0.119309  0  1.004154  0  0  0.121926  0  1.003977  0  0  0.111184  0.117399  0  1.004477  0
H  H12  1  0.40120392  0.71765489  0.34612647  1  0  0.088593  0  0.975593  0  0  0.095634  0  1.042792  0  0  0.09872  0  1.03957  0  0  0.115586  0.093374  0  1.044986  0
H  H13  1  0.59880600  0.28232069  0.65387023  1  0  0.088434  0  0.975494  0  0  0.095503  0  1.042671  0  0  0.098586  0  1.039458  0  0  0.115552  0.093249  0  1.04487  0
H  H14  1  0.05393332  0.19866551  0.23683141  1  0  0.146459  0  0.938812  0  0  0.164405  0  1.003107  0  0  0.166979  0  1.001112  0  0  0.100335  0.162611  0  1.004489  0
H  H15  1  0.94607241  0.80133500  0.76316824  1  0  0.146429  0  0.938787  0  0  0.164396  0  1.00306  0  0  0.166971  0  1.001065  0  0  0.100329  0.162603  0  1.004445  0
H  H16  1  0.15760802  0.32027694  0.12471777  1  0  0.127361  0  0.946245  0  0  0.147766  0  1.00576  0  0  0.149359  0  1.005224  0  0  0.09545  0.146423  0  1.006553  0
H  H17  1  0.84240795  0.67971247  0.87528041  1  0  0.127491  0  0.946121  0  0  0.147854  0  1.005676  0  0  0.149444  0  1.005143  0  0  0.095492  0.146511  0  1.006469  0
H  H18  1  0.24204268  0.22234038  0.29802266  1  0  0.137748  0  0.960135  0  0  0.159414  0  1.02073  0  0  0.160994  0  1.020372  0  0  0.098732  0.158368  0  1.020981  0
H  H19  1  0.75796242  0.77765361  0.70197747  1  0  0.13783  0  0.960106  0  0  0.159486  0  1.020708  0  0  0.161067  0  1.020349  0  0  0.098743  0.158439  0  1.020962  0
H  H20  1  0.49095121  0.65934501  0.56938466  1  0  0.420463  0  0.864814  0  0  0.392405  0  0.932224  0  0  0.402665  0  0.91716  0  0  0.293271  0.3849  0  0.943217  0
H  H21  1  0.50904509  0.34067036  0.43060611  1  0  0.420452  0  0.864893  0  0  0.392389  0  0.932249  0  0  0.402649  0  0.917187  0  0  0.293253  0.384889  0  0.943234  0
H  H22  1  0.57929616  0.79241299  0.53379321  1  0  0.423043  0  0.881535  0  0  0.389821  0  0.949984  0  0  0.401042  0  0.933686  0  0  0.28605  0.38171  0  0.961744  0
H  H23  1  0.42070700  0.20759991  0.46619937  1  0  0.423071  0  0.881525  0  0  0.389817  0  0.950001  0  0  0.401031  0  0.933714  0  0  0.286038  0.381703  0  0.961763  0
C  C24  1  0.14247935  0.44543514  0.65425520  1  0  -0.049827  0  3.743961  0  0  -0.022673  0  3.981399  0  0  -0.032966  0  4.004553  0  0  -0.010866  -0.016522  0  3.966814  0
C  C25  1  0.85750973  0.55458123  0.34574150  1  0  -0.050112  0  3.743829  0  0  -0.023008  0  3.981341  0  0  -0.033299  0  4.004497  0  0  -0.010919  -0.016866  0  3.966758  0
C  C26  1  0.04720675  0.42646316  0.75759711  1  0  -0.080968  0  3.656854  0  0  -0.12041  0  3.909954  0  0  -0.115458  0  3.925005  0  0  -0.06291  -0.122864  0  3.89994  0
C  C27  1  0.95279825  0.57352828  0.24241023  1  0  -0.080682  0  3.656644  0  0  -0.120177  0  3.909722  0  0  -0.115223  0  3.924764  0  0  -0.062815  -0.122623  0  3.899701  0
C  C28  1  0.99854654  0.29587835  0.81328210  1  0  0.056326  0  3.702753  0  0  0.053433  0  3.962168  0  0  0.048134  0  3.985392  0  0  0.074973  0.056438  0  3.946162  0
C  C29  1  0.00143615  0.70412444  0.18670852  1  0  0.056049  0  3.702879  0  0  0.053204  0  3.962236  0  0  0.047907  0  3.98546  0  0  0.074883  0.056209  0  3.946228  0
C  C30  1  0.03795117  0.18543553  0.76766383  1  0  -0.071067  0  3.642113  0  0  -0.113434  0  3.90338  0  0  -0.108578  0  3.919187  0  0  -0.061955  -0.115256  0  3.891962  0
C  C31  1  0.96202322  0.81456907  0.23231798  1  0  -0.071093  0  3.642347  0  0  -0.11342  0  3.90358  0  0  -0.10857  0  3.919412  0  0  -0.061992  -0.115244  0  3.892149  0
C  C32  1  0.13039980  0.20732679  0.66200652  1  0  -0.057522  0  3.743141  0  0  -0.030418  0  3.982104  0  0  -0.041135  0  4.005147  0  0  -0.009834  -0.023858  0  3.967539  0
C  C33  1  0.86959844  0.79266969  0.33797104  1  0  -0.057374  0  3.743131  0  0  -0.030384  0  3.982187  0  0  -0.041111  0  4.005242  0  0  -0.009831  -0.023804  0  3.967587  0
C  C34  1  0.18294140  0.33606820  0.60742442  1  0  -0.042215  0  3.684892  0  0  -0.086609  0  3.939887  0  0  -0.082577  0  3.958705  0  0  -0.063319  -0.089761  0  3.928745  0
C  C35  1  0.81703672  0.66393972  0.39257430  1  0  -0.042033  0  3.684866  0  0  -0.086414  0  3.939903  0  0  -0.082379  0  3.95872  0  0  -0.063263  -0.089573  0  3.928772  0
C  C36  1  0.20493281  0.58068249  0.59251760  1  0  0.629109  0  3.957128  0  0  0.581286  0  4.24646  0  0  0.614932  0  4.242795  0  0  0.196042  0.558413  0  4.247738  0
C  C37  1  0.79504293  0.41932107  0.40750340  1  0  0.629074  0  3.956797  0  0  0.581336  0  4.246035  0  0  0.614982  0  4.242373  0  0  0.196084  0.558469  0  4.247304  0
C  C38  1  0.17279281  0.09593235  0.60537677  1  0  0.663548  0  3.881222  0  0  0.609094  0  4.168439  0  0  0.644914  0  4.162077  0  0  0.209609  0.584266  0  4.172465  0
C  C39  1  0.82724536  0.90406414  0.39461813  1  0  0.663532  0  3.880567  0  0  0.609267  0  4.167597  0  0  0.645097  0  4.161221  0  0  0.209776  0.584434  0  4.171627  0
C  C40  1  0.28342278  0.08617877  0.19281108  1  0  0.34564  0  3.699796  0  0  0.350126  0  3.944421  0  0  0.360545  0  3.964985  0  0  0.130052  0.343081  0  3.930126  0
C  C41  1  0.71657074  0.91380112  0.80719575  1  0  0.345722  0  3.699839  0  0  0.350238  0  3.944412  0  0  0.360661  0  3.964968  0  0  0.129994  0.343192  0  3.930115  0
C  C42  1  0.36188273  0.10887850  0.07993462  1  0  -0.20125  0  3.636702  0  0  -0.224995  0  3.872689  0  0  -0.234509  0  3.894569  0  0  -0.078592  -0.218976  0  3.85838  0
C  C43  1  0.63809757  0.89111296  0.92006628  1  0  -0.201413  0  3.637122  0  0  -0.225225  0  3.873055  0  0  -0.234738  0  3.894935  0  0  -0.078578  -0.219194  0  3.858759  0
C  C44  1  0.45785348  0.98844077  0.05942412  1  0  0.113709  0  3.738684  0  0  0.125254  0  3.971352  0  0  0.130342  0  3.991386  0  0  0.017486  0.122018  0  3.957687  0
C  C45  1  0.54213784  0.01154862  0.94056853  1  0  0.113775  0  3.738989  0  0  0.125402  0  3.971596  0  0  0.130488  0  3.99163  0  0  0.017484  0.122165  0  3.957923  0
C  C46  1  0.46922972  0.84484414  0.15681671  1  0  -0.141906  0  3.70821  0  0  -0.166131  0  3.96372  0  0  -0.173701  0  3.984702  0  0  -0.081579  -0.161  0  3.949469  0
C  C47  1  0.53076894  0.15514765  0.84318777  1  0  -0.141877  0  3.707922  0  0  -0.166125  0  3.96338  0  0  -0.173699  0  3.984375  0  0  -0.08151  -0.16098  0  3.94912  0
C  C48  1  0.39211009  0.82843654  0.26817343  1  0  0.126191  0  3.732146  0  0  0.092106  0  3.992507  0  0  0.099762  0  4.011092  0  0  0.04081  0.087142  0  3.97945  0
C  C49  1  0.60790708  0.17154586  0.73183354  1  0  0.126325  0  3.732  0  0  0.092213  0  3.992434  0  0  0.099867  0  4.011014  0  0  0.040772  0.087235  0  3.979384  0
C  C50  1  0.17801908  0.21415694  0.21346206  1  0  -0.404023  0  3.689392  0  0  -0.489142  0  3.926843  0  0  -0.493064  0  3.934186  0  0  -0.247397  -0.486034  0  3.921398  0
C  C51  1  0.82198339  0.78583377  0.78654011  1  0  -0.404218  0  3.689436  0  0  -0.489297  0  3.926853  0  0  -0.493216  0  3.934187  0  0  -0.247419  -0.486183  0  3.92141  0
N  N52  1  0.30221878  0.94567033  0.28716486  1  0  -0.404764  0  3.219417  0  0  -0.324499  0  3.479982  0  0  -0.348042  0  3.498616  0  0  -0.328796  -0.307722  0  3.466102  0
N  N53  1  0.69778317  0.05432250  0.71283837  1  0  -0.404775  0  3.219451  0  0  -0.324521  0  3.480027  0  0  -0.348063  0  3.498663  0  0  -0.328729  -0.307744  0  3.466154  0
N  N54  1  0.90089185  0.27519566  0.92427635  1  0  0.496267  0  3.905463  0  0  0.527279  0  4.199839  0  0  0.547849  0  4.209103  0  0  0.057434  0.513541  0  4.193404  0
N  N55  1  0.09909764  0.72482652  0.07571290  1  0  0.496315  0  3.905053  0  0  0.527313  0  4.199428  0  0  0.547881  0  4.208697  0  0  0.057588  0.513576  0  4.192988  0
O  O56  1  0.12917948  0.69440033  0.61125882  1  0  -0.636904  0  2.002573  0  0  -0.567971  0  2.243183  0  0  -0.599613  0  2.235669  0  0  -0.328206  -0.544274  0  2.248574  0
O  O57  1  0.87081398  0.30558482  0.38877143  1  0  -0.63703  0  2.002523  0  0  -0.568077  0  2.243062  0  0  -0.599725  0  2.235549  0  0  -0.328206  -0.544373  0  2.248445  0
O  O58  1  0.32576781  0.57261517  0.52743355  1  0  -0.630543  0  1.945294  0  0  -0.579681  0  2.166495  0  0  -0.60439  0  2.157869  0  0  -0.323469  -0.561414  0  2.171232  0
O  O59  1  0.67420712  0.42740472  0.47256636  1  0  -0.630288  0  1.945559  0  0  -0.57946  0  2.166691  0  0  -0.604163  0  2.158067  0  0  -0.32346  -0.561204  0  2.17143  0
O  O60  1  0.29730973  0.09086289  0.54226388  1  0  -0.625288  0  1.975927  0  0  -0.557581  0  2.202594  0  0  -0.58649  0  2.193165  0  0  -0.303903  -0.536331  0  2.208106  0
O  O61  1  0.70271881  0.90913812  0.45775376  1  0  -0.625465  0  1.975147  0  0  -0.557818  0  2.201804  0  0  -0.586743  0  2.192364  0  0  -0.30404  -0.536568  0  2.207329  0
O  O62  1  0.08087173  0.00738692  0.62109194  1  0  -0.662027  0  2.031109  0  0  -0.584986  0  2.283187  0  0  -0.617159  0  2.271488  0  0  -0.322993  -0.561204  0  2.292378  0
O  O63  1  0.91915345  0.99260699  0.37891825  1  0  -0.662007  0  2.031518  0  0  -0.58506  0  2.283566  0  0  -0.617232  0  2.271857  0  0  -0.323023  -0.561275  0  2.292747  0
O  O64  1  0.85852546  0.37910616  0.95742777  1  0  -0.355869  0  1.71455  0  0  -0.342486  0  1.906595  0  0  -0.353948  0  1.902585  0  0  -0.131626  -0.334826  0  1.909792  0
O  O65  1  0.14149444  0.62093971  0.04254699  1  0  -0.355732  0  1.714558  0  0  -0.342375  0  1.90661  0  0  -0.353834  0  1.902608  0  0  -0.131606  -0.334714  0  1.909796  0
O  O66  1  0.86602209  0.15523950  0.97807162  1  0  -0.357525  0  1.760933  0  0  -0.343164  0  1.970418  0  0  -0.355242  0  1.96771  0  0  -0.126911  -0.335105  0  1.972475  0
O  O67  1  0.13396336  0.84479702  0.02193605  1  0  -0.357604  0  1.760491  0  0  -0.343213  0  1.969951  0  0  -0.355293  0  1.967246  0  0  -0.127073  -0.335159  0  1.972014  0
O  O68  1  0.50404917  0.74091832  0.59110037  1  0  -0.82386  0  1.837491  0  0  -0.762589  0  2.012896  0  0  -0.784752  0  1.979704  0  0  -0.585756  -0.747043  0  2.036939  0
O  O69  1  0.49596302  0.25909048  0.40890272  1  0  -0.823883  0  1.837596  0  0  -0.762567  0  2.013068  0  0  -0.784728  0  1.979879  0  0  -0.5857  -0.747037  0  2.037132  0
