# generated using pymatgen
data_ZnH12(CO)7
_symmetry_space_group_name_H-M   'P 1'
_cell_length_a   5.01854229
_cell_length_b   9.00060159
_cell_length_c   10.78536500
_cell_angle_alpha   100.33658712
_cell_angle_beta   89.95587088
_cell_angle_gamma   90.04605529
_symmetry_Int_Tables_number   1
_chemical_formula_structural   ZnH12(CO)7
_chemical_formula_sum   'Zn2 H24 C14 O14'
_cell_volume   479.26709345
_cell_formula_units_Z   2
loop_
 _symmetry_equiv_pos_site_id
 _symmetry_equiv_pos_as_xyz
  1  'x, y, z'
loop_
 _atom_site_type_symbol
 _atom_site_label
 _atom_site_symmetry_multiplicity
 _atom_site_fract_x
 _atom_site_fract_y
 _atom_site_fract_z
 _atom_site_occupancy
 _atom_site_hle17_bader_spin_density
 _atom_site_hle17_ddec_charge
 _atom_site_hle17_ddec_spin_density
 _atom_site_hle17_ddec_sum_bond_order
 _atom_site_hle17_magmom
 _atom_site_hse06_10hf_bader_spin_density
 _atom_site_hse06_10hf_ddec_charge
 _atom_site_hse06_10hf_ddec_spin_density
 _atom_site_hse06_10hf_ddec_sum_bond_order
 _atom_site_hse06_10hf_magmom
 _atom_site_hse06_bader_spin_density
 _atom_site_hse06_ddec_charge
 _atom_site_hse06_ddec_spin_density
 _atom_site_hse06_ddec_sum_bond_order
 _atom_site_hse06_magmom
 _atom_site_pbe_bader_spin_density
 _atom_site_pbe_cm5_charge
 _atom_site_pbe_ddec_charge
 _atom_site_pbe_ddec_spin_density
 _atom_site_pbe_ddec_sum_bond_order
 _atom_site_pbe_magmom
Zn  Zn0  1  0.21279107  0.99959099  0.74974420  1  0  1.16571  0  1.630614  0  0  0.989532  0  2.080899  0  0  1.042637  0  2.018016  0  0  0.677702  0.952013  0  2.12434  0
Zn  Zn1  1  0.78729353  0.00027605  0.25007575  1  0  1.165549  0  1.630633  0  0  0.989123  0  2.081018  0  0  1.042277  0  2.018076  0  0  0.67746  0.951578  0  2.124492  0
H  H2  1  0.40344026  0.36332052  0.51129722  1  0  0.105701  0  0.938439  0  0  0.120416  0  0.999873  0  0  0.122157  0  0.999559  0  0  0.104277  0.119082  0  1.00027  0
H  H3  1  0.40382489  0.63689860  0.98925238  1  0  0.105465  0  0.939065  0  0  0.120557  0  1.000115  0  0  0.122348  0  0.999738  0  0  0.104323  0.119202  0  1.000543  0
H  H4  1  0.59617598  0.63675611  0.48881247  1  0  0.105384  0  0.938855  0  0  0.120414  0  0.999978  0  0  0.122197  0  0.99961  0  0  0.104279  0.119068  0  1.000405  0
H  H5  1  0.59649871  0.36318053  0.01089650  1  0  0.105422  0  0.938578  0  0  0.120494  0  0.999776  0  0  0.122283  0  0.99939  0  0  0.104263  0.119147  0  1.000201  0
H  H6  1  0.68110781  0.24525321  0.47246628  1  0  0.126247  0  0.938662  0  0  0.143354  0  0.996266  0  0  0.145731  0  0.995057  0  0  0.108969  0.141691  0  0.997118  0
H  H7  1  0.68098490  0.75560016  0.02771455  1  0  0.125567  0  0.938592  0  0  0.142827  0  0.996287  0  0  0.145145  0  0.995153  0  0  0.10854  0.141181  0  0.997146  0
H  H8  1  0.31872387  0.75501169  0.52754324  1  0  0.126187  0  0.938499  0  0  0.143167  0  0.996428  0  0  0.145545  0  0.995219  0  0  0.108825  0.141501  0  0.997302  0
H  H9  1  0.31920143  0.24461738  0.97228791  1  0  0.125788  0  0.938474  0  0  0.143009  0  0.996214  0  0  0.145332  0  0.995082  0  0  0.108695  0.14137  0  0.997063  0
H  H10  1  0.83122784  0.49244394  0.59285497  1  0  0.109281  0  0.916197  0  0  0.128705  0  0.972195  0  0  0.130088  0  0.971411  0  0  0.109182  0.127637  0  0.973004  0
H  H11  1  0.83275510  0.50875021  0.90762384  1  0  0.109913  0  0.915354  0  0  0.129081  0  0.971776  0  0  0.13049  0  0.970951  0  0  0.109399  0.127997  0  0.97258  0
H  H12  1  0.16793832  0.50795204  0.40724079  1  0  0.109754  0  0.915752  0  0  0.129032  0  0.971825  0  0  0.13045  0  0.970984  0  0  0.109085  0.127912  0  0.972663  0
H  H13  1  0.16795330  0.49156248  0.09245843  1  0  0.109653  0  0.916062  0  0  0.128776  0  0.972503  0  0  0.130206  0  0.971705  0  0  0.10917  0.127671  0  0.973305  0
H  H14  1  0.90099509  0.35282178  0.67968981  1  0  0.116827  0  0.937964  0  0  0.130311  0  1.002168  0  0  0.132155  0  1.001591  0  0  0.106724  0.128969  0  1.002733  0
H  H15  1  0.90037477  0.64801977  0.82003567  1  0  0.116046  0  0.937931  0  0  0.129823  0  1.001932  0  0  0.131638  0  1.001395  0  0  0.106439  0.128497  0  1.002409  0
H  H16  1  0.09920737  0.64746302  0.32014921  1  0  0.116965  0  0.937519  0  0  0.130419  0  1.001744  0  0  0.132264  0  1.001149  0  0  0.106608  0.12907  0  1.002246  0
H  H17  1  0.09935540  0.35219154  0.17979813  1  0  0.116476  0  0.937496  0  0  0.129873  0  1.001981  0  0  0.131724  0  1.001423  0  0  0.1064  0.128529  0  1.002454  0
H  H18  1  0.89114729  0.86501004  0.57392832  1  0  0.432267  0  0.873509  0  0  0.398448  0  0.941345  0  0  0.410319  0  0.924514  0  0  0.289183  0.390096  0  0.95314  0
H  H19  1  0.89151711  0.13457233  0.92566063  1  0  0.43146  0  0.874607  0  0  0.397644  0  0.942484  0  0  0.409523  0  0.925642  0  0  0.28878  0.389284  0  0.954296  0
H  H20  1  0.10858270  0.13504793  0.42596905  1  0  0.431785  0  0.874139  0  0  0.398307  0  0.941468  0  0  0.41018  0  0.92464  0  0  0.289272  0.389957  0  0.953259  0
H  H21  1  0.10884851  0.86544621  0.07422153  1  0  0.431726  0  0.874282  0  0  0.397837  0  0.942257  0  0  0.409714  0  0.925423  0  0  0.28897  0.389478  0  0.954061  0
H  H22  1  0.79552099  0.83734721  0.71004328  1  0  0.428696  0  0.877266  0  0  0.396259  0  0.943296  0  0  0.407519  0  0.927213  0  0  0.292175  0.388221  0  0.954821  0
H  H23  1  0.79639065  0.16197261  0.78946433  1  0  0.428853  0  0.87708  0  0  0.396274  0  0.943355  0  0  0.407561  0  0.927222  0  0  0.292292  0.388231  0  0.954887  0
H  H24  1  0.20427270  0.16258426  0.28982425  1  0  0.428847  0  0.877056  0  0  0.396278  0  0.943329  0  0  0.40756  0  0.927207  0  0  0.292185  0.388231  0  0.954867  0
H  H25  1  0.20393106  0.83793410  0.21039668  1  0  0.428328  0  0.87778  0  0  0.395781  0  0.943934  0  0  0.407036  0  0.92786  0  0  0.29191  0.387749  0  0.95545  0
C  C26  1  0.42253558  0.18277850  0.61099513  1  0  0.718766  0  3.796235  0  0  0.664095  0  4.099199  0  0  0.698457  0  4.091938  0  0  0.219894  0.640747  0  4.103299  0
C  C27  1  0.42223667  0.81706217  0.88900258  1  0  0.720868  0  3.79293  0  0  0.665379  0  4.097118  0  0  0.699686  0  4.089936  0  0  0.220527  0.642086  0  4.10115  0
C  C28  1  0.57751711  0.81719162  0.38894854  1  0  0.719844  0  3.794906  0  0  0.665019  0  4.097988  0  0  0.699366  0  4.090744  0  0  0.220177  0.641705  0  4.102067  0
C  C29  1  0.57768047  0.18287526  0.11096780  1  0  0.719067  0  3.793719  0  0  0.664208  0  4.097169  0  0  0.698564  0  4.089939  0  0  0.220012  0.640881  0  4.101228  0
C  C30  1  0.56023545  0.30204360  0.55211136  1  0  -0.252504  0  3.68822  0  0  -0.294578  0  3.942812  0  0  -0.299762  0  3.95009  0  0  -0.16415  -0.291058  0  3.937733  0
C  C31  1  0.56037205  0.69834477  0.94820114  1  0  -0.251473  0  3.686845  0  0  -0.293699  0  3.941912  0  0  -0.298872  0  3.949231  0  0  -0.1635  -0.290227  0  3.936761  0
C  C32  1  0.43953033  0.69807349  0.44792733  1  0  -0.252113  0  3.687983  0  0  -0.294461  0  3.942661  0  0  -0.299675  0  3.949953  0  0  -0.16416  -0.290992  0  3.937584  0
C  C33  1  0.43980018  0.30174652  0.05186797  1  0  -0.25108  0  3.686712  0  0  -0.293535  0  3.941703  0  0  -0.298677  0  3.949025  0  0  -0.16346  -0.290103  0  3.936584  0
C  C34  1  0.73366274  0.40993370  0.64246303  1  0  -0.222979  0  3.687408  0  0  -0.270866  0  3.946783  0  0  -0.273627  0  3.955676  0  0  -0.165185  -0.268873  0  3.940758  0
C  C35  1  0.73397591  0.59055076  0.85787025  1  0  -0.222874  0  3.687735  0  0  -0.271184  0  3.948158  0  0  -0.273938  0  3.95704  0  0  -0.165351  -0.269082  0  3.941982  0
C  C36  1  0.26607716  0.59022180  0.35758504  1  0  -0.223849  0  3.687693  0  0  -0.271765  0  3.946959  0  0  -0.274506  0  3.955808  0  0  -0.165134  -0.269628  0  3.94081  0
C  C37  1  0.26618240  0.40955741  0.14218374  1  0  -0.222917  0  3.687902  0  0  -0.2711  0  3.948116  0  0  -0.273977  0  3.957173  0  0  -0.165099  -0.2689  0  3.941823  0
C  C38  1  0.57733585  0.49965606  0.75054807  1  0  0.499915  0  3.596482  0  0  0.482557  0  3.875484  0  0  0.502095  0  3.880037  0  0  0.16798  0.468977  0  3.87278  0
C  C39  1  0.42264061  0.50006566  0.24977614  1  0  0.500298  0  3.597365  0  0  0.483173  0  3.875717  0  0  0.502721  0  3.880318  0  0  0.167805  0.469547  0  3.872975  0
O  O40  1  0.33214167  0.49853673  0.75124044  1  0  -0.471465  0  1.918731  0  0  -0.421507  0  2.123051  0  0  -0.441468  0  2.122679  0  0  -0.256617  -0.407599  0  2.123472  0
O  O41  1  0.66778393  0.50039742  0.24960715  1  0  -0.471954  0  1.91997  0  0  -0.421778  0  2.12389  0  0  -0.441793  0  2.123559  0  0  -0.256394  -0.407881  0  2.124352  0
O  O42  1  0.22179211  0.11167787  0.55871718  1  0  -0.637215  0  1.971976  0  0  -0.567518  0  2.196715  0  0  -0.59504  0  2.186333  0  0  -0.306609  -0.548565  0  2.203241  0
O  O43  1  0.22210289  0.88852338  0.94141339  1  0  -0.637812  0  1.972468  0  0  -0.567473  0  2.19744  0  0  -0.594985  0  2.187077  0  0  -0.306441  -0.548519  0  2.203927  0
O  O44  1  0.77809325  0.88838486  0.44125226  1  0  -0.637809  0  1.973065  0  0  -0.567774  0  2.197739  0  0  -0.595349  0  2.18745  0  0  -0.306702  -0.548806  0  2.204218  0
O  O45  1  0.77811725  0.11155972  0.05855344  1  0  -0.637479  0  1.970823  0  0  -0.567487  0  2.195601  0  0  -0.595048  0  2.185242  0  0  -0.306551  -0.54853  0  2.202142  0
O  O46  1  0.50746398  0.15139331  0.71596359  1  0  -0.666532  0  2.062548  0  0  -0.583101  0  2.310509  0  0  -0.614602  0  2.298684  0  0  -0.310409  -0.561105  0  2.318239  0
O  O47  1  0.50621567  0.84741467  0.78342060  1  0  -0.667353  0  2.061703  0  0  -0.58389  0  2.310529  0  0  -0.61527  0  2.298477  0  0  -0.310468  -0.561938  0  2.318341  0
O  O48  1  0.49294132  0.84827047  0.28381421  1  0  -0.666824  0  2.061572  0  0  -0.583245  0  2.309552  0  0  -0.614645  0  2.297538  0  0  -0.310055  -0.561269  0  2.317296  0
O  O49  1  0.49341446  0.15218460  0.21635058  1  0  -0.666369  0  2.062507  0  0  -0.58302  0  2.31104  0  0  -0.614411  0  2.298963  0  0  -0.310024  -0.5611  0  2.318944  0
O  O50  1  0.95887736  0.84370668  0.65777001  1  0  -0.856345  0  1.920053  0  0  -0.791499  0  2.147254  0  0  -0.815763  0  2.108919  0  0  -0.579141  -0.774246  0  2.173962  0
O  O51  1  0.95948968  0.15560485  0.84172607  1  0  -0.854915  0  1.920879  0  0  -0.789841  0  2.147769  0  0  -0.814124  0  2.109444  0  0  -0.578539  -0.772575  0  2.174474  0
O  O52  1  0.04090639  0.15628128  0.34211607  1  0  -0.855786  0  1.920339  0  0  -0.790932  0  2.147023  0  0  -0.815217  0  2.108646  0  0  -0.579022  -0.773663  0  2.173735  0
O  O53  1  0.04083006  0.84434255  0.15815300  1  0  -0.855009  0  1.921295  0  0  -0.78992  0  2.148568  0  0  -0.814219  0  2.110269  0  0  -0.578489  -0.772648  0  2.175252  0
