# generated using pymatgen
data_Ag2H12C16S(N2O3)2
_symmetry_space_group_name_H-M   'P 1'
_cell_length_a   7.38403793
_cell_length_b   7.38408773
_cell_length_c   18.30313409
_cell_angle_alpha   86.63933143
_cell_angle_beta   86.63930449
_cell_angle_gamma   69.29557126
_symmetry_Int_Tables_number   1
_chemical_formula_structural   Ag2H12C16S(N2O3)2
_chemical_formula_sum   'Ag4 H24 C32 S2 N8 O12'
_cell_volume   931.14202982
_cell_formula_units_Z   2
loop_
 _symmetry_equiv_pos_site_id
 _symmetry_equiv_pos_as_xyz
  1  'x, y, z'
loop_
 _atom_site_type_symbol
 _atom_site_label
 _atom_site_symmetry_multiplicity
 _atom_site_fract_x
 _atom_site_fract_y
 _atom_site_fract_z
 _atom_site_occupancy
 _atom_site_hle17_bader_spin_density
 _atom_site_hle17_ddec_charge
 _atom_site_hle17_ddec_spin_density
 _atom_site_hle17_ddec_sum_bond_order
 _atom_site_hle17_magmom
 _atom_site_hse06_10hf_bader_spin_density
 _atom_site_hse06_10hf_ddec_charge
 _atom_site_hse06_10hf_ddec_spin_density
 _atom_site_hse06_10hf_ddec_sum_bond_order
 _atom_site_hse06_10hf_magmom
 _atom_site_hse06_bader_spin_density
 _atom_site_hse06_ddec_charge
 _atom_site_hse06_ddec_spin_density
 _atom_site_hse06_ddec_sum_bond_order
 _atom_site_hse06_magmom
 _atom_site_pbe_bader_spin_density
 _atom_site_pbe_cm5_charge
 _atom_site_pbe_ddec_charge
 _atom_site_pbe_ddec_spin_density
 _atom_site_pbe_ddec_sum_bond_order
 _atom_site_pbe_magmom
Ag  Ag0  1  0.66461131  0.63615362  0.31602077  1  0  0.558701  0  1.497864  0  0  0.452641  0  1.950136  0  0  0.475137  0  1.903233  0  0  0.456571  0.437055  0  1.982793  0
Ag  Ag1  1  0.36384775  0.33538983  0.18397916  1  0  0.558703  0  1.497819  0  0  0.452672  0  1.950081  0  0  0.47517  0  1.903176  0  0  0.456585  0.437082  0  1.982742  0
Ag  Ag2  1  0.33538972  0.36384712  0.68397790  1  0  0.558713  0  1.497817  0  0  0.452635  0  1.950083  0  0  0.475133  0  1.903179  0  0  0.456561  0.437045  0  1.982753  0
Ag  Ag3  1  0.63615193  0.66461090  0.81602174  1  0  0.558709  0  1.497861  0  0  0.452636  0  1.950127  0  0  0.475133  0  1.903224  0  0  0.456564  0.437049  0  1.982768  0
H  H4  1  0.18442842  0.20968986  0.51565730  1  0  0.113898  0  0.954475  0  0  0.121395  0  1.020079  0  0  0.12451  0  1.018085  0  0  0.107745  0.119119  0  1.021607  0
H  H5  1  0.79030270  0.81557551  0.98434405  1  0  0.113905  0  0.954383  0  0  0.121438  0  1.019941  0  0  0.124556  0  1.017948  0  0  0.10775  0.119154  0  1.021472  0
H  H6  1  0.81558063  0.79030371  0.48434190  1  0  0.113861  0  0.954496  0  0  0.121346  0  1.020103  0  0  0.124462  0  1.018111  0  0  0.107716  0.119073  0  1.021617  0
H  H7  1  0.20969083  0.18443097  0.01565685  1  0  0.113904  0  0.954364  0  0  0.121407  0  1.019956  0  0  0.124526  0  1.017962  0  0  0.107745  0.119124  0  1.021495  0
H  H8  1  0.83592334  0.41156309  0.52402590  1  0  0.10453  0  0.964836  0  0  0.110887  0  1.030257  0  0  0.114512  0  1.028381  0  0  0.10323  0.108255  0  1.031721  0
H  H9  1  0.58843356  0.16407965  0.97597427  1  0  0.104504  0  0.964904  0  0  0.110857  0  1.030324  0  0  0.114483  0  1.028448  0  0  0.103231  0.108225  0  1.031791  0
H  H10  1  0.16408301  0.58843044  0.47597391  1  0  0.104507  0  0.964819  0  0  0.110862  0  1.030238  0  0  0.114486  0  1.028365  0  0  0.103229  0.108233  0  1.0317  0
H  H11  1  0.41156184  0.83592539  0.02402552  1  0  0.104514  0  0.964864  0  0  0.110877  0  1.030275  0  0  0.114502  0  1.0284  0  0  0.103223  0.108239  0  1.031741  0
H  H12  1  0.61168779  0.38324301  0.43251455  1  0  0.105476  0  0.939004  0  0  0.119647  0  0.994509  0  0  0.122349  0  0.992713  0  0  0.105438  0.117689  0  0.995838  0
H  H13  1  0.61675613  0.38831603  0.06748427  1  0  0.105503  0  0.939111  0  0  0.119667  0  0.994603  0  0  0.122365  0  0.992819  0  0  0.10545  0.11771  0  0.99592  0
H  H14  1  0.38831721  0.61675050  0.56748529  1  0  0.105518  0  0.938982  0  0  0.119681  0  0.994477  0  0  0.122382  0  0.992682  0  0  0.105474  0.117716  0  0.995821  0
H  H15  1  0.38323980  0.61168756  0.93251555  1  0  0.105484  0  0.939029  0  0  0.119647  0  0.994533  0  0  0.122347  0  0.992742  0  0  0.105435  0.117687  0  0.995851  0
H  H16  1  0.08644540  0.94796234  0.32354058  1  0  0.107377  0  0.939524  0  0  0.118388  0  0.999136  0  0  0.12135  0  0.99767  0  0  0.107799  0.11614  0  1.000445  0
H  H17  1  0.05202608  0.91356492  0.17645999  1  0  0.107366  0  0.939595  0  0  0.118332  0  0.999254  0  0  0.121294  0  0.997788  0  0  0.107741  0.116087  0  1.000558  0
H  H18  1  0.91355930  0.05202827  0.67646043  1  0  0.10739  0  0.939492  0  0  0.118349  0  0.99917  0  0  0.12131  0  0.997705  0  0  0.10777  0.116105  0  1.000471  0
H  H19  1  0.94796880  0.08644157  0.82353978  1  0  0.107338  0  0.939582  0  0  0.118315  0  0.999227  0  0  0.121277  0  0.997762  0  0  0.10776  0.116071  0  1.000535  0
H  H20  1  0.55825897  0.16415937  0.34052120  1  0  0.123178  0  0.930141  0  0  0.139267  0  0.987586  0  0  0.140346  0  0.987483  0  0  0.108114  0.13842  0  0.987793  0
H  H21  1  0.83583430  0.44174738  0.15947988  1  0  0.123159  0  0.930148  0  0  0.139218  0  0.987619  0  0  0.140298  0  0.987516  0  0  0.108091  0.138373  0  0.987817  0
H  H22  1  0.44174498  0.83583705  0.65947915  1  0  0.123159  0  0.930129  0  0  0.139245  0  0.987587  0  0  0.140323  0  0.987484  0  0  0.108105  0.138399  0  0.987787  0
H  H23  1  0.16416028  0.55825620  0.84052052  1  0  0.123165  0  0.930137  0  0  0.139249  0  0.987577  0  0  0.140329  0  0.987476  0  0  0.108106  0.138406  0  0.987774  0
H  H24  1  0.75506263  0.02609901  0.28328181  1  0  0.12067  0  0.937233  0  0  0.133971  0  1.001187  0  0  0.135757  0  1.000207  0  0  0.104139  0.132597  0  1.002059  0
H  H25  1  0.97389880  0.24494245  0.21671701  1  0  0.120667  0  0.937298  0  0  0.133977  0  1.001195  0  0  0.135763  0  1.000217  0  0  0.104133  0.132597  0  1.002073  0
H  H26  1  0.24493622  0.97390025  0.71671804  1  0  0.120691  0  0.937192  0  0  0.133996  0  1.001147  0  0  0.135782  0  1.000167  0  0  0.104153  0.132623  0  1.002013  0
H  H27  1  0.02609848  0.75506116  0.78328169  1  0  0.120666  0  0.937224  0  0  0.133966  0  1.00117  0  0  0.135752  0  1.000192  0  0  0.104137  0.132587  0  1.00205  0
C  C28  1  0.35048623  0.93939732  0.41517759  1  0  0.321381  0  3.702626  0  0  0.304304  0  3.961399  0  0  0.319183  0  3.97751  0  0  0.215181  0.293899  0  3.950989  0
C  C29  1  0.06060151  0.64951493  0.08482514  1  0  0.321593  0  3.702762  0  0  0.304534  0  3.961521  0  0  0.319412  0  3.977626  0  0  0.215398  0.29413  0  3.951106  0
C  C30  1  0.64951022  0.06060483  0.58482170  1  0  0.32157  0  3.703004  0  0  0.304515  0  3.961745  0  0  0.319392  0  3.977851  0  0  0.215397  0.29411  0  3.951336  0
C  C31  1  0.93939712  0.35048870  0.91517680  1  0  0.321382  0  3.702756  0  0  0.304311  0  3.961526  0  0  0.31919  0  3.977635  0  0  0.215233  0.2939  0  3.951118  0
C  C32  1  0.15554925  0.06855380  0.41848074  1  0  0.013004  0  3.890297  0  0  0.03544  0  4.122221  0  0  0.031232  0  4.144637  0  0  -0.000725  0.038131  0  4.107304  0
C  C33  1  0.93143382  0.84445679  0.08151940  1  0  0.012991  0  3.890231  0  0  0.035407  0  4.122174  0  0  0.031201  0  4.144589  0  0  -0.000766  0.038099  0  4.107247  0
C  C34  1  0.84445462  0.93143534  0.58151979  1  0  0.012921  0  3.890154  0  0  0.035329  0  4.122088  0  0  0.031122  0  4.144504  0  0  -0.0008  0.038025  0  4.107167  0
C  C35  1  0.06855993  0.15554532  0.91847886  1  0  0.013041  0  3.890196  0  0  0.035468  0  4.122121  0  0  0.031261  0  4.144539  0  0  -0.000733  0.038166  0  4.107196  0
C  C36  1  0.08706027  0.20028962  0.47483265  1  0  -0.063689  0  3.667745  0  0  -0.090873  0  3.916905  0  0  -0.090772  0  3.936917  0  0  -0.068762  -0.090769  0  3.90343  0
C  C37  1  0.79970673  0.91294711  0.02517053  1  0  -0.063909  0  3.667913  0  0  -0.091118  0  3.917104  0  0  -0.091024  0  3.937122  0  0  -0.068851  -0.091007  0  3.903612  0
C  C38  1  0.91294473  0.79970390  0.52516720  1  0  -0.063757  0  3.66777  0  0  -0.090922  0  3.916927  0  0  -0.090824  0  3.936941  0  0  -0.068768  -0.090819  0  3.903455  0
C  C39  1  0.20029242  0.08705507  0.97483034  1  0  -0.063795  0  3.667869  0  0  -0.090972  0  3.917039  0  0  -0.090877  0  3.937058  0  0  -0.068794  -0.090869  0  3.903555  0
C  C40  1  0.89116054  0.31420653  0.47895670  1  0  -0.042602  0  3.73734  0  0  -0.057621  0  3.994985  0  0  -0.061147  0  4.016393  0  0  -0.08282  -0.0554  0  3.980725  0
C  C41  1  0.68578722  0.10884229  0.02104227  1  0  -0.042448  0  3.737154  0  0  -0.05747  0  3.994796  0  0  -0.060993  0  4.016202  0  0  -0.082771  -0.055249  0  3.980535  0
C  C42  1  0.10884124  0.68578840  0.52104264  1  0  -0.042601  0  3.737245  0  0  -0.057614  0  3.99488  0  0  -0.061138  0  4.016287  0  0  -0.082846  -0.055394  0  3.980624  0
C  C43  1  0.31420309  0.89116561  0.97895813  1  0  -0.042612  0  3.73727  0  0  -0.057636  0  3.994915  0  0  -0.061161  0  4.016323  0  0  -0.082827  -0.055412  0  3.980646  0
C  C44  1  0.76622008  0.29797997  0.42754142  1  0  -0.117267  0  3.720791  0  0  -0.138758  0  3.972414  0  0  -0.139273  0  3.991515  0  0  -0.086248  -0.138282  0  3.959546  0
C  C45  1  0.70201686  0.23378910  0.07246169  1  0  -0.117244  0  3.720746  0  0  -0.138756  0  3.97232  0  0  -0.139272  0  3.991417  0  0  -0.086229  -0.138269  0  3.959448  0
C  C46  1  0.23378815  0.70201213  0.57245783  1  0  -0.117138  0  3.720496  0  0  -0.138649  0  3.97208  0  0  -0.139162  0  3.991175  0  0  -0.086199  -0.138171  0  3.959209  0
C  C47  1  0.29798042  0.76621452  0.92753919  1  0  -0.117215  0  3.720574  0  0  -0.138709  0  3.972151  0  0  -0.139222  0  3.991245  0  0  -0.086232  -0.138218  0  3.959268  0
C  C48  1  0.83471403  0.16864963  0.37024232  1  0  0.098237  0  3.782946  0  0  0.119994  0  4.022309  0  0  0.118099  0  4.048048  0  0  -0.015614  0.121102  0  4.005014  0
C  C49  1  0.83134344  0.16529356  0.12975765  1  0  0.098072  0  3.78302  0  0  0.119921  0  4.022198  0  0  0.118027  0  4.047934  0  0  -0.015694  0.121022  0  4.00491  0
C  C50  1  0.16529014  0.83134242  0.62975703  1  0  0.098024  0  3.782805  0  0  0.119889  0  4.022028  0  0  0.117992  0  4.047764  0  0  -0.015652  0.12099  0  4.004744  0
C  C51  1  0.16864717  0.83471724  0.87024158  1  0  0.098163  0  3.783083  0  0  0.119982  0  4.022317  0  0  0.118089  0  4.048054  0  0  -0.015626  0.121085  0  4.005022  0
C  C52  1  0.03023281  0.05373987  0.36585012  1  0  -0.109288  0  3.655443  0  0  -0.140751  0  3.900676  0  0  -0.141548  0  3.920416  0  0  -0.0723  -0.140197  0  3.887612  0
C  C53  1  0.94625667  0.96977715  0.13415190  1  0  -0.109206  0  3.65526  0  0  -0.140649  0  3.900434  0  0  -0.141447  0  3.920176  0  0  -0.072163  -0.140099  0  3.887373  0
C  C54  1  0.96977406  0.94625222  0.63414916  1  0  -0.109169  0  3.655399  0  0  -0.140596  0  3.900572  0  0  -0.141397  0  3.920323  0  0  -0.072191  -0.140043  0  3.887506  0
C  C55  1  0.05374301  0.03022358  0.86584790  1  0  -0.109185  0  3.655499  0  0  -0.14063  0  3.900694  0  0  -0.141427  0  3.920438  0  0  -0.072223  -0.140085  0  3.887639  0
C  C56  1  0.69842291  0.15714691  0.31502030  1  0  -0.187824  0  3.625425  0  0  -0.229321  0  3.869197  0  0  -0.229148  0  3.880906  0  0  -0.14579  -0.229368  0  3.861434  0
C  C57  1  0.84285140  0.30158164  0.18497961  1  0  -0.18775  0  3.625507  0  0  -0.2292  0  3.869143  0  0  -0.22903  0  3.880856  0  0  -0.145753  -0.22924  0  3.861363  0
C  C58  1  0.30158022  0.84284804  0.68498010  1  0  -0.187808  0  3.625373  0  0  -0.229349  0  3.869126  0  0  -0.229171  0  3.880825  0  0  -0.145846  -0.229389  0  3.861349  0
C  C59  1  0.15714670  0.69842344  0.81502122  1  0  -0.18776  0  3.625406  0  0  -0.229281  0  3.869192  0  0  -0.229114  0  3.880916  0  0  -0.145788  -0.229329  0  3.86142  0
S  S60  1  0.63318932  0.36681076  0.25000136  1  0  0.027928  0  3.005657  0  0  0.068479  0  3.498553  0  0  0.062682  0  3.478651  0  0  -0.006017  0.072157  0  3.512545  0
S  S61  1  0.36681088  0.63318852  0.74999956  1  0  0.027887  0  3.005666  0  0  0.06846  0  3.498585  0  0  0.062659  0  3.478686  0  0  -0.006038  0.072135  0  3.51258  0
N  N62  1  0.50838531  0.82656149  0.41063503  1  0  -0.423498  0  2.802735  0  0  -0.377387  0  3.07458  0  0  -0.391644  0  3.078823  0  0  -0.339379  -0.368114  0  3.072283  0
N  N63  1  0.17343209  0.49163275  0.08936742  1  0  -0.423626  0  2.803023  0  0  -0.377531  0  3.074879  0  0  -0.391786  0  3.079115  0  0  -0.33956  -0.368258  0  3.072582  0
N  N64  1  0.49163290  0.17342927  0.58936457  1  0  -0.423577  0  2.803337  0  0  -0.377486  0  3.075201  0  0  -0.391743  0  3.079439  0  0  -0.339522  -0.368208  0  3.072909  0
N  N65  1  0.82656340  0.50837957  0.91063384  1  0  -0.423451  0  2.802975  0  0  -0.377356  0  3.074843  0  0  -0.391612  0  3.079083  0  0  -0.339381  -0.368082  0  3.072545  0
N  N66  1  0.10639877  0.54648039  0.32576427  1  0  0.687225  0  4.145508  0  0  0.735431  0  4.409782  0  0  0.750347  0  4.437353  0  0  0.094409  0.715594  0  4.404419  0
N  N67  1  0.45351842  0.89360268  0.17423681  1  0  0.687165  0  4.14538  0  0  0.735452  0  4.40957  0  0  0.750349  0  4.437157  0  0  0.094468  0.71562  0  4.404201  0
N  N68  1  0.89359956  0.45352033  0.67423610  1  0  0.687265  0  4.145447  0  0  0.73543  0  4.409793  0  0  0.750362  0  4.437336  0  0  0.094415  0.715599  0  4.404425  0
N  N69  1  0.54647886  0.10640093  0.82576298  1  0  0.687264  0  4.14534  0  0  0.735559  0  4.409525  0  0  0.750411  0  4.437172  0  0  0.09446  0.715716  0  4.40417  0
O  O70  1  0.95740820  0.65447726  0.36131699  1  0  -0.464778  0  1.849532  0  0  -0.441729  0  2.086869  0  0  -0.457412  0  2.08679  0  0  -0.190423  -0.426959  0  2.090344  0
O  O71  1  0.34552606  0.04259315  0.13868398  1  0  -0.46469  0  1.849444  0  0  -0.441747  0  2.086839  0  0  -0.457424  0  2.086763  0  0  -0.190448  -0.426979  0  2.090319  0
O  O72  1  0.04259147  0.34552347  0.63868336  1  0  -0.464775  0  1.849483  0  0  -0.44172  0  2.086849  0  0  -0.457404  0  2.086752  0  0  -0.190403  -0.426952  0  2.090328  0
O  O73  1  0.65447527  0.95741051  0.86131571  1  0  -0.464781  0  1.849454  0  0  -0.441755  0  2.086763  0  0  -0.457418  0  2.086697  0  0  -0.190414  -0.426977  0  2.090232  0
O  O74  1  0.27184346  0.50264107  0.35081328  1  0  -0.45819  0  1.766402  0  0  -0.459348  0  1.984732  0  0  -0.469547  0  1.984819  0  0  -0.185024  -0.448527  0  1.988398  0
O  O75  1  0.49735836  0.72815728  0.14918671  1  0  -0.458207  0  1.76637  0  0  -0.459364  0  1.984655  0  0  -0.469552  0  1.98474  0  0  -0.185038  -0.448548  0  1.988328  0
O  O76  1  0.72815487  0.49735964  0.64918710  1  0  -0.458211  0  1.766424  0  0  -0.459344  0  1.984745  0  0  -0.469546  0  1.984825  0  0  -0.185023  -0.448526  0  1.988417  0
O  O77  1  0.50264214  0.27184491  0.85081194  1  0  -0.458185  0  1.766346  0  0  -0.459365  0  1.984621  0  0  -0.469538  0  1.984726  0  0  -0.18501  -0.448556  0  1.988315  0
O  O78  1  0.08205801  0.48569527  0.26429414  1  0  -0.500537  0  1.857483  0  0  -0.489851  0  2.116394  0  0  -0.503707  0  2.111331  0  0  -0.212538  -0.476492  0  2.123288  0
O  O79  1  0.51430038  0.91794302  0.23570757  1  0  -0.500461  0  1.857363  0  0  -0.489832  0  2.116296  0  0  -0.503686  0  2.11125  0  0  -0.212557  -0.476484  0  2.123205  0
O  O80  1  0.91794219  0.51430401  0.73570677  1  0  -0.500559  0  1.85744  0  0  -0.48986  0  2.116375  0  0  -0.503725  0  2.111317  0  0  -0.212562  -0.476504  0  2.123274  0
O  O81  1  0.48569420  0.08206056  0.76429283  1  0  -0.500579  0  1.85745  0  0  -0.489921  0  2.116335  0  0  -0.503753  0  2.111296  0  0  -0.212609  -0.476566  0  2.123242  0
