# generated using pymatgen
data_SnH14C11Cl2O3
_symmetry_space_group_name_H-M   'P 1'
_cell_length_a   10.54485172
_cell_length_b   10.36611128
_cell_length_c   13.53970000
_cell_angle_alpha   104.40131795
_cell_angle_beta   90.00000000
_cell_angle_gamma   90.00000000
_symmetry_Int_Tables_number   1
_chemical_formula_structural   SnH14C11Cl2O3
_chemical_formula_sum   'Sn4 H56 C44 Cl8 O12'
_cell_volume   1433.50672542
_cell_formula_units_Z   4
loop_
 _symmetry_equiv_pos_site_id
 _symmetry_equiv_pos_as_xyz
  1  'x, y, z'
loop_
 _atom_site_type_symbol
 _atom_site_label
 _atom_site_symmetry_multiplicity
 _atom_site_fract_x
 _atom_site_fract_y
 _atom_site_fract_z
 _atom_site_occupancy
 _atom_site_hle17_bader_spin_density
 _atom_site_hle17_ddec_charge
 _atom_site_hle17_ddec_spin_density
 _atom_site_hle17_ddec_sum_bond_order
 _atom_site_hle17_magmom
 _atom_site_hse06_10hf_bader_spin_density
 _atom_site_hse06_10hf_ddec_charge
 _atom_site_hse06_10hf_ddec_spin_density
 _atom_site_hse06_10hf_ddec_sum_bond_order
 _atom_site_hse06_10hf_magmom
 _atom_site_hse06_bader_spin_density
 _atom_site_hse06_ddec_charge
 _atom_site_hse06_ddec_spin_density
 _atom_site_hse06_ddec_sum_bond_order
 _atom_site_hse06_magmom
 _atom_site_pbe_bader_charge
 _atom_site_pbe_bader_spin_density
 _atom_site_pbe_cm5_charge
 _atom_site_pbe_ddec_charge
 _atom_site_pbe_ddec_spin_density
 _atom_site_pbe_ddec_sum_bond_order
 _atom_site_pbe_magmom
Sn  Sn0  1  0.91784695  0.93452624  0.74463430  1  0  1.389211  0  2.848728  0  0  1.2607  0  3.336441  0  0  1.299137  0  3.32046  0  1.688745  0  0.520268  1.234035  0  3.347143  0
Sn  Sn1  1  0.41784371  0.06546962  0.75536255  1  0  1.389332  0  2.848951  0  0  1.260813  0  3.336633  0  0  1.299254  0  3.320642  0  1.688675  0  0.520217  1.234136  0  3.347337  0
Sn  Sn2  1  0.08215478  0.06546962  0.25536403  1  0  1.389195  0  2.848884  0  0  1.260702  0  3.336592  0  0  1.299149  0  3.320605  0  1.688698  0  0.520242  1.234034  0  3.347298  0
Sn  Sn3  1  0.58215612  0.93453122  0.24463525  1  0  1.389257  0  2.848916  0  0  1.26074  0  3.336599  0  0  1.299186  0  3.320615  0  1.688684  0  0.520213  1.234065  0  3.347303  0
H  H4  1  0.59762718  0.67006318  0.53938951  1  0  0.089878  0  0.928382  0  0  0.099511  0  0.993554  0  0  0.100746  0  0.993653  0  0.088126  0  0.105622  0.098741  0  0.993572  0
H  H5  1  0.09763437  0.32993368  0.96060753  1  0  0.089924  0  0.928293  0  0  0.099569  0  0.993483  0  0  0.1008  0  0.993579  0  0.088139  0  0.105647  0.098803  0  0.993498  0
H  H6  1  0.40236981  0.32993169  0.46060567  1  0  0.089943  0  0.928341  0  0  0.099574  0  0.9935  0  0  0.10081  0  0.993597  0  0.088038  0  0.105647  0.098806  0  0.993518  0
H  H7  1  0.90237305  0.67007115  0.03939472  1  0  0.089942  0  0.928302  0  0  0.09955  0  0.993521  0  0  0.100783  0  0.993618  0  0.088009  0  0.105637  0.098783  0  0.993542  0
H  H8  1  0.58776550  0.61449458  0.65318038  1  0  0.080381  0  0.945098  0  0  0.087402  0  1.019702  0  0  0.089082  0  1.018358  0  0.077531  0  0.10378  0.08614  0  1.020982  0
H  H9  1  0.08776700  0.38550029  0.84681628  1  0  0.080378  0  0.945149  0  0  0.087421  0  1.019759  0  0  0.089097  0  1.018409  0  0.077416  0  0.103763  0.086158  0  1.021036  0
H  H10  1  0.41223150  0.38549929  0.34681313  1  0  0.080438  0  0.945104  0  0  0.087425  0  1.01973  0  0  0.089103  0  1.018382  0  0.077418  0  0.103789  0.086161  0  1.021008  0
H  H11  1  0.91223568  0.61449856  0.15318409  1  0  0.080406  0  0.945064  0  0  0.087418  0  1.019698  0  0  0.089095  0  1.018349  0  0.077433  0  0.103771  0.086156  0  1.02098  0
H  H12  1  0.41351933  0.57452299  0.75220223  1  0  0.10436  0  0.966781  0  0  0.108841  0  1.038329  0  0  0.112299  0  1.036147  0  0.105838  0  0.099492  0.106423  0  1.039926  0
H  H13  1  0.91352446  0.42547885  0.74780240  1  0  0.10437  0  0.966774  0  0  0.108843  0  1.038332  0  0  0.112303  0  1.036153  0  0.105844  0  0.099489  0.106424  0  1.039932  0
H  H14  1  0.58647577  0.42548483  0.24780059  1  0  0.104347  0  0.96681  0  0  0.108831  0  1.038345  0  0  0.112292  0  1.036169  0  0.105649  0  0.09947  0.106411  0  1.039945  0
H  H15  1  0.08647727  0.57451502  0.25219702  1  0  0.104334  0  0.966861  0  0  0.108808  0  1.038409  0  0  0.112266  0  1.036234  0  0.105686  0  0.099478  0.106388  0  1.04001  0
H  H16  1  0.26289417  0.38391768  0.73056996  1  0  0.11592  0  0.974727  0  0  0.122552  0  1.041626  0  0  0.126453  0  1.039072  0  0.101608  0  0.102549  0.119669  0  1.043585  0
H  H17  1  0.76289646  0.61608416  0.76943467  1  0  0.115905  0  0.974702  0  0  0.1225  0  1.041662  0  0  0.126405  0  1.039091  0  0.10165  0  0.102563  0.11962  0  1.043618  0
H  H18  1  0.73710283  0.61609113  0.26943526  1  0  0.115905  0  0.974703  0  0  0.122515  0  1.041647  0  0  0.126421  0  1.039074  0  0.101623  0  0.102553  0.119636  0  1.043602  0
H  H19  1  0.23710623  0.38391270  0.23056458  1  0  0.115921  0  0.974743  0  0  0.122529  0  1.041676  0  0  0.126432  0  1.039107  0  0.101651  0  0.102569  0.11965  0  1.043633  0
H  H20  1  0.12729624  0.46399930  0.45062910  1  0  0.130519  0  0.935267  0  0  0.13959  0  0.997662  0  0  0.143232  0  0.99518  0  0.130992  0  0.109653  0.137064  0  0.999325  0
H  H21  1  0.62729569  0.53599358  0.04937383  1  0  0.130491  0  0.935227  0  0  0.139541  0  0.997681  0  0  0.143187  0  0.995193  0  0.130909  0  0.109656  0.137015  0  0.999344  0
H  H22  1  0.87269980  0.53599756  0.54937533  1  0  0.130498  0  0.935245  0  0  0.13953  0  0.997692  0  0  0.143175  0  0.995207  0  0.1311  0  0.109646  0.137005  0  0.999354  0
H  H23  1  0.37270415  0.46400627  0.95062599  1  0  0.130511  0  0.9352  0  0  0.139559  0  0.997654  0  0  0.143204  0  0.995167  0  0.130898  0  0.109664  0.137033  0  0.999317  0
H  H24  1  0.09884255  0.77794554  0.63272909  1  0  0.144088  0  1.012536  0  0  0.159482  0  1.075662  0  0  0.161619  0  1.077241  0  0.053382  0  0.076263  0.157785  0  1.074838  0
H  H25  1  0.59883915  0.22205431  0.86727295  1  0  0.14411  0  1.012469  0  0  0.159505  0  1.075605  0  0  0.161642  0  1.077182  0  0.053306  0  0.07629  0.157806  0  1.074783  0
H  H26  1  0.90116393  0.22205531  0.36727388  1  0  0.144158  0  1.012434  0  0  0.159541  0  1.075573  0  0  0.161674  0  1.077156  0  0.053541  0  0.07631  0.157844  0  1.07475  0
H  H27  1  0.40115879  0.77794554  0.13272835  1  0  0.144142  0  1.012448  0  0  0.15954  0  1.075576  0  0  0.161677  0  1.077153  0  0.053364  0  0.076288  0.157843  0  1.074753  0
H  H28  1  0.01036620  0.68122810  0.70096216  1  0  0.148749  0  0.990075  0  0  0.168294  0  1.046266  0  0  0.170211  0  1.047785  0  0.032874  0  0.076699  0.166894  0  1.04531  0
H  H29  1  0.51036469  0.31876976  0.79903729  1  0  0.148715  0  0.990023  0  0  0.168279  0  1.046203  0  0  0.170196  0  1.047719  0  0.032695  0  0.076674  0.166877  0  1.045249  0
H  H30  1  0.98963649  0.31877175  0.29903988  1  0  0.148721  0  0.990063  0  0  0.168281  0  1.046238  0  0  0.170198  0  1.047754  0  0.03324  0  0.076657  0.166879  0  1.045282  0
H  H31  1  0.48963515  0.68123009  0.20096180  1  0  0.148728  0  0.990024  0  0  0.168295  0  1.046194  0  0  0.170211  0  1.04771  0  0.032711  0  0.076679  0.166893  0  1.045239  0
H  H32  1  0.12965853  0.79520584  0.76482952  1  0  0.153768  0  0.998352  0  0  0.173632  0  1.053089  0  0  0.175977  0  1.05427  0  0.059119  0  0.079256  0.171884  0  1.052442  0
H  H33  1  0.62965798  0.20479600  0.73517216  1  0  0.153769  0  0.998326  0  0  0.173631  0  1.053077  0  0  0.175975  0  1.054256  0  0.059138  0  0.079249  0.171883  0  1.052429  0
H  H34  1  0.87034320  0.20479600  0.23517438  1  0  0.153785  0  0.998311  0  0  0.173646  0  1.053051  0  0  0.175989  0  1.054232  0  0.058968  0  0.079269  0.171897  0  1.052404  0
H  H35  1  0.37034471  0.79520783  0.26482916  1  0  0.153783  0  0.998316  0  0  0.173645  0  1.053064  0  0  0.175989  0  1.05424  0  0.059152  0  0.079253  0.171896  0  1.052417  0
H  H36  1  0.91650032  0.02177009  0.95107182  1  0  0.155236  0  0.997775  0  0  0.172872  0  1.05477  0  0  0.175852  0  1.054666  0  0.058057  0  0.083443  0.170694  0  1.054979  0
H  H37  1  0.41649993  0.97823175  0.54892543  1  0  0.155227  0  0.99775  0  0  0.172888  0  1.054721  0  0  0.17587  0  1.054614  0  0.058028  0  0.083459  0.170709  0  1.054932  0
H  H38  1  0.08349857  0.97823075  0.04892524  1  0  0.155209  0  0.997686  0  0  0.172865  0  1.054666  0  0  0.175845  0  1.054562  0  0.058027  0  0.083451  0.170687  0  1.054877  0
H  H39  1  0.58349706  0.02177109  0.45107201  1  0  0.15525  0  0.99767  0  0  0.172904  0  1.05465  0  0  0.175886  0  1.054543  0  0.058054  0  0.08347  0.170724  0  1.054861  0
H  H40  1  0.80996018  0.88294852  0.91151787  1  0  0.146153  0  1.000778  0  0  0.162735  0  1.061233  0  0  0.164995  0  1.062393  0  0.042719  0  0.077745  0.160987  0  1.060628  0
H  H41  1  0.30996168  0.11705432  0.58848105  1  0  0.146146  0  1.000798  0  0  0.162713  0  1.061272  0  0  0.164972  0  1.062432  0  0.042832  0  0.077718  0.160966  0  1.060666  0
H  H42  1  0.19003776  0.11705332  0.08848086  1  0  0.146128  0  1.000783  0  0  0.162713  0  1.061237  0  0  0.164973  0  1.062398  0  0.042777  0  0.077727  0.160965  0  1.060631  0
H  H43  1  0.69003720  0.88294852  0.41151860  1  0  0.146158  0  1.000773  0  0  0.162742  0  1.061224  0  0  0.165001  0  1.062386  0  0.042722  0  0.077748  0.160994  0  1.060618  0
H  H44  1  0.76284145  0.04557596  0.90301505  1  0  0.157221  0  0.99503  0  0  0.173463  0  1.055062  0  0  0.176458  0  1.055157  0  0.052573  0  0.083042  0.171243  0  1.055193  0
H  H45  1  0.26283821  0.95442688  0.59698238  1  0  0.157173  0  0.995038  0  0  0.173428  0  1.055071  0  0  0.176418  0  1.055172  0  0.052461  0  0.083006  0.171209  0  1.055202  0
H  H46  1  0.23715933  0.95442688  0.09698238  1  0  0.157208  0  0.995073  0  0  0.173453  0  1.055101  0  0  0.17645  0  1.055194  0  0.05262  0  0.083033  0.171234  0  1.055233  0
H  H47  1  0.73715783  0.04557496  0.40301560  1  0  0.157185  0  0.995136  0  0  0.173429  0  1.055162  0  0  0.176426  0  1.055254  0  0.0526  0  0.083009  0.17121  0  1.055293  0
H  H48  1  0.80333041  0.00638920  0.58647994  1  0  0.15964  0  0.998481  0  0  0.176761  0  1.057253  0  0  0.179296  0  1.058299  0  0.062069  0  0.082303  0.174988  0  1.056489  0
H  H49  1  0.30332622  0.99360766  0.91351857  1  0  0.159606  0  0.998472  0  0  0.176714  0  1.057254  0  0  0.17925  0  1.058305  0  0.061414  0  0.082276  0.174942  0  1.056491  0
H  H50  1  0.19666848  0.99361264  0.41352247  1  0  0.159645  0  0.998458  0  0  0.176763  0  1.057233  0  0  0.1793  0  1.058278  0  0.062082  0  0.082301  0.174989  0  1.056471  0
H  H51  1  0.69667077  0.00639020  0.08647718  1  0  0.15964  0  0.998397  0  0  0.176763  0  1.057168  0  0  0.1793  0  1.058215  0  0.062025  0  0.082297  0.174989  0  1.056405  0
H  H52  1  0.96855606  0.04843541  0.59068776  1  0  0.147507  0  1.00579  0  0  0.166468  0  1.062933  0  0  0.168877  0  1.063829  0  0.030025  0  0.076893  0.164748  0  1.062377  0
H  H53  1  0.46855282  0.95156045  0.90930761  1  0  0.147525  0  1.005774  0  0  0.166478  0  1.062929  0  0  0.168889  0  1.063821  0  0.030089  0  0.076891  0.164757  0  1.062373  0
H  H54  1  0.03144188  0.95156444  0.40930984  1  0  0.14751  0  1.005754  0  0  0.166484  0  1.062887  0  0  0.168895  0  1.063778  0  0.030043  0  0.07688  0.164762  0  1.062332  0
H  H55  1  0.53144512  0.04843641  0.09068869  1  0  0.147519  0  1.005762  0  0  0.16649  0  1.062897  0  0  0.168902  0  1.063787  0  0.029961  0  0.076896  0.16477  0  1.062339  0
H  H56  1  0.86003580  0.15183885  0.67705027  1  0  0.148969  0  1.014682  0  0  0.16212  0  1.082209  0  0  0.164737  0  1.082795  0  0.089696  0  0.075964  0.160209  0  1.081932  0
H  H57  1  0.36003162  0.84816100  0.82294586  1  0  0.149047  0  1.014794  0  0  0.16222  0  1.082273  0  0  0.164831  0  1.082865  0  0.089623  0  0.075996  0.16031  0  1.081996  0
H  H58  1  0.13996404  0.84816100  0.32295103  1  0  0.149036  0  1.014737  0  0  0.162198  0  1.082236  0  0  0.164814  0  1.082823  0  0.089676  0  0.075997  0.160285  0  1.081962  0
H  H59  1  0.63996538  0.15183985  0.17704899  1  0  0.149014  0  1.014731  0  0  0.162171  0  1.08224  0  0  0.164788  0  1.082827  0  0.089658  0  0.075986  0.16026  0  1.081965  0
C  C60  1  0.65046244  0.81582856  0.67465389  1  0  0.679747  0  3.849448  0  0  0.624565  0  4.154876  0  0  0.658436  0  4.145536  0  1.600819  0  0.228805  0.601673  0  4.160447  0
C  C61  1  0.15044782  0.18414240  0.82533674  1  0  0.679775  0  3.850099  0  0  0.624714  0  4.155417  0  0  0.658577  0  4.146072  0  1.601045  0  0.22898  0.601815  0  4.161004  0
C  C62  1  0.34954688  0.18415535  0.32533921  1  0  0.679797  0  3.849788  0  0  0.62474  0  4.155027  0  0  0.65861  0  4.145684  0  1.601079  0  0.228981  0.601848  0  4.160599  0
C  C63  1  0.84954822  0.81584848  0.17466433  1  0  0.679651  0  3.850297  0  0  0.62462  0  4.155542  0  0  0.658486  0  4.1462  0  1.601033  0  0.228934  0.601711  0  4.161146  0
C  C64  1  0.56850491  0.69938478  0.62016724  1  0  -0.063795  0  3.627999  0  0  -0.122622  0  3.895877  0  0  -0.119425  0  3.895118  0  0.399125  0  -0.064614  -0.125091  0  3.896787  0
C  C65  1  0.06850926  0.30061706  0.87983222  1  0  -0.063901  0  3.627749  0  0  -0.122888  0  3.895818  0  0  -0.11967  0  3.895036  0  0.39946  0  -0.064763  -0.125325  0  3.89674  0
C  C66  1  0.43149303  0.30061507  0.37983110  1  0  -0.064021  0  3.62801  0  0  -0.122861  0  3.895931  0  0  -0.119661  0  3.895172  0  0.399396  0  -0.064742  -0.125333  0  3.896833  0
C  C67  1  0.93149532  0.69938577  0.12017039  1  0  -0.063851  0  3.627815  0  0  -0.122753  0  3.895822  0  0  -0.119541  0  3.895044  0  0.399367  0  -0.064703  -0.12525  0  3.896744  0
C  C68  1  0.35745690  0.62427409  0.61362436  1  0  0.198651  0  3.80444  0  0  0.184737  0  4.06535  0  0  0.19236  0  4.082459  0  0.514367  0  0.075592  0.179507  0  4.053952  0
C  C69  1  0.85745919  0.37572477  0.88637601  1  0  0.198686  0  3.804567  0  0  0.184739  0  4.065471  0  0  0.192359  0  4.082585  0  0.514098  0  0.075605  0.17955  0  4.054076  0
C  C70  1  0.64253914  0.37572775  0.38637585  1  0  0.198621  0  3.804426  0  0  0.184741  0  4.065303  0  0  0.192365  0  4.082411  0  0.514417  0  0.075591  0.179508  0  4.053908  0
C  C71  1  0.14254160  0.62427409  0.11362436  1  0  0.198597  0  3.804457  0  0  0.184702  0  4.06533  0  0  0.192326  0  4.082437  0  0.514202  0  0.075585  0.179457  0  4.053936  0
C  C72  1  0.35157820  0.54850007  0.68566961  1  0  -0.147944  0  3.771735  0  0  -0.168543  0  4.030993  0  0  -0.171854  0  4.050061  0  -0.020782  0  -0.097706  -0.166523  0  4.018541  0
C  C73  1  0.85158334  0.45149977  0.81433464  1  0  -0.147946  0  3.771939  0  0  -0.168531  0  4.031187  0  0  -0.171846  0  4.050261  0  -0.020625  0  -0.097713  -0.166507  0  4.018725  0
C  C74  1  0.64841500  0.45150675  0.31433154  1  0  -0.14787  0  3.771853  0  0  -0.168467  0  4.031073  0  0  -0.171786  0  4.050149  0  -0.020515  0  -0.097637  -0.166447  0  4.018626  0
C  C75  1  0.14841650  0.54849509  0.18566645  1  0  -0.147844  0  3.771852  0  0  -0.168425  0  4.031084  0  0  -0.171742  0  4.050156  0  -0.020469  0  -0.097665  -0.166409  0  4.018638  0
C  C76  1  0.26612513  0.44348514  0.67464299  1  0  -0.128214  0  3.76966  0  0  -0.155541  0  4.0276  0  0  -0.156672  0  4.046381  0  0.023762  0  -0.102651  -0.154869  0  4.015359  0
C  C77  1  0.76612836  0.55651471  0.82536349  1  0  -0.128158  0  3.769674  0  0  -0.155473  0  4.027636  0  0  -0.156613  0  4.046455  0  0.023708  0  -0.102628  -0.154801  0  4.015394  0
C  C78  1  0.73386997  0.55651869  0.32536424  1  0  -0.128182  0  3.769838  0  0  -0.155523  0  4.027815  0  0  -0.156656  0  4.046619  0  0.023502  0  -0.102648  -0.154856  0  4.015574  0
C  C79  1  0.23387242  0.44348215  0.17463503  1  0  -0.12822  0  3.769679  0  0  -0.155548  0  4.027649  0  0  -0.156689  0  4.046467  0  0.023677  0  -0.102675  -0.15488  0  4.015407  0
C  C80  1  0.18419131  0.41624315  0.59090149  1  0  0.131284  0  3.81633  0  0  0.140035  0  4.0898  0  0  0.142463  0  4.110962  0  0.01017  0  0.00761  0.138164  0  4.075652  0
C  C81  1  0.68419265  0.58375471  0.90910165  1  0  0.131213  0  3.816463  0  0  0.139972  0  4.089924  0  0  0.142398  0  4.111086  0  0.010019  0  0.007519  0.138101  0  4.075776  0
C  C82  1  0.81580664  0.58375969  0.40910186  1  0  0.131156  0  3.816567  0  0  0.139927  0  4.09  0  0  0.142353  0  4.111162  0  0.010255  0  0.007503  0.138057  0  4.07585  0
C  C83  1  0.31580909  0.41624414  0.09089725  1  0  0.13117  0  3.816501  0  0  0.139928  0  4.089957  0  0  0.142356  0  4.111117  0  0.010009  0  0.007529  0.138059  0  4.075808  0
C  C84  1  0.18918806  0.48870553  0.51688515  1  0  -0.183637  0  3.765869  0  0  -0.22012  0  4.029535  0  0  -0.221919  0  4.048381  0  0.072602  0  -0.102085  -0.218528  0  4.016496  0
C  C85  1  0.68918845  0.51128934  0.98311742  1  0  -0.18351  0  3.765804  0  0  -0.219967  0  4.029404  0  0  -0.221767  0  4.048245  0  0.072803  0  -0.101967  -0.218369  0  4.016373  0
C  C86  1  0.81080799  0.51129232  0.48311799  1  0  -0.183529  0  3.765862  0  0  -0.219988  0  4.029538  0  0  -0.221788  0  4.048379  0  0.072501  0  -0.101996  -0.218393  0  4.0165  0
C  C87  1  0.31081234  0.48871051  0.01688240  1  0  -0.183553  0  3.765839  0  0  -0.220016  0  4.029478  0  0  -0.221817  0  4.048317  0  0.072783  0  -0.10202  -0.21842  0  4.016447  0
C  C88  1  0.27767294  0.59144964  0.52797864  1  0  0.046366  0  3.807035  0  0  0.053725  0  4.078424  0  0  0.054541  0  4.098878  0  0.014878  0  0.007099  0.053104  0  4.064703  0
C  C89  1  0.77767428  0.40854523  0.97202245  1  0  0.046384  0  3.806881  0  0  0.05375  0  4.07827  0  0  0.054569  0  4.098722  0  0.015026  0  0.007091  0.053108  0  4.064574  0
C  C90  1  0.72232500  0.40855121  0.47202211  1  0  0.046398  0  3.807158  0  0  0.053737  0  4.078531  0  0  0.054554  0  4.098983  0  0.014914  0  0.0071  0.053105  0  4.064827  0
C  C91  1  0.22232840  0.59145462  0.02797738  1  0  0.046438  0  3.806935  0  0  0.05378  0  4.078326  0  0  0.054603  0  4.098769  0  0.015002  0  0.007115  0.053135  0  4.064643  0
C  C92  1  0.05567836  0.77783200  0.70629108  1  0  -0.716434  0  3.525158  0  0  -0.754967  0  3.753511  0  0  -0.76907  0  3.761888  0  -0.471655  0  -0.344  -0.745125  0  3.748067  0
C  C93  1  0.55567495  0.22216586  0.79370836  1  0  -0.716465  0  3.525036  0  0  -0.755025  0  3.753403  0  0  -0.769131  0  3.761788  0  -0.471438  0  -0.344039  -0.745176  0  3.747965  0
C  C94  1  0.94432717  0.22216785  0.29371170  1  0  -0.71651  0  3.52508  0  0  -0.755035  0  3.753421  0  0  -0.769143  0  3.761828  0  -0.472017  0  -0.344036  -0.745191  0  3.747981  0
C  C95  1  0.44432583  0.77783399  0.20629146  1  0  -0.71651  0  3.525059  0  0  -0.755064  0  3.753394  0  0  -0.769176  0  3.761799  0  -0.471484  0  -0.344028  -0.745217  0  3.747952  0
C  C96  1  0.84274774  0.97665014  0.89646358  1  0  -0.713247  0  3.53603  0  0  -0.754659  0  3.77096  0  0  -0.767621  0  3.775821  0  -0.447141  0  -0.335951  -0.745615  0  3.767902  0
C  C97  1  0.34274640  0.02335170  0.60353367  1  0  -0.71327  0  3.536009  0  0  -0.754706  0  3.770949  0  0  -0.767668  0  3.775811  0  -0.44722  0  -0.335987  -0.745665  0  3.767891  0
C  C98  1  0.15725494  0.02335071  0.10353496  1  0  -0.713211  0  3.535983  0  0  -0.754643  0  3.770913  0  0  -0.767608  0  3.775774  0  -0.447272  0  -0.335969  -0.745603  0  3.767856  0
C  C99  1  0.65725438  0.97665014  0.39646358  1  0  -0.713288  0  3.536064  0  0  -0.754722  0  3.770996  0  0  -0.767688  0  3.775849  0  -0.447204  0  -0.335991  -0.745678  0  3.767938  0
C  C100  1  0.88242208  0.04942641  0.63615221  1  0  -0.71952  0  3.53452  0  0  -0.764118  0  3.772052  0  0  -0.777489  0  3.7779  0  -0.474534  0  -0.342279  -0.754814  0  3.767978  0
C  C101  1  0.38241790  0.95056846  0.86384297  1  0  -0.719678  0  3.534637  0  0  -0.764274  0  3.772166  0  0  -0.777639  0  3.778013  0  -0.473921  0  -0.342345  -0.754968  0  3.768092  0
C  C102  1  0.11757965  0.95057145  0.36384723  1  0  -0.719644  0  3.534559  0  0  -0.76426  0  3.772073  0  0  -0.77763  0  3.777907  0  -0.474582  0  -0.342337  -0.754953  0  3.768004  0
C  C103  1  0.61758005  0.04942940  0.13615278  1  0  -0.719606  0  3.534522  0  0  -0.76422  0  3.77204  0  0  -0.777593  0  3.777874  0  -0.47446  0  -0.342332  -0.754914  0  3.767966  0
Cl  Cl104  1  0.07285830  0.29010551  0.57887351  1  0  -0.076148  0  1.36349  0  0  -0.048324  0  1.590926  0  0  -0.052344  0  1.58702  0  -0.226156  0  0.031147  -0.045447  0  1.593599  0
Cl  Cl105  1  0.57285775  0.70988836  0.92112813  1  0  -0.076158  0  1.363496  0  0  -0.04834  0  1.590945  0  0  -0.052357  0  1.587036  0  -0.226079  0  0.031135  -0.045465  0  1.593621  0
Cl  Cl106  1  0.92714248  0.70989135  0.42113092  1  0  -0.076119  0  1.363608  0  0  -0.048317  0  1.591068  0  0  -0.052333  0  1.587151  0  -0.226136  0  0.031146  -0.045442  0  1.593743  0
Cl  Cl107  1  0.42714399  0.29011049  0.07887003  1  0  -0.076115  0  1.363503  0  0  -0.048319  0  1.590982  0  0  -0.052328  0  1.587058  0  -0.226118  0  0.031148  -0.045443  0  1.593658  0
Cl  Cl108  1  0.29066127  0.67810869  0.43496643  1  0  -0.057469  0  1.391667  0  0  -0.037029  0  1.619964  0  0  -0.040306  0  1.616266  0  -0.201275  0  0.029516  -0.034287  0  1.622718  0
Cl  Cl109  1  0.79066830  0.32189016  0.06503542  1  0  -0.057541  0  1.391676  0  0  -0.0371  0  1.619967  0  0  -0.040378  0  1.616268  0  -0.201354  0  0.029475  -0.034348  0  1.622727  0
Cl  Cl110  1  0.70933098  0.32189215  0.56503359  1  0  -0.057501  0  1.391673  0  0  -0.037056  0  1.619967  0  0  -0.040332  0  1.616268  0  -0.20128  0  0.029498  -0.034311  0  1.622726  0
Cl  Cl111  1  0.20933533  0.67811467  0.93496756  1  0  -0.057474  0  1.391652  0  0  -0.03704  0  1.619974  0  0  -0.040321  0  1.616272  0  -0.201294  0  0.029502  -0.034291  0  1.622739  0
O  O112  1  0.76716679  0.78212864  0.67989519  1  0  -0.635014  0  2.034925  0  0  -0.565654  0  2.282238  0  0  -0.593468  0  2.275554  0  -1.190207  0  -0.28724  -0.546272  0  2.286165  0
O  O113  1  0.26717872  0.21787519  0.82010170  1  0  -0.635222  0  2.034263  0  0  -0.565896  0  2.281642  0  0  -0.593726  0  2.27497  0  -1.189887  0  -0.287324  -0.546496  0  2.285562  0
O  O114  1  0.23282926  0.21787021  0.32010002  1  0  -0.63503  0  2.034522  0  0  -0.565733  0  2.281842  0  0  -0.59355  0  2.275158  0  -1.1903  0  -0.287251  -0.546347  0  2.285767  0
O  O115  1  0.73282681  0.78212466  0.17989812  1  0  -0.635102  0  2.034583  0  0  -0.565749  0  2.281884  0  0  -0.593575  0  2.275209  0  -1.189923  0  -0.28727  -0.546353  0  2.285811  0
O  O116  1  0.60778854  0.93139887  0.70836888  1  0  -0.60832  0  2.02  0  0  -0.536958  0  2.252202  0  0  -0.562696  0  2.24556  0  -1.1921  0  -0.269503  -0.518849  0  2.255902  0
O  O117  1  0.10780332  0.06862090  0.79163622  1  0  -0.607963  0  2.021512  0  0  -0.536767  0  2.253774  0  0  -0.562483  0  2.247109  0  -1.192703  0  -0.269481  -0.518666  0  2.257489  0
O  O118  1  0.39220846  0.06860695  0.29163356  1  0  -0.60819  0  2.020765  0  0  -0.536907  0  2.252932  0  0  -0.562652  0  2.246315  0  -1.192288  0  -0.269553  -0.518804  0  2.256637  0
O  O119  1  0.89220221  0.93138592  0.20837232  1  0  -0.608011  0  2.02121  0  0  -0.536852  0  2.253482  0  0  -0.562575  0  2.246825  0  -1.192653  0  -0.269513  -0.518746  0  2.257201  0
O  O120  1  0.43654573  0.73277893  0.62714200  1  0  -0.277923  0  2.360594  0  0  -0.208883  0  2.593964  0  0  -0.223844  0  2.596827  0  -1.085125  0  -0.186593  -0.198458  0  2.591949  0
O  O121  1  0.93654802  0.26721793  0.87286095  1  0  -0.277997  0  2.360576  0  0  -0.208827  0  2.593909  0  0  -0.223792  0  2.59677  0  -1.085267  0  -0.186578  -0.198482  0  2.591937  0
O  O122  1  0.56345411  0.26722092  0.37285635  1  0  -0.277898  0  2.360641  0  0  -0.208847  0  2.593976  0  0  -0.223804  0  2.596838  0  -1.085136  0  -0.186588  -0.198407  0  2.591949  0
O  O123  1  0.06345561  0.73278191  0.12714478  1  0  -0.278016  0  2.360525  0  0  -0.208922  0  2.593863  0  0  -0.223887  0  2.596722  0  -1.0851  0  -0.1866  -0.198436  0  2.591815  0
