# generated using pymatgen
data_CoH18C18(NO3)2
_symmetry_space_group_name_H-M   'P 1'
_cell_length_a   7.49659171
_cell_length_b   11.11140340
_cell_length_c   15.42121368
_cell_angle_alpha   89.99868649
_cell_angle_beta   89.99747214
_cell_angle_gamma   107.88597886
_symmetry_Int_Tables_number   1
_chemical_formula_structural   CoH18C18(NO3)2
_chemical_formula_sum   'Co2 H36 C36 N4 O12'
_cell_volume   1222.46805611
_cell_formula_units_Z   2
loop_
 _symmetry_equiv_pos_site_id
 _symmetry_equiv_pos_as_xyz
  1  'x, y, z'
loop_
 _atom_site_type_symbol
 _atom_site_label
 _atom_site_symmetry_multiplicity
 _atom_site_fract_x
 _atom_site_fract_y
 _atom_site_fract_z
 _atom_site_occupancy
 _atom_site_pbe_bader_charge
 _atom_site_pbe_bader_spin_density
 _atom_site_pbe_cm5_charge
 _atom_site_pbe_ddec_charge
 _atom_site_pbe_ddec_spin_density
 _atom_site_pbe_ddec_sum_bond_order
 _atom_site_pbe_magmom
Co  Co0  1  0.99999388  0.00002008  0.99999289  1  1.169098  1.011384  0.663164  0.783785  1.121233  2.79597  1.001
Co  Co1  1  0.49996655  0.99995590  0.50000096  1  1.168831  -1.011447  0.663232  0.783802  -1.121277  2.795927  -1.001
H  H2  1  0.81061200  0.83118041  0.86418884  1  0.125922  6e-06  0.120676  0.09588  -7.3e-05  1.005172  0.0
H  H3  1  0.68942307  0.16885933  0.36417140  1  0.125736  -7e-06  0.120644  0.095886  7.3e-05  1.005034  0.0
H  H4  1  0.18950342  0.16889079  0.13580597  1  0.124887  6e-06  0.120631  0.095843  -7.3e-05  1.004889  0.0
H  H5  1  0.31052857  0.83105489  0.63582925  1  0.125148  -6e-06  0.120604  0.095721  7.3e-05  1.004924  0.0
H  H6  1  0.79985867  0.83676737  0.70147279  1  0.076962  -2.8e-05  0.10815  0.114086  2.7e-05  0.989696  0.0
H  H7  1  0.70016789  0.16326870  0.20148634  1  0.076462  2.8e-05  0.108106  0.113915  -2.7e-05  0.990155  0.0
H  H8  1  0.20024422  0.16328573  0.29850775  1  0.076108  -2.8e-05  0.108027  0.113808  2.7e-05  0.990026  0.0
H  H9  1  0.29971359  0.83668739  0.79852469  1  0.075814  2.7e-05  0.108123  0.114078  -2.7e-05  0.990296  0.0
H  H10  1  0.98892011  0.03444690  0.62474663  1  0.123809  -0.000168  0.106786  0.105458  -6.1e-05  1.043981  0.0
H  H11  1  0.51111617  0.96565384  0.12473691  1  0.123775  0.000169  0.1068  0.105408  6.2e-05  1.044292  0.0
H  H12  1  0.01118766  0.96561848  0.37523587  1  0.123927  -0.000168  0.106805  0.10545  -6.1e-05  1.044295  0.0
H  H13  1  0.48874970  0.03433356  0.87525726  1  0.123699  0.000168  0.106719  0.105309  6.1e-05  1.044236  0.0
H  H14  1  0.18938469  0.21410340  0.71366929  1  0.065517  -5e-05  0.108091  0.112639  1.1e-05  0.989774  0.0
H  H15  1  0.31056301  0.78593980  0.21368260  1  0.065854  5e-05  0.108139  0.11263  -1.1e-05  0.989798  0.0
H  H16  1  0.81058659  0.78598138  0.28631904  1  0.066457  -5e-05  0.10819  0.112632  1.1e-05  0.989808  0.0
H  H17  1  0.68936799  0.21398971  0.78630573  1  0.066958  5e-05  0.108233  0.112619  -1.1e-05  0.989782  0.0
H  H18  1  0.18826872  0.19081440  0.87584936  1  0.121178  9e-06  0.12195  0.098412  -6.5e-05  0.996929  0.0
H  H19  1  0.31164650  0.80922665  0.37585054  1  0.121637  -9e-06  0.121906  0.098488  6.5e-05  0.996731  0.0
H  H20  1  0.81168237  0.80928008  0.12414870  1  0.122497  9e-06  0.121924  0.098571  -6.5e-05  0.996556  0.0
H  H21  1  0.68834558  0.19066166  0.62413260  1  0.122679  -9e-06  0.121944  0.098656  6.5e-05  0.996645  0.0
H  H22  1  0.22768145  0.38431332  0.03334018  1  0.06762  3.2e-05  0.104288  0.109171  4e-06  1.001871  0.0
H  H23  1  0.27230782  0.61565004  0.53337408  1  0.067981  -3.2e-05  0.104241  0.109254  -4e-06  1.001933  0.0
H  H24  1  0.77227467  0.61574674  0.96667150  1  0.066394  3.2e-05  0.104397  0.109387  4e-06  1.001669  0.0
H  H25  1  0.72772470  0.38424597  0.46665316  1  0.066331  -3.2e-05  0.104386  0.109358  -4e-06  1.001551  0.0
H  H26  1  0.66725846  0.37862639  0.97012270  1  0.108874  -3.1e-05  0.10283  0.105137  -6e-06  1.006192  0.0
H  H27  1  0.83273596  0.62136134  0.47012488  1  0.108773  3.1e-05  0.102827  0.105198  6e-06  1.00622  0.0
H  H28  1  0.33271852  0.62144922  0.02989027  1  0.108296  -3.1e-05  0.102835  0.105215  -6e-06  1.005738  0.0
H  H29  1  0.16732012  0.37855029  0.52992635  1  0.108357  3.1e-05  0.102767  0.105198  6e-06  1.005827  0.0
H  H30  1  0.67001201  0.01197202  0.99712129  1  0.620437  -0.00021  0.280037  0.356068  -0.000148  1.010533  0.0
H  H31  1  0.83008911  0.98804833  0.49715187  1  0.620287  0.000208  0.280063  0.356167  0.000146  1.010483  0.0
H  H32  1  0.32989692  0.98813058  0.00284045  1  0.620859  -0.00021  0.280274  0.356308  -0.000148  1.010126  0.0
H  H33  1  0.16996517  0.01188568  0.50284489  1  0.620317  0.000209  0.280144  0.356085  0.000147  1.010443  0.0
H  H34  1  0.55320132  0.86579273  0.99223391  1  0.639538  0.004954  0.294104  0.393255  0.002557  0.930587  0.006
H  H35  1  0.94688427  0.13424795  0.49225338  1  0.63915  -0.004963  0.293833  0.392876  -0.00256  0.931106  -0.006
H  H36  1  0.44686271  0.13428353  0.00769800  1  0.639808  0.004963  0.293836  0.392972  0.002564  0.931027  0.006
H  H37  1  0.05312251  0.86568749  0.50771744  1  0.638951  -0.004969  0.293705  0.392775  -0.002562  0.931305  -0.006
C  C38  1  0.89263562  0.91304266  0.82749290  1  0.440983  -0.007654  0.043385  0.074937  -0.004135  3.938513  -0.005
C  C39  1  0.60742938  0.08695673  0.32750282  1  0.4428  0.007644  0.043604  0.075215  0.00413  3.938148  0.005
C  C40  1  0.10746968  0.08700303  0.17249348  1  0.443421  -0.007639  0.043712  0.075536  -0.004128  3.937603  -0.005
C  C41  1  0.39251032  0.91297116  0.67249394  1  0.442848  0.007656  0.043842  0.076061  0.004137  3.937601  0.005
C  C42  1  0.88781149  0.91767275  0.73753631  1  -0.044097  0.001726  -0.085113  -0.13048  0.000869  3.992795  0.001
C  C43  1  0.61227742  0.08237367  0.23754555  1  -0.046532  -0.001724  -0.085237  -0.130415  -0.000868  3.992469  -0.001
C  C44  1  0.11231143  0.08238372  0.26244683  1  -0.045848  0.001721  -0.085208  -0.13042  0.000867  3.992599  0.001
C  C45  1  0.38761246  0.91757333  0.76245964  1  -0.047148  -0.001726  -0.085337  -0.131007  -0.000869  3.993009  -0.001
C  C46  1  0.99362295  0.02692946  0.69489417  1  0.007032  -0.009277  -0.069673  -0.025546  -0.00487  3.958663  -0.006
C  C47  1  0.50645399  0.97313453  0.19488183  1  0.01017  0.00927  -0.069657  -0.025451  0.004867  3.957981  0.006
C  C48  1  0.00648647  0.97314344  0.30510259  1  0.010383  -0.009259  -0.069583  -0.025352  -0.00486  3.958672  -0.006
C  C49  1  0.49343161  0.02681515  0.80510910  1  0.011062  0.009275  -0.069531  -0.025293  0.004869  3.958467  0.006
C  C50  1  0.10304252  0.12748929  0.74446112  1  -0.024851  0.001721  -0.08671  -0.135031  0.000849  3.998738  0.001
C  C51  1  0.39700644  0.87255350  0.24444364  1  -0.008258  -0.001734  -0.086683  -0.135052  -0.000848  3.998439  -0.001
C  C52  1  0.89701887  0.87259717  0.25554407  1  -0.008576  0.001733  -0.086745  -0.135295  0.000847  3.998729  0.001
C  C53  1  0.60290550  0.12738853  0.75554923  1  -0.007689  -0.001738  -0.086719  -0.134973  -0.000849  3.998505  -0.001
C  C54  1  0.10352418  0.11604321  0.83418178  1  0.438752  -0.007794  0.044937  0.080177  -0.004204  3.930931  -0.005
C  C55  1  0.39646968  0.88396474  0.33416735  1  0.421035  0.007804  0.044879  0.08003  0.004201  3.930127  0.005
C  C56  1  0.89651140  0.88402195  0.16582341  1  0.420621  -0.007795  0.045001  0.080322  -0.004197  3.930169  -0.005
C  C57  1  0.60346365  0.11596390  0.66583006  1  0.419734  0.007805  0.044911  0.079899  0.004202  3.929951  0.005
C  C58  1  0.87816444  0.22563206  0.00301298  1  1.468953  -0.004273  0.215187  0.561633  -0.002626  4.184745  -0.003
C  C59  1  0.62183340  0.77434823  0.50298518  1  1.46896  0.00428  0.215104  0.56161  0.002629  4.184305  0.003
C  C60  1  0.12179454  0.77443182  0.99697535  1  1.468678  -0.004283  0.215085  0.561429  -0.002632  4.184584  -0.003
C  C61  1  0.37821630  0.22556416  0.49702390  1  1.467667  0.004284  0.214985  0.561136  0.002633  4.185208  0.003
C  C62  1  0.94130479  0.36734087  0.00219003  1  0.05429  -0.002154  -0.019491  -0.03504  -0.001259  3.986295  -0.001
C  C63  1  0.55870679  0.63264359  0.50220450  1  0.054165  0.002154  -0.019545  -0.034977  0.001259  3.98651  0.001
C  C64  1  0.05864586  0.63272557  0.99781062  1  0.054896  -0.002149  -0.019167  -0.034291  -0.001257  3.98558  -0.001
C  C65  1  0.44135446  0.36727099  0.49784414  1  0.0552  0.002153  -0.019037  -0.034438  0.001259  3.985449  0.001
C  C66  1  0.12904003  0.43600008  0.01882187  1  0.089011  -0.000625  -0.089055  -0.099743  -0.000361  3.990971  0.0
C  C67  1  0.37099365  0.56399796  0.51887781  1  0.088805  0.000627  -0.088939  -0.099906  0.000362  3.991806  0.0
C  C68  1  0.87092269  0.56407326  0.98118786  1  0.089297  -0.000629  -0.089197  -0.100238  -0.000363  3.990989  0.0
C  C69  1  0.62908284  0.43591800  0.48119547  1  0.089047  0.000627  -0.089119  -0.099985  0.000362  3.990946  0.0
C  C70  1  0.81268142  0.43258051  0.98333352  1  -0.201861  -0.001409  -0.089383  -0.104802  -0.000705  4.000401  -0.001
C  C71  1  0.68733409  0.56739599  0.48336270  1  -0.202049  0.001411  -0.089402  -0.104937  0.000706  4.000777  0.001
C  C72  1  0.18728551  0.56749668  0.01664638  1  -0.202339  -0.001413  -0.089535  -0.105169  -0.000707  3.999985  -0.001
C  C73  1  0.31272522  0.43252041  0.51667362  1  -0.202112  0.001414  -0.089523  -0.104995  0.000707  4.000279  0.001
N  N74  1  0.99891377  0.01067444  0.87547667  1  -1.192463  -0.010218  -0.341175  -0.196896  -0.004842  3.636262  -0.007
N  N75  1  0.50110252  0.98933059  0.37547907  1  -1.193832  0.010221  -0.341188  -0.196981  0.004844  3.635426  0.007
N  N76  1  0.00111424  0.98937836  0.12452074  1  -1.194874  -0.010227  -0.341371  -0.197389  -0.004844  3.635605  -0.007
N  N77  1  0.49882735  0.01059608  0.62451834  1  -1.194285  0.01022  -0.341475  -0.197553  0.004842  3.63559  0.007
O  O78  1  0.70480576  0.16611104  0.99850719  1  -1.18549  -0.000377  -0.309359  -0.553124  -0.000105  2.244352  0.0
O  O79  1  0.79521290  0.83386670  0.49849339  1  -1.185567  0.000381  -0.309328  -0.553226  0.000107  2.243968  0.0
O  O80  1  0.29515975  0.83395584  0.00144548  1  -1.186363  -0.000385  -0.309456  -0.553366  -0.000108  2.244483  0.0
O  O81  1  0.20484197  0.16606546  0.50150402  1  -1.18614  0.000383  -0.30947  -0.553236  0.000108  2.244989  0.0
O  O82  1  0.01063593  0.17482471  0.00747111  1  -1.106787  -0.004816  -0.297196  -0.518505  -0.001661  2.493631  -0.004
O  O83  1  0.48941144  0.82519855  0.50747160  1  -1.106699  0.004812  -0.297244  -0.518535  0.00166  2.493926  0.004
O  O84  1  0.98934113  0.82526118  0.99254770  1  -1.106294  -0.004815  -0.297235  -0.518533  -0.001658  2.494328  -0.004
O  O85  1  0.51067743  0.17473178  0.49252191  1  -1.105464  0.004817  -0.297142  -0.51824  0.001659  2.493973  0.004
O  O86  1  0.67993495  0.92438210  0.00019393  1  -1.276919  0.036474  -0.594734  -0.799336  0.020342  2.131223  0.027
O  O87  1  0.82009396  0.07562538  0.50007446  1  -1.276291  -0.036419  -0.594604  -0.799245  -0.020311  2.130824  -0.027
O  O88  1  0.32003903  0.07573639  0.99987157  1  -1.27769  0.036438  -0.594882  -0.799449  0.02032  2.130755  0.027
O  O89  1  0.17991935  0.92429623  0.49991387  1  -1.276223  -0.036438  -0.594592  -0.799037  -0.020322  2.131107  -0.027
