# generated using pymatgen
data_CdH18C18(NO)4
_symmetry_space_group_name_H-M   'P 1'
_cell_length_a   11.97204640
_cell_length_b   12.51178849
_cell_length_c   13.94756232
_cell_angle_alpha   98.82570494
_cell_angle_beta   90.00080411
_cell_angle_gamma   89.99974061
_symmetry_Int_Tables_number   1
_chemical_formula_structural   CdH18C18(NO)4
_chemical_formula_sum   'Cd4 H72 C72 N16 O16'
_cell_volume   2064.49203107
_cell_formula_units_Z   4
loop_
 _symmetry_equiv_pos_site_id
 _symmetry_equiv_pos_as_xyz
  1  'x, y, z'
loop_
 _atom_site_type_symbol
 _atom_site_label
 _atom_site_symmetry_multiplicity
 _atom_site_fract_x
 _atom_site_fract_y
 _atom_site_fract_z
 _atom_site_occupancy
 _atom_site_pbe_bader_charge
 _atom_site_pbe_bader_spin_density
 _atom_site_pbe_cm5_charge
 _atom_site_pbe_ddec_charge
 _atom_site_pbe_ddec_spin_density
 _atom_site_pbe_ddec_sum_bond_order
 _atom_site_pbe_magmom
Cd  Cd0  1  0.95406154  0.46342653  0.12386495  1  1.275593  0  0.761528  0.871287  0  2.187899  0
Cd  Cd1  1  0.45405869  0.53657558  0.37614065  1  1.275502  0  0.761521  0.871296  0  2.18788  0
Cd  Cd2  1  0.04593790  0.53657193  0.87613483  1  1.275596  0  0.761552  0.871328  0  2.187853  0
Cd  Cd3  1  0.54594326  0.46342613  0.62386172  1  1.275546  0  0.761496  0.871231  0  2.187885  0
H  H4  1  0.68948784  0.49952047  0.14867065  1  0.13588  0  0.125731  0.108675  0  0.983934  0
H  H5  1  0.18948559  0.50048064  0.35133236  1  0.135927  0  0.125705  0.108649  0  0.983933  0
H  H6  1  0.31051494  0.50047556  0.85132809  1  0.135948  0  0.125736  0.108693  0  0.98388  0
H  H7  1  0.81051301  0.49952024  0.64866846  1  0.135913  0  0.125684  0.108602  0  0.983966  0
H  H8  1  0.54341564  0.64342634  0.15729248  1  0.175376  0  0.109232  0.1312  0  1.023455  0
H  H9  1  0.04341726  0.35657268  0.34270705  1  0.175412  0  0.109243  0.13122  0  1.023506  0
H  H10  1  0.45658463  0.35656969  0.84270554  1  0.175407  0  0.109212  0.131179  0  1.02343  0
H  H11  1  0.95658301  0.64342577  0.65729058  1  0.175451  0  0.109233  0.131168  0  1.023543  0
H  H12  1  0.60363880  0.83522785  0.15585770  1  0.071088  0  0.105831  0.101718  0  1.005984  0
H  H13  1  0.10363968  0.16477344  0.34414071  1  0.071098  0  0.10582  0.101703  0  1.006022  0
H  H14  1  0.39636064  0.16476818  0.84414247  1  0.071037  0  0.105794  0.101672  0  1.005957  0
H  H15  1  0.89636059  0.83522744  0.65585940  1  0.071087  0  0.105829  0.101701  0  1.005996  0
H  H16  1  0.94398252  0.72058447  0.13162195  1  0.120657  0  0.116418  0.083727  0  1.037886  0
H  H17  1  0.44398409  0.27941680  0.36837481  1  0.12068  0  0.116386  0.083707  0  1.037815  0
H  H18  1  0.05601608  0.27941721  0.86837611  1  0.12064  0  0.116414  0.083728  0  1.037875  0
H  H19  1  0.55601618  0.72058245  0.63162292  1  0.120663  0  0.116383  0.083686  0  1.037916  0
H  H20  1  0.78158590  0.07416678  0.15083389  1  0.12779  0  0.101762  0.147362  0  1.04122  0
H  H21  1  0.28158745  0.92583408  0.34916230  1  0.127923  0  0.101771  0.147354  0  1.041229  0
H  H22  1  0.21841270  0.92583330  0.84916538  1  0.127911  0  0.101761  0.147338  0  1.04123  0
H  H23  1  0.71841366  0.07416519  0.65083759  1  0.127901  0  0.101781  0.147405  0  1.041251  0
H  H24  1  0.67974444  0.99789498  0.20541662  1  0.051653  0  0.096927  0.143629  0  1.00358  0
H  H25  1  0.17974193  0.00210451  0.29458032  1  0.051574  0  0.096941  0.143638  0  1.003533  0
H  H26  1  0.32025500  0.00210590  0.79458277  1  0.051658  0  0.096916  0.143586  0  1.003624  0
H  H27  1  0.82025583  0.99789476  0.70541885  1  0.051618  0  0.096921  0.143615  0  1.003605  0
H  H28  1  0.68938339  0.98316947  0.07799720  1  0.04179  0  0.096521  0.139813  0  0.994353  0
H  H29  1  0.18938624  0.01683079  0.42199852  1  0.041938  0  0.096544  0.139843  0  0.994338  0
H  H30  1  0.31061605  0.01683140  0.92200075  1  0.041832  0  0.096517  0.139812  0  0.994339  0
H  H31  1  0.81061320  0.98317009  0.57800159  1  0.041939  0  0.096546  0.139841  0  0.994346  0
H  H32  1  0.09921571  0.85116897  0.09304666  1  0.104343  0  0.10284  0.150521  0  1.029639  0
H  H33  1  0.59921632  0.14883073  0.40695292  1  0.10435  0  0.10285  0.150541  0  1.029592  0
H  H34  1  0.90078540  0.14882949  0.90695312  1  0.104338  0  0.102827  0.150511  0  1.029669  0
H  H35  1  0.40078061  0.85117097  0.59304801  1  0.104331  0  0.102836  0.150545  0  1.029684  0
H  H36  1  0.22397302  0.92864501  0.11824426  1  0.036637  0  0.097287  0.139672  0  1.007484  0
H  H37  1  0.72397275  0.07135359  0.38175667  1  0.036645  0  0.097287  0.139665  0  1.007473  0
H  H38  1  0.77602809  0.07135346  0.88175696  1  0.036642  0  0.097282  0.139663  0  1.007551  0
H  H39  1  0.27602585  0.92864649  0.61824332  1  0.036604  0  0.097269  0.139647  0  1.007524  0
H  H40  1  0.16190668  0.91652525  0.00197107  1  0.075605  0  0.102254  0.154836  0  1.013403  0
H  H41  1  0.66190910  0.08347511  0.49803007  1  0.075574  0  0.102234  0.154807  0  1.013391  0
H  H42  1  0.83809443  0.08347321  0.99802943  1  0.075607  0  0.102242  0.154807  0  1.013412  0
H  H43  1  0.33809118  0.91652578  0.50197219  1  0.075614  0  0.102248  0.154847  0  1.013371  0
H  H44  1  0.29667681  0.08153154  0.11074314  1  0.06052  0  0.108519  0.104009  0  0.994888  0
H  H45  1  0.79667852  0.91846690  0.38926079  1  0.060655  0  0.108588  0.104131  0  0.994884  0
H  H46  1  0.70332263  0.91846854  0.88925685  1  0.06052  0  0.108541  0.104074  0  0.994859  0
H  H47  1  0.20332343  0.08154126  0.61073956  1  0.060741  0  0.108504  0.10401  0  0.994978  0
H  H48  1  0.36735268  0.26981300  0.11164954  1  0.092494  0  0.118484  0.130289  0  0.963214  0
H  H49  1  0.86735359  0.73018526  0.38835163  1  0.092459  0  0.118488  0.130272  0  0.963175  0
H  H50  1  0.63264676  0.73018789  0.88835056  1  0.092475  0  0.118476  0.130269  0  0.963225  0
H  H51  1  0.13265420  0.26982371  0.61164883  1  0.092541  0  0.118515  0.130253  0  0.963174  0
H  H52  1  0.23000657  0.42022731  0.11472962  1  0.09273  0  0.121287  0.094834  0  1.004554  0
H  H53  1  0.73000814  0.57977128  0.38527282  1  0.092688  0  0.121271  0.09478  0  1.004603  0
H  H54  1  0.76999036  0.57977277  0.88527109  1  0.093063  0  0.12129  0.09482  0  1.004564  0
H  H55  1  0.27000215  0.42023365  0.61472783  1  0.092842  0  0.121296  0.094886  0  1.0045  0
H  H56  1  0.96189022  0.20960984  0.10450900  1  0.147021  0  0.117211  0.090954  0  1.059451  0
H  H57  1  0.46189149  0.79038979  0.39548991  1  0.146606  0  0.117208  0.090963  0  1.059444  0
H  H58  1  0.03810838  0.79038943  0.89549017  1  0.146631  0  0.117223  0.090973  0  1.059444  0
H  H59  1  0.53811379  0.20960786  0.60450976  1  0.14691  0  0.117197  0.090942  0  1.059451  0
H  H60  1  0.85050080  0.20918343  0.31564996  1  0.019763  0  0.09411  0.102957  0  0.97916  0
H  H61  1  0.35049110  0.79081326  0.18435367  1  0.019939  0  0.094044  0.102906  0  0.979362  0
H  H62  1  0.14949614  0.79081504  0.68435269  1  0.019781  0  0.094099  0.102957  0  0.979183  0
H  H63  1  0.64950917  0.20918277  0.81564507  1  0.019931  0  0.094052  0.102903  0  0.979305  0
H  H64  1  0.71634116  0.21689955  0.26265380  1  0.070277  0  0.094884  0.108684  0  0.997341  0
H  H65  1  0.21633237  0.78308852  0.23734062  1  0.070347  0  0.094922  0.108693  0  0.997535  0
H  H66  1  0.28365494  0.78309893  0.73734957  1  0.070242  0  0.094895  0.108724  0  0.997273  0
H  H67  1  0.78366791  0.21690913  0.76265833  1  0.070346  0  0.094926  0.108708  0  0.997484  0
H  H68  1  0.72489164  0.27981150  0.45209635  1  0.081728  0  0.099556  0.127552  0  0.999353  0
H  H69  1  0.22489341  0.72018705  0.04789670  1  0.081744  0  0.099605  0.127684  0  0.999178  0
H  H70  1  0.27510529  0.72019021  0.54790602  1  0.081786  0  0.099552  0.127554  0  0.999356  0
H  H71  1  0.77510770  0.27980817  0.95210265  1  0.081721  0  0.099601  0.127663  0  0.999226  0
H  H72  1  0.80615714  0.38827102  0.42582397  1  0.076623  0  0.104417  0.126887  0  0.974646  0
H  H73  1  0.30616069  0.61172734  0.07416859  1  0.076585  0  0.104392  0.126888  0  0.974528  0
H  H74  1  0.19384146  0.61172906  0.57417530  1  0.076628  0  0.104422  0.126908  0  0.97462  0
H  H75  1  0.69383958  0.38826708  0.92583137  1  0.076609  0  0.104384  0.126857  0  0.974547  0
C  C76  1  0.71189816  0.58350406  0.14552432  1  0.461143  0  0.056214  0.100321  0  3.901974  0
C  C77  1  0.21189468  0.41649457  0.35447719  1  0.461054  0  0.056213  0.100329  0  3.902091  0
C  C78  1  0.28809961  0.41649277  0.85447381  1  0.460445  0  0.056218  0.100303  0  3.902068  0
C  C79  1  0.78810309  0.58350469  0.64552126  1  0.461095  0  0.056206  0.100324  0  3.902004  0
C  C80  1  0.63126183  0.66448057  0.15045032  1  -0.031994  0  -0.082941  -0.121583  0  3.954499  0
C  C81  1  0.13126116  0.33551824  0.34954953  1  -0.032074  0  -0.082968  -0.121638  0  3.954757  0
C  C82  1  0.36873760  0.33551546  0.84954842  1  -0.031208  0  -0.08295  -0.121638  0  3.954509  0
C  C83  1  0.86873827  0.66448183  0.65044975  1  -0.032024  0  -0.082925  -0.121552  0  3.954704  0
C  C84  1  0.66568928  0.77085166  0.15050554  1  -0.088677  0  -0.070714  -0.079462  0  3.959044  0
C  C85  1  0.16568744  0.22914869  0.34949564  1  -0.088732  0  -0.070693  -0.079427  0  3.959123  0
C  C86  1  0.33431016  0.22914599  0.84949485  1  -0.088723  0  -0.070641  -0.07935  0  3.958988  0
C  C87  1  0.83431116  0.77085138  0.65050364  1  -0.088756  0  -0.070687  -0.079411  0  3.95909  0
C  C88  1  0.78003973  0.79479095  0.14569448  1  0.012688  0  -0.010446  -0.037952  0  3.996382  0
C  C89  1  0.28004059  0.20521072  0.35430252  1  0.01274  0  -0.010429  -0.037959  0  3.996354  0
C  C90  1  0.21995887  0.20520831  0.85430397  1  0.013049  0  -0.010419  -0.037909  0  3.996328  0
C  C91  1  0.71995969  0.79478854  0.64569594  1  0.012794  0  -0.010454  -0.037968  0  3.996302  0
C  C92  1  0.85468292  0.70706938  0.13831234  1  0.501891  0  0.055957  0.07085  0  3.912101  0
C  C93  1  0.35468181  0.29293132  0.36168758  1  0.501812  0  0.055985  0.070836  0  3.911971  0
C  C94  1  0.14531652  0.29292827  0.86168661  1  0.501504  0  0.055889  0.070775  0  3.912095  0
C  C95  1  0.64531679  0.70706874  0.63830955  1  0.501763  0  0.055984  0.070826  0  3.912065  0
C  C96  1  0.82184185  0.90598047  0.14600661  1  0.657675  0  0.142747  0.257609  0  3.941509  0
C  C97  1  0.32184155  0.09401951  0.35399353  1  0.657684  0  0.142761  0.257714  0  3.941376  0
C  C98  1  0.17815676  0.09401881  0.85399471  1  0.657654  0  0.142763  0.25766  0  3.941487  0
C  C99  1  0.67815705  0.90598138  0.64600585  1  0.657756  0  0.142775  0.257711  0  3.941297  0
C  C100  1  0.73928013  0.99596101  0.14505180  1  -0.131507  0  -0.238321  -0.458685  0  3.931377  0
C  C101  1  0.23928112  0.00403914  0.35494451  1  -0.131686  0  -0.238345  -0.458727  0  3.931351  0
C  C102  1  0.26071763  0.00403987  0.85494759  1  -0.131651  0  -0.238261  -0.458592  0  3.931398  0
C  C103  1  0.76071916  0.99596498  0.64505531  1  -0.131745  0  -0.238343  -0.458749  0  3.931399  0
C  C104  1  0.07391138  0.02174365  0.11291429  1  0.590883  0  0.143124  0.260592  0  3.932851  0
C  C105  1  0.57391110  0.97825693  0.38708797  1  0.59031  0  0.143045  0.260451  0  3.932793  0
C  C106  1  0.92608806  0.97825481  0.88708549  1  0.590351  0  0.143161  0.260616  0  3.932711  0
C  C107  1  0.42608834  0.02174397  0.61291501  1  0.590375  0  0.143099  0.260512  0  3.93261  0
C  C108  1  0.14352281  0.92376179  0.07986221  1  -0.072492  0  -0.240515  -0.46973  0  3.932254  0
C  C109  1  0.64352482  0.07623861  0.42013800  1  -0.072467  0  -0.240472  -0.469642  0  3.932143  0
C  C110  1  0.85647663  0.07623909  0.92013718  1  -0.072494  0  -0.240494  -0.469675  0  3.932306  0
C  C111  1  0.35647378  0.92376148  0.57986343  1  -0.072467  0  -0.240496  -0.469721  0  3.932282  0
C  C112  1  0.12238485  0.12959565  0.11018876  1  -0.02378  0  -0.007779  -0.026151  0  3.976714  0
C  C113  1  0.62238596  0.87040318  0.38981098  1  -0.02383  0  -0.007765  -0.026057  0  3.976562  0
C  C114  1  0.87761291  0.87040281  0.88981030  1  -0.023694  0  -0.007773  -0.026096  0  3.976556  0
C  C115  1  0.37761515  0.12959851  0.61018995  1  -0.023817  0  -0.007784  -0.026037  0  3.976521  0
C  C116  1  0.23806929  0.14794262  0.10936038  1  -0.03957  0  -0.068122  -0.074628  0  3.952594  0
C  C117  1  0.73807300  0.85205594  0.39064143  1  -0.03972  0  -0.068191  -0.074826  0  3.952749  0
C  C118  1  0.76192681  0.85205826  0.89063900  1  -0.039592  0  -0.068152  -0.07474  0  3.952619  0
C  C119  1  0.26192978  0.14794900  0.60936065  1  -0.03974  0  -0.068144  -0.074846  0  3.952662  0
C  C120  1  0.27810481  0.25259344  0.11009248  1  -0.009069  0  -0.079909  -0.125941  0  3.984914  0
C  C121  1  0.77810650  0.74740584  0.38990848  1  -0.009111  0  -0.07993  -0.125935  0  3.985136  0
C  C122  1  0.72189380  0.74740826  0.88990773  1  -0.008975  0  -0.079897  -0.125921  0  3.985151  0
C  C123  1  0.22190046  0.25259992  0.61009442  1  -0.008624  0  -0.079811  -0.125636  0  3.984591  0
C  C124  1  0.20196141  0.33688186  0.11111386  1  0.500654  0  0.055417  0.102443  0  3.92858  0
C  C125  1  0.70196515  0.66311760  0.38888692  1  0.500591  0  0.055411  0.102502  0  3.928674  0
C  C126  1  0.79803385  0.66311983  0.88888635  1  0.500075  0  0.055364  0.102454  0  3.928752  0
C  C127  1  0.29804515  0.33688652  0.61111290  1  0.499558  0  0.055334  0.102277  0  3.928426  0
C  C128  1  0.05238405  0.21925265  0.10725646  1  0.524416  0  0.057739  0.066927  0  3.883409  0
C  C129  1  0.55238647  0.78074635  0.39274389  1  0.524963  0  0.057757  0.066919  0  3.883427  0
C  C130  1  0.94761371  0.78074661  0.89274199  1  0.524822  0  0.057744  0.066916  0  3.883443  0
C  C131  1  0.44761965  0.21925292  0.60725600  1  0.524277  0  0.057715  0.066888  0  3.883384  0
C  C132  1  0.83347099  0.33676473  0.23310757  1  1.555414  0  0.187047  0.611089  0  4.182829  0
C  C133  1  0.33346742  0.66323035  0.26688990  1  1.555046  0  0.187088  0.611134  0  4.182626  0
C  C134  1  0.16652344  0.66323372  0.76689149  1  1.554959  0  0.187122  0.611174  0  4.182558  0
C  C135  1  0.66653369  0.33676893  0.73311142  1  1.555037  0  0.187065  0.611141  0  4.182638  0
C  C136  1  0.78365901  0.26526171  0.30094641  1  -0.035786  0  -0.168503  -0.268283  0  3.966457  0
C  C137  1  0.28365065  0.73473348  0.19904833  1  -0.036366  0  -0.168449  -0.268151  0  3.966724  0
C  C138  1  0.21633876  0.73473596  0.69905613  1  -0.0358  0  -0.168471  -0.26828  0  3.966421  0
C  C139  1  0.71634879  0.26526498  0.80095145  1  -0.036409  0  -0.168485  -0.268198  0  3.96659  0
C  C140  1  0.74175785  0.32970676  0.39559405  1  -0.066423  0  -0.169158  -0.287069  0  3.942846  0
C  C141  1  0.24175577  0.67029337  0.10440013  1  -0.066663  0  -0.169185  -0.28727  0  3.942838  0
C  C142  1  0.25824242  0.67029252  0.60440799  1  -0.066438  0  -0.169127  -0.287096  0  3.942987  0
C  C143  1  0.75824367  0.32970590  0.89560120  1  -0.066672  0  -0.169178  -0.287204  0  3.942793  0
C  C144  1  0.63801341  0.39418582  0.38015079  1  1.530241  0  0.193491  0.612514  0  4.163031  0
C  C145  1  0.13801689  0.60580968  0.11983866  1  1.530566  0  0.193526  0.612531  0  4.163363  0
C  C146  1  0.36198520  0.60581669  0.61985096  1  1.530128  0  0.193499  0.612495  0  4.162992  0
C  C147  1  0.86198338  0.39418958  0.88016123  1  1.530563  0  0.193496  0.612519  0  4.163328  0
N  N148  1  0.82172221  0.60502390  0.13840310  1  -1.243683  0  -0.322588  -0.234069  0  3.513883  0
N  N149  1  0.32172062  0.39497849  0.36159664  1  -1.243525  0  -0.322572  -0.234042  0  3.513782  0
N  N150  1  0.17827722  0.39497455  0.86159452  1  -1.243693  0  -0.322565  -0.234046  0  3.513962  0
N  N151  1  0.67827798  0.60502320  0.63840285  1  -1.243557  0  -0.322557  -0.233955  0  3.51376  0
N  N152  1  0.93011320  0.91692798  0.14559809  1  -0.754952  0  -0.211842  -0.214514  0  3.346215  0
N  N153  1  0.43011296  0.08307172  0.35440117  1  -0.754947  0  -0.211871  -0.21459  0  3.34624  0
N  N154  1  0.06988707  0.08306965  0.85439943  1  -0.754935  0  -0.211937  -0.214645  0  3.346364  0
N  N155  1  0.56988564  0.91692755  0.64559872  1  -0.754992  0  -0.211888  -0.214626  0  3.346252  0
N  N156  1  0.97091618  0.01910920  0.14397707  1  -0.757664  0  -0.213395  -0.223803  0  3.31161  0
N  N157  1  0.47091508  0.98088959  0.35602112  1  -0.757096  0  -0.213356  -0.223737  0  3.311545  0
N  N158  1  0.02908326  0.98088843  0.85601973  1  -0.757146  0  -0.213385  -0.22379  0  3.311623  0
N  N159  1  0.52908520  0.01911049  0.64397959  1  -0.75711  0  -0.213361  -0.223734  0  3.311447  0
N  N160  1  0.09087933  0.31984320  0.10833540  1  -1.234336  0  -0.316852  -0.229456  0  3.481722  0
N  N161  1  0.59088137  0.68015571  0.39166541  1  -1.234262  0  -0.316841  -0.229474  0  3.481703  0
N  N162  1  0.90911676  0.68015687  0.89166388  1  -1.234246  0  -0.316829  -0.229485  0  3.481811  0
N  N163  1  0.40912809  0.31984597  0.60833337  1  -1.233618  0  -0.316824  -0.229423  0  3.481554  0
O  O164  1  0.89508297  0.41585365  0.27146854  1  -1.174069  0  -0.344645  -0.57528  0  2.177104  0
O  O165  1  0.39508583  0.58414371  0.22852998  1  -1.173568  0  -0.344742  -0.575338  0  2.177165  0
O  O166  1  0.10491229  0.58414479  0.72852837  1  -1.173676  0  -0.344728  -0.575301  0  2.177096  0
O  O167  1  0.60491611  0.41585557  0.77147206  1  -1.173582  0  -0.344717  -0.575307  0  2.177108  0
O  O168  1  0.81815044  0.31351504  0.14216537  1  -1.173578  0  -0.345659  -0.580443  0  2.141072  0
O  O169  1  0.31814575  0.68647443  0.35783260  1  -1.173589  0  -0.345612  -0.580452  0  2.141019  0
O  O170  1  0.18184398  0.68647534  0.85783476  1  -1.173498  0  -0.345677  -0.580508  0  2.140895  0
O  O171  1  0.68185620  0.31352728  0.64216904  1  -1.173509  0  -0.345578  -0.580442  0  2.141055  0
O  O172  1  0.61150343  0.41296706  0.29676981  1  -1.166923  0  -0.325533  -0.543696  0  2.106331  0
O  O173  1  0.11152006  0.58701313  0.20321512  1  -1.166598  0  -0.325543  -0.543777  0  2.106783  0
O  O174  1  0.38849518  0.58703787  0.70323155  1  -1.166924  0  -0.325565  -0.543683  0  2.10635  0
O  O175  1  0.88847938  0.41298533  0.79678466  1  -1.166578  0  -0.325502  -0.543781  0  2.106814  0
O  O176  1  0.57884276  0.43129102  0.45516786  1  -1.188174  0  -0.349622  -0.590223  0  2.385765  0
O  O177  1  0.07882682  0.56872487  0.04482789  1  -1.188257  0  -0.349644  -0.590119  0  2.385653  0
O  O178  1  0.42115584  0.56871150  0.54483532  1  -1.18795  0  -0.349612  -0.590201  0  2.385555  0
O  O179  1  0.92117095  0.43127440  0.95517343  1  -1.188226  0  -0.349663  -0.590128  0  2.385652  0
