# generated using pymatgen
data_ZnH14C22NO4
_symmetry_space_group_name_H-M   'P 1'
_cell_length_a   9.39214683
_cell_length_b   10.35139315
_cell_length_c   11.01323335
_cell_angle_alpha   90.29175319
_cell_angle_beta   103.89097057
_cell_angle_gamma   99.98726872
_symmetry_Int_Tables_number   1
_chemical_formula_structural   ZnH14C22NO4
_chemical_formula_sum   'Zn2 H28 C44 N2 O8'
_cell_volume   1022.43792579
_cell_formula_units_Z   2
loop_
 _symmetry_equiv_pos_site_id
 _symmetry_equiv_pos_as_xyz
  1  'x, y, z'
loop_
 _atom_site_type_symbol
 _atom_site_label
 _atom_site_symmetry_multiplicity
 _atom_site_fract_x
 _atom_site_fract_y
 _atom_site_fract_z
 _atom_site_occupancy
 _atom_site_hle17_bader_spin_density
 _atom_site_hle17_ddec_charge
 _atom_site_hle17_ddec_spin_density
 _atom_site_hle17_ddec_sum_bond_order
 _atom_site_hle17_magmom
 _atom_site_hse06_10hf_bader_spin_density
 _atom_site_hse06_10hf_ddec_charge
 _atom_site_hse06_10hf_ddec_spin_density
 _atom_site_hse06_10hf_ddec_sum_bond_order
 _atom_site_hse06_10hf_magmom
 _atom_site_hse06_bader_spin_density
 _atom_site_hse06_ddec_charge
 _atom_site_hse06_ddec_spin_density
 _atom_site_hse06_ddec_sum_bond_order
 _atom_site_hse06_magmom
 _atom_site_pbe_bader_spin_density
 _atom_site_pbe_cm5_charge
 _atom_site_pbe_ddec_charge
 _atom_site_pbe_ddec_spin_density
 _atom_site_pbe_ddec_sum_bond_order
 _atom_site_pbe_magmom
Zn  Zn0  1  0.40198620  0.40420872  0.55259696  1  0  1.045606  0  1.868529  0  0  0.875026  0  2.338753  0  0  0.9272  0  2.27346  0  0  0.676088  0.838858  0  2.383108  0
Zn  Zn1  1  0.59801039  0.59579186  0.44740121  1  0  1.045608  0  1.868512  0  0  0.875037  0  2.338716  0  0  0.927209  0  2.273425  0  0  0.676097  0.838867  0  2.383068  0
H  H2  1  0.19580570  0.44938978  0.70298581  1  0  0.090098  0  0.927034  0  0  0.099716  0  0.986651  0  0  0.102244  0  0.984388  0  0  0.12429  0.097577  0  0.988722  0
H  H3  1  0.80419323  0.55061080  0.29701733  1  0  0.090093  0  0.927048  0  0  0.099711  0  0.986661  0  0  0.10224  0  0.984395  0  0  0.124286  0.097571  0  0.988732  0
H  H4  1  0.90647867  0.79667892  0.57766199  1  0  0.100966  0  0.971758  0  0  0.11091  0  1.03488  0  0  0.114233  0  1.032781  0  0  0.100353  0.108387  0  1.036663  0
H  H5  1  0.09352184  0.20332463  0.42233876  1  0  0.100931  0  0.971698  0  0  0.110883  0  1.034821  0  0  0.114206  0  1.032723  0  0  0.100331  0.108364  0  1.036607  0
H  H6  1  0.04264048  0.62177990  0.55206731  1  0  0.105202  0  0.947247  0  0  0.112961  0  1.011783  0  0  0.116912  0  1.008467  0  0  0.103138  0.110471  0  1.01342  0
H  H7  1  0.95735968  0.37822168  0.44793426  1  0  0.105216  0  0.947235  0  0  0.11296  0  1.011783  0  0  0.11691  0  1.008469  0  0  0.103129  0.110473  0  1.013419  0
H  H8  1  0.39183818  0.13266028  0.64818030  1  0  0.085665  0  0.926834  0  0  0.095836  0  0.987462  0  0  0.098104  0  0.985558  0  0  0.12125  0.093999  0  0.989283  0
H  H9  1  0.60816064  0.86734031  0.35181919  1  0  0.085667  0  0.926829  0  0  0.095844  0  0.987454  0  0  0.098113  0  0.985549  0  0  0.121252  0.094007  0  0.989277  0
H  H10  1  0.05785645  0.32678100  0.84712694  1  0  0.107357  0  0.935694  0  0  0.12045  0  0.987925  0  0  0.123424  0  0.987623  0  0  0.111764  0.118315  0  0.988319  0
H  H11  1  0.94214429  0.67321763  0.15287652  1  0  0.107335  0  0.935685  0  0  0.120446  0  0.987901  0  0  0.12342  0  0.9876  0  0  0.111805  0.11831  0  0.988295  0
H  H12  1  0.35165038  0.90775845  0.13508863  1  0  0.0883  0  0.962112  0  0  0.100494  0  1.020792  0  0  0.103636  0  1.01926  0  0  0.100761  0.098322  0  1.021872  0
H  H13  1  0.64835256  0.09224021  0.86491523  1  0  0.088257  0  0.962134  0  0  0.100487  0  1.020775  0  0  0.103627  0  1.019246  0  0  0.100767  0.098314  0  1.021857  0
H  H14  1  0.04527772  0.88661565  0.81713164  1  0  0.097247  0  0.948101  0  0  0.109945  0  1.005806  0  0  0.112548  0  1.005135  0  0  0.105544  0.108149  0  1.005971  0
H  H15  1  0.95472667  0.11338498  0.18287161  1  0  0.097277  0  0.947986  0  0  0.109883  0  1.005797  0  0  0.112481  0  1.005124  0  0  0.105549  0.108085  0  1.005959  0
H  H16  1  0.08113621  0.24095953  0.03874172  1  0  0.094669  0  0.941527  0  0  0.107989  0  0.995172  0  0  0.110758  0  0.994248  0  0  0.106033  0.105814  0  0.996175  0
H  H17  1  0.91886724  0.75904208  0.96126045  1  0  0.094661  0  0.941562  0  0  0.108013  0  0.995171  0  0  0.110784  0  0.994241  0  0  0.106036  0.105836  0  0.996173  0
H  H18  1  0.26255954  0.99575610  0.78788710  1  0  0.107175  0  0.957303  0  0  0.118152  0  1.016442  0  0  0.120496  0  1.017393  0  0  0.109134  0.116593  0  1.015609  0
H  H19  1  0.73744134  0.00424352  0.21211458  1  0  0.107195  0  0.957329  0  0  0.118188  0  1.016447  0  0  0.120525  0  1.017394  0  0  0.109145  0.116599  0  1.015647  0
H  H20  1  0.33953232  0.88709314  0.38776836  1  0  0.096402  0  0.95891  0  0  0.106064  0  1.02152  0  0  0.109498  0  1.018883  0  0  0.100063  0.103258  0  1.024141  0
H  H21  1  0.66046463  0.11290941  0.61222899  1  0  0.096466  0  0.958963  0  0  0.106112  0  1.021579  0  0  0.109545  0  1.018944  0  0  0.100111  0.103312  0  1.024201  0
H  H22  1  0.30980232  0.07009010  0.27880826  1  0  0.090819  0  0.994174  0  0  0.100336  0  1.060246  0  0  0.102803  0  1.058982  0  0  0.100788  0.098555  0  1.061138  0
H  H23  1  0.69020344  0.92991252  0.72119163  1  0  0.090797  0  0.99419  0  0  0.100327  0  1.060254  0  0  0.102798  0  1.058984  0  0  0.100783  0.098534  0  1.061159  0
H  H24  1  0.20256369  0.06570029  0.41011464  1  0  0.093989  0  0.994854  0  0  0.102146  0  1.062458  0  0  0.105912  0  1.059429  0  0  0.098293  0.099011  0  1.065496  0
H  H25  1  0.79743439  0.93430226  0.58988383  1  0  0.093988  0  0.994802  0  0  0.102117  0  1.062445  0  0  0.105883  0  1.059417  0  0  0.098282  0.098983  0  1.065478  0
H  H26  1  0.56626965  0.37886291  0.12326609  1  0  0.101029  0  0.944476  0  0  0.110432  0  1.003897  0  0  0.114289  0  1.001017  0  0  0.102919  0.107583  0  1.006186  0
H  H27  1  0.43373206  0.62113676  0.87672666  1  0  0.101003  0  0.944566  0  0  0.110463  0  1.003926  0  0  0.114318  0  1.001046  0  0  0.102918  0.107615  0  1.006216  0
H  H28  1  0.60856718  0.21936426  0.97525283  1  0  0.090415  0  0.958553  0  0  0.104139  0  1.013221  0  0  0.107236  0  1.011722  0  0  0.101056  0.102249  0  1.013534  0
H  H29  1  0.39142616  0.78063140  0.02474106  1  0  0.090447  0  0.95851  0  0  0.104165  0  1.01318  0  0  0.107269  0  1.011678  0  0  0.101052  0.102274  0  1.013494  0
C  C30  1  0.28988852  0.63867781  0.45718757  1  0  0.659372  0  3.895587  0  0  0.610272  0  4.18229  0  0  0.646009  0  4.17486  0  0  0.209152  0.586005  0  4.18652  0
C  C31  1  0.71011008  0.36132180  0.54281096  1  0  0.659387  0  3.895584  0  0  0.610297  0  4.182273  0  0  0.646036  0  4.17484  0  0  0.209113  0.586032  0  4.186502  0
C  C32  1  0.20822937  0.34919837  0.72683172  1  0  0.142148  0  3.699158  0  0  0.109097  0  3.952034  0  0  0.116603  0  3.970662  0  0  0.054019  0.104136  0  3.940034  0
C  C33  1  0.79176929  0.65080123  0.27316864  1  0  0.142123  0  3.699049  0  0  0.109081  0  3.951921  0  0  0.116585  0  3.97055  0  0  0.054015  0.104117  0  3.939924  0
C  C34  1  0.00114271  0.81981297  0.53559226  1  0  -0.118273  0  3.717054  0  0  -0.137706  0  3.968677  0  0  -0.141623  0  3.989527  0  0  -0.091477  -0.135126  0  3.954313  0
C  C35  1  0.99885451  0.18019054  0.46440788  1  0  -0.118217  0  3.717111  0  0  -0.137662  0  3.968726  0  0  -0.141576  0  3.989572  0  0  -0.091429  -0.135088  0  3.95437  0
C  C36  1  0.04146759  0.94655767  0.49406428  1  0  0.053362  0  3.771709  0  0  0.066591  0  4.00549  0  0  0.068023  0  4.029544  0  0  -0.007945  0.065778  0  3.988557  0
C  C37  1  0.95853570  0.05344295  0.50593876  1  0  0.053345  0  3.771745  0  0  0.066584  0  4.00551  0  0  0.068018  0  4.029565  0  0  -0.007953  0.065771  0  3.988578  0
C  C38  1  0.07826607  0.71951875  0.52163351  1  0  -0.065725  0  3.740429  0  0  -0.089741  0  3.991329  0  0  -0.088748  0  4.010992  0  0  -0.08654  -0.090138  0  3.977342  0
C  C39  1  0.92173500  0.28048185  0.47836822  1  0  -0.065809  0  3.740545  0  0  -0.089819  0  3.99144  0  0  -0.088826  0  4.011108  0  0  -0.086581  -0.090218  0  3.977458  0
C  C40  1  0.19993146  0.74250206  0.46700996  1  0  -0.072192  0  3.771562  0  0  -0.049237  0  4.002871  0  0  -0.058611  0  4.027611  0  0  -0.023695  -0.042774  0  3.985903  0
C  C41  1  0.80006573  0.25750146  0.53298927  1  0  -0.072162  0  3.771493  0  0  -0.049174  0  4.002744  0  0  -0.058552  0  4.027486  0  0  -0.023651  -0.042711  0  3.985779  0
C  C42  1  0.31667535  0.17134312  0.69448767  1  0  0.144041  0  3.688945  0  0  0.110684  0  3.94317  0  0  0.118344  0  3.961329  0  0  0.057068  0.105657  0  3.931226  0
C  C43  1  0.68332663  0.82865651  0.30551420  1  0  0.144049  0  3.6889  0  0  0.110691  0  3.943122  0  0  0.118353  0  3.96128  0  0  0.057083  0.105661  0  3.931172  0
C  C44  1  0.48574085  0.04875188  0.04305174  1  0  0.04956  0  3.776642  0  0  0.062039  0  4.014938  0  0  0.063938  0  4.037439  0  0  -0.006454  0.060875  0  3.999408  0
C  C45  1  0.51425573  0.95124281  0.95694727  1  0  0.049677  0  3.776588  0  0  0.062109  0  4.014913  0  0  0.064009  0  4.03742  0  0  -0.006394  0.060942  0  3.999388  0
C  C46  1  0.07176938  0.07349991  0.91674523  1  0  0.045163  0  3.770143  0  0  0.059306  0  4.003999  0  0  0.057951  0  4.028412  0  0  -0.003505  0.060577  0  3.987442  0
C  C47  1  0.92823482  0.92649973  0.08325797  1  0  0.045132  0  3.770242  0  0  0.059357  0  4.003996  0  0  0.058001  0  4.02841  0  0  -0.003504  0.060624  0  3.987429  0
C  C48  1  0.14907752  0.14984817  0.83147192  1  0  0.112715  0  3.750382  0  0  0.122147  0  3.984037  0  0  0.127597  0  4.00632  0  0  0.020409  0.118642  0  3.969464  0
C  C49  1  0.85092575  0.85015246  0.16853021  1  0  0.112626  0  3.750449  0  0  0.121993  0  3.984168  0  0  0.127442  0  4.006454  0  0  0.020367  0.118512  0  3.969548  0
C  C50  1  0.42126977  0.33173854  0.30755182  1  0  0.657456  0  3.896933  0  0  0.608273  0  4.184756  0  0  0.643822  0  4.177302  0  0  0.208933  0.584127  0  4.188944  0
C  C51  1  0.57872955  0.66825911  0.69244682  1  0  0.657658  0  3.896667  0  0  0.608455  0  4.184505  0  0  0.644002  0  4.17705  0  0  0.208994  0.584307  0  4.188695  0
C  C52  1  0.43542889  0.23503848  0.21135997  1  0  -0.064535  0  3.755641  0  0  -0.041253  0  3.986828  0  0  -0.050346  0  4.010721  0  0  -0.0211  -0.035009  0  3.970378  0
C  C53  1  0.56457295  0.76496117  0.78863734  1  0  -0.064578  0  3.755549  0  0  -0.041275  0  3.986743  0  0  -0.05036  0  4.010627  0  0  -0.021067  -0.035027  0  3.970288  0
C  C54  1  0.13274361  0.28029099  0.80693256  1  0  -0.160859  0  3.711361  0  0  -0.178433  0  3.957888  0  0  -0.187018  0  3.980152  0  0  -0.078371  -0.173594  0  3.943778  0
C  C55  1  0.86725971  0.71970963  0.19307140  1  0  -0.160764  0  3.711283  0  0  -0.178345  0  3.957832  0  0  -0.186932  0  3.980101  0  0  -0.078374  -0.173514  0  3.943713  0
C  C56  1  0.40019740  0.01045856  0.13015675  1  0  -0.116253  0  3.74237  0  0  -0.1368  0  3.997133  0  0  -0.141198  0  4.01854  0  0  -0.091853  -0.134459  0  3.982761  0
C  C57  1  0.59979772  0.98954004  0.86984113  1  0  -0.116223  0  3.742277  0  0  -0.136793  0  3.997074  0  0  -0.141193  0  4.018484  0  0  -0.091868  -0.134453  0  3.982701  0
C  C58  1  0.02788139  0.93650727  0.89842128  1  0  -0.093255  0  3.724969  0  0  -0.113446  0  3.974519  0  0  -0.115897  0  3.996122  0  0  -0.079648  -0.111177  0  3.958498  0
C  C59  1  0.97212134  0.06349040  0.10158162  1  0  -0.093115  0  3.724869  0  0  -0.113245  0  3.97438  0  0  -0.115676  0  3.995958  0  0  -0.079577  -0.110972  0  3.958354  0
C  C60  1  0.04254794  0.13563398  0.01966084  1  0  -0.095457  0  3.741087  0  0  -0.115637  0  3.989216  0  0  -0.118246  0  4.01105  0  0  -0.081823  -0.114479  0  3.974205  0
C  C61  1  0.95745648  0.86436665  0.98034332  1  0  -0.095375  0  3.741152  0  0  -0.115607  0  3.989281  0  0  -0.118216  0  4.011118  0  0  -0.081819  -0.114449  0  3.974269  0
C  C62  1  0.24350727  0.09574970  0.77230896  1  0  -0.154625  0  3.709229  0  0  -0.174854  0  3.961207  0  0  -0.183403  0  3.984017  0  0  -0.077457  -0.169894  0  3.946548  0
C  C63  1  0.75649471  0.90424993  0.22769292  1  0  -0.154653  0  3.709258  0  0  -0.174885  0  3.961254  0  0  -0.183424  0  3.984054  0  0  -0.077456  -0.169907  0  3.9466  0
C  C64  1  0.24277602  0.86874463  0.42763085  1  0  -0.06609  0  3.752091  0  0  -0.087887  0  3.996145  0  0  -0.087142  0  4.016734  0  0  -0.088336  -0.088465  0  3.982944  0
C  C65  1  0.75722134  0.13125987  0.57236751  1  0  -0.066084  0  3.752151  0  0  -0.087887  0  3.996195  0  0  -0.08714  0  4.016784  0  0  -0.088374  -0.088474  0  3.983002  0
C  C66  1  0.37568690  0.10170187  0.21224391  1  0  -0.064142  0  3.756784  0  0  -0.088962  0  4.004911  0  0  -0.088017  0  4.026302  0  0  -0.087087  -0.089008  0  3.989783  0
C  C67  1  0.62431744  0.89829877  0.78775751  1  0  -0.064135  0  3.756757  0  0  -0.088971  0  4.004892  0  0  -0.088029  0  4.026282  0  0  -0.087104  -0.089011  0  3.989768  0
C  C68  1  0.16502668  0.96840128  0.44045914  1  0  -0.130076  0  3.747342  0  0  -0.149743  0  4.000637  0  0  -0.154361  0  4.021881  0  0  -0.096759  -0.146755  0  3.98701  0
C  C69  1  0.83497051  0.03160223  0.55954009  1  0  -0.130209  0  3.747302  0  0  -0.14985  0  4.0006  0  0  -0.154469  0  4.021842  0  0  -0.09682  -0.146859  0  3.986969  0
C  C70  1  0.51915956  0.27507218  0.12417174  1  0  -0.062829  0  3.752713  0  0  -0.085524  0  3.998714  0  0  -0.084545  0  4.018609  0  0  -0.085957  -0.086025  0  3.985129  0
C  C71  1  0.48083721  0.72492450  0.87582097  1  0  -0.062806  0  3.752651  0  0  -0.085569  0  3.998679  0  0  -0.084588  0  4.018571  0  0  -0.085963  -0.086072  0  3.985094  0
C  C72  1  0.54334034  0.18392815  0.04172629  1  0  -0.11999  0  3.749885  0  0  -0.140425  0  4.001355  0  0  -0.144433  0  4.022341  0  0  -0.093597  -0.1368  0  3.985259  0
C  C73  1  0.45665526  0.81606752  0.95826983  1  0  -0.120052  0  3.749807  0  0  -0.140466  0  4.00129  0  0  -0.144485  0  4.022284  0  0  -0.093612  -0.136841  0  3.985195  0
N  N74  1  0.29906081  0.29578885  0.67139823  1  0  -0.317609  0  3.287099  0  0  -0.23405  0  3.558358  0  0  -0.254241  0  3.573543  0  0  -0.331196  -0.220468  0  3.547758  0
N  N75  1  0.70093806  0.70421174  0.32860309  1  0  -0.317598  0  3.287047  0  0  -0.23405  0  3.558316  0  0  -0.25424  0  3.573502  0  0  -0.331232  -0.220467  0  3.547716  0
O  O76  1  0.40570030  0.67353119  0.41580501  1  0  -0.643364  0  2.083779  0  0  -0.577342  0  2.341402  0  0  -0.605797  0  2.327268  0  0  -0.320406  -0.557341  0  2.350322  0
O  O77  1  0.59429909  0.32647235  0.58419463  1  0  -0.643339  0  2.083735  0  0  -0.577313  0  2.341341  0  0  -0.605768  0  2.327207  0  0  -0.320365  -0.557313  0  2.350265  0
O  O78  1  0.24804096  0.52492578  0.49437051  1  0  -0.633215  0  2.054367  0  0  -0.569231  0  2.31357  0  0  -0.598313  0  2.300508  0  0  -0.317548  -0.548628  0  2.3211  0
O  O79  1  0.75195808  0.47507579  0.50562995  1  0  -0.633232  0  2.054316  0  0  -0.569285  0  2.313541  0  0  -0.598366  0  2.300475  0  0  -0.317556  -0.54868  0  2.321069  0
O  O80  1  0.49528861  0.44693113  0.30872562  1  0  -0.647066  0  2.090721  0  0  -0.58371  0  2.347083  0  0  -0.612125  0  2.333809  0  0  -0.31973  -0.563993  0  2.355453  0
O  O81  1  0.50471363  0.55306459  0.69127354  1  0  -0.647159  0  2.090558  0  0  -0.583814  0  2.346944  0  0  -0.61223  0  2.33367  0  0  -0.319798  -0.564099  0  2.355318  0
O  O82  1  0.34245113  0.29147605  0.38454320  1  0  -0.633267  0  2.027712  0  0  -0.569088  0  2.283524  0  0  -0.597586  0  2.270174  0  0  -0.320585  -0.548857  0  2.292079  0
O  O83  1  0.65754813  0.70852162  0.61545362  1  0  -0.633361  0  2.027644  0  0  -0.56913  0  2.283395  0  0  -0.597632  0  2.270056  0  0  -0.320608  -0.548905  0  2.291964  0
