# generated using pymatgen
data_Sn2PH32C15NO4
_symmetry_space_group_name_H-M   'P 1'
_cell_length_a   9.07877140
_cell_length_b   10.60057548
_cell_length_c   11.61341272
_cell_angle_alpha   90.00020677
_cell_angle_beta   92.04772974
_cell_angle_gamma   89.99948700
_symmetry_Int_Tables_number   1
_chemical_formula_structural   Sn2PH32C15NO4
_chemical_formula_sum   'Sn4 P2 H64 C30 N2 O8'
_cell_volume   1116.96344038
_cell_formula_units_Z   2
loop_
 _symmetry_equiv_pos_site_id
 _symmetry_equiv_pos_as_xyz
  1  'x, y, z'
loop_
 _atom_site_type_symbol
 _atom_site_label
 _atom_site_symmetry_multiplicity
 _atom_site_fract_x
 _atom_site_fract_y
 _atom_site_fract_z
 _atom_site_occupancy
 _atom_site_hle17_bader_spin_density
 _atom_site_hle17_ddec_charge
 _atom_site_hle17_ddec_spin_density
 _atom_site_hle17_ddec_sum_bond_order
 _atom_site_hle17_magmom
 _atom_site_hse06_10hf_bader_spin_density
 _atom_site_hse06_10hf_ddec_charge
 _atom_site_hse06_10hf_ddec_spin_density
 _atom_site_hse06_10hf_ddec_sum_bond_order
 _atom_site_hse06_10hf_magmom
 _atom_site_hse06_bader_spin_density
 _atom_site_hse06_ddec_charge
 _atom_site_hse06_ddec_spin_density
 _atom_site_hse06_ddec_sum_bond_order
 _atom_site_hse06_magmom
 _atom_site_pbe_bader_spin_density
 _atom_site_pbe_cm5_charge
 _atom_site_pbe_ddec_charge
 _atom_site_pbe_ddec_spin_density
 _atom_site_pbe_ddec_sum_bond_order
 _atom_site_pbe_magmom
Sn  Sn0  1  0.07236729  0.59200160  0.02565881  1  0  1.41468  0  2.893247  0  0  1.28449  0  3.377457  0  0  1.320598  0  3.362904  0  0  0.524429  1.260152  0  3.386687  0
Sn  Sn1  1  0.92764249  0.09200847  0.97434187  1  0  1.414597  0  2.893404  0  0  1.284425  0  3.37758  0  0  1.320522  0  3.363058  0  0  0.524391  1.260083  0  3.386805  0
Sn  Sn2  1  0.59251849  0.71936782  0.80657332  1  0  1.41048  0  2.883726  0  0  1.285349  0  3.361172  0  0  1.320031  0  3.347888  0  0  0.534968  1.262698  0  3.368126  0
Sn  Sn3  1  0.40748446  0.21936804  0.19342756  1  0  1.41051  0  2.883678  0  0  1.285314  0  3.361202  0  0  1.320001  0  3.34792  0  0  0.534944  1.262648  0  3.368158  0
P  P4  1  0.94188706  0.80963048  0.82189582  1  0  1.464679  0  4.832628  0  0  1.304656  0  5.332157  0  0  1.353517  0  5.294286  0  0  0.362928  1.270908  0  5.357536  0
P  P5  1  0.05811714  0.30963238  0.17810884  1  0  1.464925  0  4.832513  0  0  1.304866  0  5.332024  0  0  1.353752  0  5.29416  0  0  0.362979  1.271088  0  5.357413  0
H  H6  1  0.23154416  0.73696549  0.84419833  1  0  0.436588  0  0.865247  0  0  0.403827  0  0.930003  0  0  0.414755  0  0.914409  0  0  0.298107  0.396796  0  0.94012  0
H  H7  1  0.76845752  0.23696940  0.15580171  1  0  0.436654  0  0.865155  0  0  0.403964  0  0.929817  0  0  0.414893  0  0.914221  0  0  0.298142  0.396919  0  0.93995  0
H  H8  1  0.29154688  0.60750239  0.80193091  1  0  0.407555  0  0.855135  0  0  0.388146  0  0.915519  0  0  0.395132  0  0.908137  0  0  0.313288  0.383231  0  0.920854  0
H  H9  1  0.70846394  0.10750316  0.19805694  1  0  0.407538  0  0.855112  0  0  0.388117  0  0.915523  0  0  0.395103  0  0.90814  0  0  0.313261  0.383202  0  0.920859  0
H  H10  1  0.18014974  0.71995869  0.65733942  1  0  0.228376  0  0.970674  0  0  0.226726  0  1.024115  0  0  0.232018  0  1.019967  0  0  0.278762  0.222831  0  1.027304  0
H  H11  1  0.81984551  0.21996107  0.34265949  1  0  0.228503  0  0.970502  0  0  0.226763  0  1.024073  0  0  0.232057  0  1.019922  0  0  0.27881  0.222868  0  1.02726  0
H  H12  1  0.90564407  0.84484283  0.33205453  1  0  0.086516  0  0.969832  0  0  0.098282  0  1.033862  0  0  0.10106  0  1.032647  0  0  0.095198  0.09606  0  1.035153  0
H  H13  1  0.09435322  0.34485865  0.66794142  1  0  0.086554  0  0.969728  0  0  0.098309  0  1.033783  0  0  0.101094  0  1.032572  0  0  0.095233  0.096086  0  1.035073  0
H  H14  1  0.64889957  0.80131868  0.26072926  1  0  0.078616  0  0.967757  0  0  0.092543  0  1.024894  0  0  0.09484  0  1.024561  0  0  0.095266  0.090316  0  1.026183  0
H  H15  1  0.35109816  0.30133376  0.73926742  1  0  0.078692  0  0.967611  0  0  0.092563  0  1.024804  0  0  0.094852  0  1.024481  0  0  0.095256  0.090337  0  1.026093  0
H  H16  1  0.50632201  0.62654209  0.34570759  1  0  0.082039  0  0.966989  0  0  0.094582  0  1.026182  0  0  0.097032  0  1.025793  0  0  0.097998  0.093972  0  1.024128  0
H  H17  1  0.49366645  0.12654725  0.65429595  1  0  0.082005  0  0.96701  0  0  0.094607  0  1.026146  0  0  0.097069  0  1.025743  0  0  0.097998  0.093994  0  1.024093  0
H  H18  1  0.61944498  0.49798951  0.50538803  1  0  0.082398  0  0.958209  0  0  0.097529  0  1.01133  0  0  0.099963  0  1.010829  0  0  0.098615  0.095491  0  1.011942  0
H  H19  1  0.38053627  0.99798402  0.49462513  1  0  0.082228  0  0.958201  0  0  0.097414  0  1.011279  0  0  0.099864  0  1.01077  0  0  0.098522  0.095365  0  1.011897  0
H  H20  1  0.87478603  0.54586061  0.57965997  1  0  0.093015  0  0.953549  0  0  0.099955  0  1.022997  0  0  0.103781  0  1.01999  0  0  0.100066  0.096904  0  1.025539  0
H  H21  1  0.12519771  0.04585447  0.42034832  1  0  0.093082  0  0.953422  0  0  0.099986  0  1.022911  0  0  0.103814  0  1.019902  0  0  0.100067  0.096933  0  1.025457  0
H  H22  1  0.09914853  0.81276207  0.46291629  1  0  0.014013  0  0.915083  0  0  0.030336  0  0.975073  0  0  0.030804  0  0.974396  0  0  0.090168  0.029621  0  0.975812  0
H  H23  1  0.90083803  0.31276459  0.53708437  1  0  0.013997  0  0.915202  0  0  0.03039  0  0.975148  0  0  0.030867  0  0.974464  0  0  0.090176  0.029669  0  0.975888  0
H  H24  1  0.28697618  0.64605724  0.48421827  1  0  0.099895  0  0.947725  0  0  0.12124  0  1.008844  0  0  0.122503  0  1.009111  0  0  0.088429  0.122673  0  1.004734  0
H  H25  1  0.71301653  0.14605545  0.51577859  1  0  0.099872  0  0.947756  0  0  0.121211  0  1.008882  0  0  0.122475  0  1.009151  0  0  0.088428  0.122643  0  1.004774  0
H  H26  1  0.16262327  0.60626153  0.36754033  1  0  0.105389  0  0.965431  0  0  0.127811  0  1.0257  0  0  0.12925  0  1.025735  0  0  0.090383  0.126885  0  1.025745  0
H  H27  1  0.83736984  0.10626303  0.63245813  1  0  0.105356  0  0.965384  0  0  0.127774  0  1.025662  0  0  0.129212  0  1.025702  0  0  0.090372  0.126848  0  1.025707  0
H  H28  1  0.14871256  0.52917358  0.50280324  1  0  0.103466  0  0.958652  0  0  0.122141  0  1.026951  0  0  0.123514  0  1.027356  0  0  0.087529  0.121077  0  1.027432  0
H  H29  1  0.85128575  0.02917633  0.49719686  1  0  0.103457  0  0.958614  0  0  0.122112  0  1.026936  0  0  0.123498  0  1.027332  0  0  0.087549  0.12105  0  1.027415  0
H  H30  1  0.89934602  0.85461555  0.62575382  1  0  0.10715  0  0.955088  0  0  0.123588  0  1.014891  0  0  0.124178  0  1.016776  0  0  0.115556  0.123174  0  1.0136  0
H  H31  1  0.10065107  0.35461695  0.37425593  1  0  0.107153  0  0.955117  0  0  0.123561  0  1.014927  0  0  0.124164  0  1.016809  0  0  0.11552  0.123145  0  1.013636  0
H  H32  1  0.06801748  0.92300473  0.67371235  1  0  0.092883  0  0.944453  0  0  0.105381  0  1.007584  0  0  0.107153  0  1.007853  0  0  0.098324  0.103849  0  1.007846  0
H  H33  1  0.93198338  0.42300524  0.32628828  1  0  0.092896  0  0.944471  0  0  0.105374  0  1.007597  0  0  0.107154  0  1.007872  0  0  0.098316  0.103845  0  1.007853  0
H  H34  1  0.01443855  0.39473498  0.88616714  1  0  0.159696  0  0.986415  0  0  0.181844  0  1.036623  0  0  0.184107  0  1.037957  0  0  0.09078  0.180228  0  1.035957  0
H  H35  1  0.98557374  0.89474599  0.11381826  1  0  0.159733  0  0.986307  0  0  0.181869  0  1.036532  0  0  0.184134  0  1.037863  0  0  0.090794  0.180251  0  1.03587  0
H  H36  1  0.20062812  0.43730173  0.86597980  1  0  0.132994  0  1.020564  0  0  0.151042  0  1.082062  0  0  0.153266  0  1.082932  0  0  0.079423  0.149646  0  1.081491  0
H  H37  1  0.79937374  0.93730103  0.13401488  1  0  0.133027  0  1.020529  0  0  0.151081  0  1.082015  0  0  0.153305  0  1.082885  0  0  0.079454  0.149684  0  1.081446  0
H  H38  1  0.05308912  0.52849061  0.79788269  1  0  0.157815  0  1.010065  0  0  0.168201  0  1.079918  0  0  0.172384  0  1.077849  0  0  0.08425  0.165266  0  1.081561  0
H  H39  1  0.94691029  0.02849334  0.20211830  1  0  0.157806  0  1.010059  0  0  0.168183  0  1.079918  0  0  0.172364  0  1.077848  0  0  0.084255  0.165247  0  1.081564  0
H  H40  1  0.81098295  0.70646622  0.06995493  1  0  0.153096  0  1.013218  0  0  0.171842  0  1.071197  0  0  0.173738  0  1.073227  0  0  0.084991  0.170623  0  1.06979  0
H  H41  1  0.18903551  0.20646255  0.93005416  1  0  0.153138  0  1.013153  0  0  0.171897  0  1.071101  0  0  0.173823  0  1.073091  0  0  0.085027  0.170672  0  1.069703  0
H  H42  1  0.85330157  0.59032447  0.17771612  1  0  0.150601  0  1.007881  0  0  0.167306  0  1.066915  0  0  0.169644  0  1.068425  0  0  0.081113  0.165761  0  1.065992  0
H  H43  1  0.14670598  0.09031503  0.82229051  1  0  0.150653  0  1.007836  0  0  0.167279  0  1.066955  0  0  0.169616  0  1.068466  0  0  0.081109  0.165734  0  1.06603  0
H  H44  1  0.78285370  0.54289685  0.03827185  1  0  0.154141  0  0.983017  0  0  0.174988  0  1.035193  0  0  0.177785  0  1.035366  0  0  0.086266  0.172594  0  1.03652  0
H  H45  1  0.21713992  0.04288742  0.96174708  1  0  0.154181  0  0.98301  0  0  0.175051  0  1.035151  0  0  0.177853  0  1.035319  0  0  0.086265  0.172655  0  1.036478  0
H  H46  1  0.35544605  0.63542942  0.09601291  1  0  0.149708  0  0.987437  0  0  0.170994  0  1.039977  0  0  0.173336  0  1.040974  0  0  0.085317  0.168414  0  1.041194  0
H  H47  1  0.64456116  0.13544574  0.90397664  1  0  0.14969  0  0.987489  0  0  0.170972  0  1.040039  0  0  0.173318  0  1.041032  0  0  0.085333  0.168392  0  1.041256  0
H  H48  1  0.23499622  0.68426519  0.20527029  1  0  0.144868  0  1.005104  0  0  0.162916  0  1.064431  0  0  0.165409  0  1.064941  0  0  0.081964  0.161029  0  1.063936  0
H  H49  1  0.76500602  0.18427166  0.79472700  1  0  0.144821  0  1.0051  0  0  0.162863  0  1.064447  0  0  0.165361  0  1.064949  0  0  0.081932  0.160975  0  1.063954  0
H  H50  1  0.26213831  0.78432450  0.08307057  1  0  0.156036  0  0.996181  0  0  0.174553  0  1.051746  0  0  0.177113  0  1.052559  0  0  0.084808  0.172682  0  1.051003  0
H  H51  1  0.73786190  0.28433732  0.91691322  1  0  0.155978  0  0.996156  0  0  0.174528  0  1.051691  0  0  0.177085  0  1.052507  0  0  0.08482  0.172657  0  1.050948  0
H  H52  1  0.62929631  0.92667409  0.67628623  1  0  0.156792  0  0.991092  0  0  0.175518  0  1.046646  0  0  0.178091  0  1.047184  0  0  0.086011  0.173512  0  1.046681  0
H  H53  1  0.37070676  0.42667323  0.32370846  1  0  0.156765  0  0.991124  0  0  0.1755  0  1.046663  0  0  0.178075  0  1.047197  0  0  0.086007  0.173495  0  1.046697  0
H  H54  1  0.45274095  0.85889064  0.64146524  1  0  0.153205  0  1.000206  0  0  0.170235  0  1.057723  0  0  0.172867  0  1.058123  0  0  0.082609  0.168476  0  1.057399  0
H  H55  1  0.54726719  0.35889517  0.35853455  1  0  0.153204  0  1.000159  0  0  0.170241  0  1.057667  0  0  0.172876  0  1.058063  0  0  0.082613  0.168481  0  1.057345  0
H  H56  1  0.61522088  0.79253879  0.58235131  1  0  0.151357  0  1.028997  0  0  0.165589  0  1.091978  0  0  0.167037  0  1.095584  0  0  0.079418  0.164892  0  1.088739  0
H  H57  1  0.38478135  0.29253630  0.41764634  1  0  0.151331  0  1.029023  0  0  0.165571  0  1.092  0  0  0.167013  0  1.095611  0  0  0.079404  0.164875  0  1.088759  0
H  H58  1  0.54996870  0.75241750  0.03755341  1  0  0.150149  0  1.009054  0  0  0.167847  0  1.066743  0  0  0.169982  0  1.068182  0  0  0.083668  0.165483  0  1.067506  0
H  H59  1  0.45005266  0.25242138  0.96244645  1  0  0.150041  0  1.009181  0  0  0.167753  0  1.066847  0  0  0.169889  0  1.068286  0  0  0.08363  0.165388  0  1.067609  0
H  H60  1  0.46197235  0.87542240  0.95521520  1  0  0.153198  0  0.986047  0  0  0.175318  0  1.034491  0  0  0.177852  0  1.035106  0  0  0.087112  0.172997  0  1.035171  0
H  H61  1  0.53802897  0.37542764  0.04478959  1  0  0.153157  0  0.986083  0  0  0.175286  0  1.034523  0  0  0.17782  0  1.03514  0  0  0.087077  0.172963  0  1.035205  0
H  H62  1  0.65848000  0.87791496  0.97999685  1  0  0.150421  0  1.02794  0  0  0.167164  0  1.088048  0  0  0.169888  0  1.088604  0  0  0.085081  0.16511  0  1.087747  0
H  H63  1  0.34152242  0.37791595  0.02000454  1  0  0.150414  0  1.027873  0  0  0.167159  0  1.087975  0  0  0.169883  0  1.088532  0  0  0.085096  0.165106  0  1.087674  0
H  H64  1  0.68119946  0.48018322  0.77102792  1  0  0.167706  0  0.973023  0  0  0.189569  0  1.02044  0  0  0.19226  0  1.020949  0  0  0.09159  0.187599  0  1.020382  0
H  H65  1  0.31880529  0.98018470  0.22896269  1  0  0.167789  0  0.973111  0  0  0.189632  0  1.020528  0  0  0.19232  0  1.021039  0  0  0.091617  0.187663  0  1.020473  0
H  H66  1  0.49978154  0.49811301  0.70831939  1  0  0.14381  0  0.998994  0  0  0.161465  0  1.057951  0  0  0.163773  0  1.058896  0  0  0.082455  0.159737  0  1.057422  0
H  H67  1  0.50021751  0.99810485  0.29167110  1  0  0.143944  0  0.99896  0  0  0.161599  0  1.0579  0  0  0.163908  0  1.058844  0  0  0.082488  0.159868  0  1.057376  0
H  H68  1  0.52526222  0.47451166  0.86037023  1  0  0.146898  0  1.017066  0  0  0.163173  0  1.080582  0  0  0.165503  0  1.0818  0  0  0.080912  0.161547  0  1.079851  0
H  H69  1  0.47473817  0.97450498  0.13962281  1  0  0.146956  0  1.017052  0  0  0.163241  0  1.080521  0  0  0.165564  0  1.081744  0  0  0.080924  0.161616  0  1.079792  0
C  C70  1  0.90829714  0.69587474  0.45856117  1  0  0.035485  0  3.721179  0  0  0.059587  0  3.948454  0  0  0.058907  0  3.973307  0  0  -0.009552  0.059604  0  3.93139  0
C  C71  1  0.09169172  0.19587876  0.54144089  1  0  0.035508  0  3.721167  0  0  0.059709  0  3.948354  0  0  0.058997  0  3.973249  0  0  -0.009579  0.059726  0  3.931287  0
C  C72  1  0.84285994  0.76857087  0.37019700  1  0  -0.129063  0  3.766356  0  0  -0.14897  0  4.009188  0  0  -0.152317  0  4.031467  0  0  -0.096149  -0.147967  0  3.996015  0
C  C73  1  0.15713150  0.26858229  0.62980109  1  0  -0.129191  0  3.76632  0  0  -0.149119  0  4.009113  0  0  -0.152467  0  4.031405  0  0  -0.096261  -0.148121  0  3.995955  0
C  C74  1  0.69866403  0.74421418  0.32990526  1  0  -0.070192  0  3.807802  0  0  -0.080104  0  4.051091  0  0  -0.081715  0  4.0732  0  0  -0.095456  -0.079372  0  4.038137  0
C  C75  1  0.30132766  0.24422465  0.67009361  1  0  -0.070156  0  3.807897  0  0  -0.080003  0  4.051163  0  0  -0.081606  0  4.073276  0  0  -0.095345  -0.079272  0  4.038207  0
C  C76  1  0.61837325  0.64620386  0.37764374  1  0  -0.088612  0  3.80249  0  0  -0.101932  0  4.047661  0  0  -0.104279  0  4.069526  0  0  -0.098107  -0.100856  0  4.030551  0
C  C77  1  0.38161390  0.14621259  0.62235983  1  0  -0.08873  0  3.802538  0  0  -0.102127  0  4.04773  0  0  -0.104484  0  4.069596  0  0  -0.098142  -0.101044  0  4.03061  0
C  C78  1  0.68244742  0.57382093  0.46694783  1  0  -0.084766  0  3.809447  0  0  -0.09477  0  4.054905  0  0  -0.096692  0  4.077293  0  0  -0.094829  -0.092435  0  4.038609  0
C  C79  1  0.31753494  0.07382224  0.53305964  1  0  -0.084262  0  3.809027  0  0  -0.094287  0  4.054409  0  0  -0.096228  0  4.076821  0  0  -0.094599  -0.091939  0  4.0381  0
C  C80  1  0.82589692  0.59902853  0.50754252  1  0  -0.104099  0  3.734039  0  0  -0.125581  0  3.983982  0  0  -0.128185  0  4.004689  0  0  -0.089454  -0.123364  0  3.969625  0
C  C81  1  0.17408849  0.09902795  0.49246428  1  0  -0.104373  0  3.733931  0  0  -0.125874  0  3.983884  0  0  -0.128471  0  4.004604  0  0  -0.089545  -0.123655  0  3.969525  0
C  C82  1  0.06577516  0.72135214  0.50102971  1  0  0.169596  0  3.680685  0  0  0.152167  0  3.925751  0  0  0.156146  0  3.940815  0  0  0.00604  0.150218  0  3.91478  0
C  C83  1  0.93421564  0.22135426  0.49897164  1  0  0.16965  0  3.680864  0  0  0.15214  0  3.925962  0  0  0.156127  0  3.941032  0  0  0.006112  0.150198  0  3.914979  0
C  C84  1  0.17240299  0.61973830  0.46120538  1  0  -0.339766  0  3.68919  0  0  -0.419693  0  3.930572  0  0  -0.42276  0  3.939876  0  0  -0.241285  -0.41842  0  3.922675  0
C  C85  1  0.82758998  0.11974234  0.53879312  1  0  -0.339702  0  3.689212  0  0  -0.419602  0  3.930655  0  0  -0.422679  0  3.939942  0  0  -0.241301  -0.418329  0  3.922756  0
C  C86  1  0.00204510  0.83516070  0.67583345  1  0  -0.296303  0  3.73942  0  0  -0.332052  0  4.005777  0  0  -0.336301  0  4.013852  0  0  -0.079757  -0.329153  0  4.00076  0
C  C87  1  0.99795664  0.33516258  0.32417036  1  0  -0.296426  0  3.739578  0  0  -0.332027  0  4.005726  0  0  -0.33636  0  4.013941  0  0  -0.079699  -0.329127  0  4.00071  0
C  C88  1  0.08887699  0.47490108  0.87471150  1  0  -0.735892  0  3.520446  0  0  -0.7742  0  3.750516  0  0  -0.78741  0  3.755465  0  0  -0.338873  -0.764934  0  3.747214  0
C  C89  1  0.91112224  0.97490232  0.12528839  1  0  -0.7359  0  3.520246  0  0  -0.7742  0  3.750329  0  0  -0.787408  0  3.755274  0  0  -0.338898  -0.764934  0  3.747032  0
C  C90  1  0.85289225  0.61115429  0.08537784  1  0  -0.719368  0  3.523421  0  0  -0.75945  0  3.74958  0  0  -0.772721  0  3.756837  0  0  -0.335877  -0.750194  0  3.745543  0
C  C91  1  0.14712391  0.11115370  0.91462741  1  0  -0.719427  0  3.523352  0  0  -0.759488  0  3.74954  0  0  -0.772788  0  3.756755  0  0  -0.335876  -0.750227  0  3.745514  0
C  C92  1  0.25355891  0.68678838  0.11259807  1  0  -0.705194  0  3.518835  0  0  -0.747462  0  3.748793  0  0  -0.760668  0  3.755662  0  0  -0.335633  -0.736912  0  3.743589  0
C  C93  1  0.74645542  0.18679630  0.88740134  1  0  -0.705116  0  3.518948  0  0  -0.747381  0  3.748913  0  0  -0.7606  0  3.755776  0  0  -0.335648  -0.73683  0  3.743711  0
C  C94  1  0.56989168  0.83854604  0.65773513  1  0  -0.729115  0  3.515605  0  0  -0.765164  0  3.740956  0  0  -0.778709  0  3.748476  0  0  -0.340094  -0.755892  0  3.73514  0
C  C95  1  0.43011115  0.33854857  0.34226614  1  0  -0.729049  0  3.515578  0  0  -0.765127  0  3.740935  0  0  -0.778666  0  3.748459  0  0  -0.340091  -0.755854  0  3.735115  0
C  C96  1  0.56176620  0.81768084  0.96552264  1  0  -0.729049  0  3.54124  0  0  -0.768391  0  3.766862  0  0  -0.781797  0  3.773933  0  0  -0.337134  -0.75911  0  3.762395  0
C  C97  1  0.43824126  0.31768397  0.03447785  1  0  -0.728903  0  3.541203  0  0  -0.768252  0  3.766766  0  0  -0.781661  0  3.773842  0  0  -0.337086  -0.758971  0  3.762305  0
C  C98  1  0.57114010  0.51875327  0.78423286  1  0  -0.726543  0  3.526359  0  0  -0.765697  0  3.754516  0  0  -0.779322  0  3.761751  0  0  -0.338642  -0.756391  0  3.749117  0
C  C99  1  0.42886168  0.01875626  0.21575956  1  0  -0.726859  0  3.526534  0  0  -0.765981  0  3.754668  0  0  -0.779598  0  3.761909  0  0  -0.338716  -0.756667  0  3.749264  0
N  N100  1  0.07335079  0.72543327  0.62695867  1  0  -0.410082  0  3.209588  0  0  -0.370286  0  3.469975  0  0  -0.383223  0  3.479355  0  0  -0.486874  -0.361985  0  3.463798  0
N  N101  1  0.92664550  0.22543401  0.37304029  1  0  -0.410264  0  3.209468  0  0  -0.370458  0  3.469939  0  0  -0.383378  0  3.479331  0  0  -0.487049  -0.362158  0  3.463764  0
O  O102  1  0.07557002  0.77081719  0.90093010  1  0  -0.872478  0  1.995662  0  0  -0.772845  0  2.236511  0  0  -0.800536  0  2.221075  0  0  -0.346571  -0.753459  0  2.246813  0
O  O103  1  0.92443569  0.27082346  0.09907363  1  0  -0.872499  0  1.99561  0  0  -0.77296  0  2.236582  0  0  -0.80061  0  2.221053  0  0  -0.346599  -0.753545  0  2.246874  0
O  O104  1  0.87104795  0.93449951  0.85763611  1  0  -0.854674  0  2.029261  0  0  -0.760766  0  2.29389  0  0  -0.78665  0  2.278133  0  0  -0.34616  -0.742268  0  2.304083  0
O  O105  1  0.12895827  0.43449695  0.14236818  1  0  -0.85477  0  2.029246  0  0  -0.760852  0  2.293884  0  0  -0.78674  0  2.278122  0  0  -0.346221  -0.742354  0  2.304087  0
O  O106  1  0.82730034  0.70126038  0.81780563  1  0  -0.825982  0  2.004242  0  0  -0.730789  0  2.264708  0  0  -0.756582  0  2.24986  0  0  -0.337118  -0.713201  0  2.274479  0
O  O107  1  0.17270384  0.20126236  0.18220298  1  0  -0.82605  0  2.004239  0  0  -0.730812  0  2.264676  0  0  -0.756622  0  2.249835  0  0  -0.337055  -0.713187  0  2.27443  0
O  O108  1  0.31669058  0.69677009  0.80339250  1  0  -0.824105  0  1.869621  0  0  -0.759717  0  2.045223  0  0  -0.779319  0  2.022958  0  0  -0.546237  -0.746119  0  2.059526  0
O  O109  1  0.68331155  0.19676916  0.19660225  1  0  -0.824152  0  1.869474  0  0  -0.759785  0  2.044965  0  0  -0.779388  0  2.022698  0  0  -0.54623  -0.746181  0  2.059292  0
