# generated using pymatgen
data_ZnH26C30S5NO19
_symmetry_space_group_name_H-M   'P 1'
_cell_length_a   10.66951520
_cell_length_b   16.74417968
_cell_length_c   18.21633884
_cell_angle_alpha   83.88531128
_cell_angle_beta   84.67602788
_cell_angle_gamma   84.70309383
_symmetry_Int_Tables_number   1
_chemical_formula_structural   ZnH26C30S5NO19
_chemical_formula_sum   'Zn2 H52 C60 S10 N2 O38'
_cell_volume   3210.72742416
_cell_formula_units_Z   2
loop_
 _symmetry_equiv_pos_site_id
 _symmetry_equiv_pos_as_xyz
  1  'x, y, z'
loop_
 _atom_site_type_symbol
 _atom_site_label
 _atom_site_symmetry_multiplicity
 _atom_site_fract_x
 _atom_site_fract_y
 _atom_site_fract_z
 _atom_site_occupancy
 _atom_site_pbe_bader_charge
 _atom_site_pbe_bader_spin_density
 _atom_site_pbe_cm5_charge
 _atom_site_pbe_ddec_charge
 _atom_site_pbe_ddec_spin_density
 _atom_site_pbe_ddec_sum_bond_order
 _atom_site_pbe_magmom
Zn  Zn0  1  0.52072102  0.40232019  0.49789783  1  1.313366  0  0.703148  0.883719  0  2.285224  0
Zn  Zn1  1  0.49674349  0.59281272  0.49853745  1  1.286437  0  0.707772  0.866052  0  2.319231  0
H  H2  1  0.15463953  0.88496039  0.51174399  1  0.075076  0  0.104076  0.104825  0  1.026758  0
H  H3  1  0.83744184  0.12333705  0.46528904  1  0.067345  0  0.108328  0.109155  0  0.985701  0
H  H4  1  0.64692762  0.56497970  0.85674718  1  0.152543  0  0.126009  0.146871  0  0.973454  0
H  H5  1  0.34925402  0.43600941  0.11750994  1  0.135533  0  0.121714  0.137459  0  0.99854  0
H  H6  1  0.40755950  0.30178300  0.41544150  1  0.148715  0  0.119863  0.102981  0  1.032138  0
H  H7  1  0.46999443  0.69686646  0.61277940  1  0.155048  0  0.123764  0.11445  0  1.01572  0
H  H8  1  0.53686607  0.10419476  0.61741843  1  0.121052  0  0.110644  0.12426  0  1.009016  0
H  H9  1  0.49834396  0.89141690  0.39275591  1  0.105703  0  0.114664  0.128605  0  0.992237  0
H  H10  1  0.12392328  0.79337065  0.62457556  1  0.090626  0  0.112125  0.108835  0  1.008851  0
H  H11  1  0.85273156  0.21882364  0.35189072  1  0.109045  0  0.119909  0.124112  0  0.969244  0
H  H12  1  0.85816539  0.62215609  0.48837333  1  0.129709  0  0.113936  0.127803  0  0.979522  0
H  H13  1  0.16103625  0.38089252  0.48546911  1  0.11523  0  0.110095  0.122768  0  0.999061  0
H  H14  1  0.49244297  0.16221367  0.30738970  1  0.069515  0  0.089516  0.129871  0  0.998426  0
H  H15  1  0.37884885  0.09629943  0.29122817  1  0.037072  0  0.088434  0.117442  0  0.997999  0
H  H16  1  0.49127682  0.06438022  0.35679941  1  0.005522  0  0.078728  0.100284  0  1.029522  0
H  H17  1  0.27457666  0.10615761  0.41829098  1  0.043755  0  0.090802  0.083881  0  0.99602  0
H  H18  1  0.28252068  0.20353410  0.37044659  1  0.05702  0  0.095653  0.099708  0  0.987069  0
H  H19  1  0.28403891  0.79817321  0.69858360  1  0.043887  0  0.087998  0.123712  0  1.01595  0
H  H20  1  0.32373572  0.87847474  0.74621273  1  0.037167  0  0.0911  0.120245  0  0.993862  0
H  H21  1  0.26162210  0.90004645  0.65849723  1  0.014977  0  0.084486  0.110579  0  1.013066  0
H  H22  1  0.51819791  0.80646094  0.68736582  1  0.056393  0  0.100826  0.103751  0  0.964753  0
H  H23  1  0.49900648  0.90860608  0.65073289  1  0.034301  0  0.093003  0.087316  0  0.98522  0
H  H24  1  0.51157297  0.18067361  0.72565742  1  0.024723  0  0.085445  0.114801  0  1.003082  0
H  H25  1  0.66469622  0.14167706  0.69123169  1  -0.021289  0  0.078897  0.094397  0  1.033726  0
H  H26  1  0.64892999  0.22585249  0.74280258  1  0.060293  0  0.091783  0.13329  0  0.989036  0
H  H27  1  0.68751035  0.27402397  0.60991268  1  0.068405  0  0.093805  0.102192  0  1.023083  0
H  H28  1  0.54148016  0.31196735  0.64747751  1  0.124185  0  0.100032  0.122594  0  1.044369  0
H  H29  1  0.37923468  0.74568268  0.30906728  1  0.031094  0  0.0809  0.118045  0  1.054323  0
H  H30  1  0.46397677  0.83323520  0.29262947  1  -0.0317  0  0.082448  0.104738  0  1.01325  0
H  H31  1  0.51864726  0.74639201  0.24820674  1  0.086174  0  0.088538  0.13953  0  1.019032  0
H  H32  1  0.65236765  0.75005768  0.34941238  1  0.065683  0  0.107564  0.125816  0  0.943999  0
H  H33  1  0.55901157  0.66876859  0.37089977  1  0.053156  0  0.094328  0.096988  0  1.050031  0
H  H34  1  0.13793274  0.51137109  0.65285720  1  0.691655  0  0.323809  0.396492  0  0.938407  0
H  H35  1  0.08329731  0.44297524  0.33169877  1  0.666832  0  0.32351  0.389536  0  0.921854  0
H  H36  1  0.29505816  0.59569444  0.35113379  1  0.6708  0  0.314409  0.389039  0  0.921272  0
H  H37  1  0.87862095  0.43149074  0.64184769  1  0.693514  0  0.325045  0.399728  0  0.910585  0
H  H38  1  0.07728620  0.96877029  0.41888880  1  -0.001771  0  0.082948  0.10486  0  1.016853  0
H  H39  1  0.24455810  0.95161732  0.41638449  1  0.02603  0  0.080544  0.101099  0  1.046437  0
H  H40  1  0.17117328  0.98387544  0.33389285  1  0.040958  0  0.092588  0.125084  0  0.988253  0
H  H41  1  0.23805716  0.83918895  0.33473963  1  0.07889  0  0.101206  0.111021  0  1.010045  0
H  H42  1  0.07558982  0.85617822  0.33455958  1  0.071761  0  0.103719  0.113921  0  0.958027  0
H  H43  1  0.05513465  0.06606265  0.53124780  1  0.044623  0  0.07897  0.09921  0  1.032231  0
H  H44  1  0.11685758  0.12795253  0.59065759  1  0.053428  0  0.089181  0.128624  0  1.008178  0
H  H45  1  0.04955064  0.03750308  0.62846898  1  0.021851  0  0.087823  0.117353  0  0.997414  0
H  H46  1  0.89796876  0.15718019  0.65215153  1  0.06335  0  0.100933  0.108889  0  1.012562  0
H  H47  1  0.83625943  0.09589356  0.59355045  1  0.0114  0  0.093826  0.089999  0  0.97968  0
H  H48  1  0.44398533  0.38779790  0.99645591  1  0.628189  0  0.320891  0.36454  0  0.922558  0
H  H49  1  0.53308751  0.68091413  0.99143062  1  0.617554  0  0.365921  0.413455  0  0.813559  0
H  H50  1  0.16766749  0.36757109  0.82352058  1  0.662161  0  0.331612  0.399502  0  0.908571  0
H  H51  1  0.84202864  0.57484974  0.15240167  1  0.668059  0  0.326757  0.389934  0  0.916047  0
H  H52  1  0.87223341  0.61385585  0.73671635  1  0.675363  0  0.314516  0.395919  0  0.933587  0
H  H53  1  0.14926937  0.35000106  0.23512512  1  0.672823  0  0.31295  0.395306  0  0.938012  0
C  C54  1  0.49673335  0.49321264  0.34004437  1  1.665722  0  0.213758  0.580341  0  4.258233  0
C  C55  1  0.49578299  0.49491179  0.64236395  1  1.675916  0  0.212789  0.571479  0  4.279868  0
C  C56  1  0.88065190  0.49479068  0.48262287  1  0.086323  0  -0.003914  -0.046989  0  3.890087  0
C  C57  1  0.13773319  0.50782292  0.49162122  1  0.034722  0  -0.008837  -0.043391  0  3.926029  0
C  C58  1  0.96569186  0.42538549  0.48100094  1  -0.055508  0  -0.005616  0.038326  0  4.003207  0
C  C59  1  0.05391010  0.57768250  0.49261476  1  -0.032189  0  -0.003774  0.03897  0  3.965959  0
C  C60  1  0.40006301  0.44933096  0.85117543  1  -0.08938  0  0.00136  -0.137771  0  3.855959  0
C  C61  1  0.57291441  0.56494112  0.13286631  1  -0.057879  0  0.003928  -0.132535  0  3.847769  0
C  C62  1  0.39940192  0.45018669  0.77387087  1  -0.116116  0  0.007168  -0.095866  0  3.851229  0
C  C63  1  0.58561726  0.54805281  0.20956756  1  -0.123535  0  0.006307  -0.095494  0  3.82747  0
C  C64  1  0.49110599  0.49013882  0.72642680  1  0.098679  0  0.02271  0.009275  0  3.837633  0
C  C65  1  0.50402992  0.49800872  0.25499093  1  0.100674  0  0.027486  0.017442  0  3.802177  0
C  C66  1  0.58280630  0.52834292  0.75771884  1  -0.09843  0  0.007825  -0.070879  0  3.880183  0
C  C67  1  0.41774895  0.45903826  0.21968259  1  -0.153779  0  0.006304  -0.07038  0  3.878837  0
C  C68  1  0.57784006  0.53350620  0.83319711  1  0.009232  0  -0.056759  -0.094772  0  3.870661  0
C  C69  1  0.41387836  0.46861356  0.14352202  1  0.053689  0  -0.06168  -0.103016  0  3.889002  0
C  C70  1  0.48479432  0.49560811  0.88077394  1  0.095653  0  0.010946  0.138328  0  4.094425  0
C  C71  1  0.49167635  0.52084691  0.09838768  1  0.066994  0  0.005533  0.120805  0  4.107008  0
C  C72  1  0.48286675  0.50432486  0.95719054  1  0.130385  0  -0.042349  -0.132864  0  4.138256  0
C  C73  1  0.48849885  0.51797659  0.02131291  1  -0.451632  0  -0.022386  -0.061823  0  4.096361  0
C  C74  1  0.40682387  0.17647251  0.45681471  1  0.014264  0  0.006749  0.04259  0  3.898551  0
C  C75  1  0.46723734  0.82389611  0.57668784  1  0.031689  0  0.005262  0.03736  0  3.903851  0
C  C76  1  0.27579495  0.50903838  0.49634202  1  1.56244  0  0.221157  0.606846  0  4.155327  0
C  C77  1  0.74145213  0.49095839  0.48335881  1  1.563651  0  0.230526  0.621959  0  4.12799  0
C  C78  1  0.43423249  0.25585869  0.45949569  1  0.470865  0  0.050423  0.0487  0  3.884401  0
C  C79  1  0.47641640  0.74263331  0.56572207  1  0.462178  0  0.051736  0.05638  0  3.881501  0
C  C80  1  0.53053860  0.22761080  0.57100388  1  0.420266  0  0.130241  0.282589  0  3.920455  0
C  C81  1  0.51104620  0.76680460  0.43662686  1  0.501398  0  0.130169  0.275443  0  3.935536  0
C  C82  1  0.50750368  0.14714201  0.57192467  1  -0.013292  0  -0.078293  -0.219385  0  3.902173  0
C  C83  1  0.49176520  0.84930725  0.44252591  1  -0.055208  0  -0.076577  -0.218315  0  3.896162  0
C  C84  1  0.44928758  0.12014011  0.51436822  1  0.083516  0  0.01663  0.117015  0  4.113131  0
C  C85  1  0.46869691  0.87890406  0.51215881  1  0.046708  0  0.015195  0.114519  0  4.122327  0
C  C86  1  0.44183015  0.03630136  0.51447724  1  -0.021961  0  -0.02204  -0.07459  0  4.084808  0
C  C87  1  0.45190718  0.96306428  0.51583034  1  -0.302121  0  -0.028047  -0.092634  0  4.100106  0
C  C88  1  0.12026412  0.77129430  0.57077735  1  0.036405  0  -0.078375  -0.068204  0  4.027793  0
C  C89  1  0.87280136  0.23717276  0.40495307  1  -0.030502  0  -0.072501  -0.0597  0  4.000448  0
C  C90  1  0.09660001  0.69130690  0.56667270  1  -0.127123  0  -0.015361  -0.142206  0  3.914271  0
C  C91  1  0.91117247  0.31414624  0.40874117  1  -0.215032  0  -0.012267  -0.13606  0  3.909112  0
C  C92  1  0.09291052  0.66066066  0.49784261  1  0.002407  0  0.02244  0.104562  0  3.921658  0
C  C93  1  0.92968983  0.34204627  0.47687370  1  0.118711  0  0.018532  0.094575  0  3.954212  0
C  C94  1  0.11694304  0.71442666  0.43302761  1  -0.103412  0  -0.01126  -0.197849  0  3.799361  0
C  C95  1  0.92390297  0.28523992  0.54052953  1  -0.151966  0  -0.007037  -0.187869  0  3.802488  0
C  C96  1  0.13713365  0.79657045  0.43625259  1  -0.013177  0  0.011944  0.143595  0  3.889123  0
C  C97  1  0.89706571  0.20474403  0.53638399  1  0.005025  0  0.011456  0.138624  0  3.908478  0
C  C98  1  0.13852645  0.82261172  0.50682963  1  -0.054663  0  -0.092032  -0.136245  0  3.979261  0
C  C99  1  0.86463040  0.18406498  0.46839246  1  0.024937  0  -0.085588  -0.132332  0  3.975415  0
C  C100  1  0.92615617  0.56959632  0.48782230  1  0.010471  0  -0.069457  -0.096046  0  3.892487  0
C  C101  1  0.09313603  0.43349548  0.48547589  1  0.04422  0  -0.083273  -0.12166  0  3.94004  0
C  C102  1  0.33984508  0.15138691  0.39495848  1  0.000802  0  -0.158454  -0.139612  0  3.978335  0
C  C103  1  0.43133481  0.11638175  0.33405979  1  -0.088882  0  -0.242933  -0.350228  0  3.949903  0
C  C104  1  0.45846684  0.85014791  0.65357075  1  -0.009103  0  -0.15486  -0.134879  0  3.98172  0
C  C105  1  0.32377373  0.85701887  0.69128121  1  -0.063566  0  -0.240566  -0.354011  0  3.947023  0
C  C106  1  0.59377957  0.25607295  0.63219045  1  -0.021592  0  -0.172494  -0.206203  0  3.965934  0
C  C107  1  0.60503968  0.19713300  0.70147169  1  -0.039444  0  -0.245472  -0.337903  0  3.971554  0
C  C108  1  0.55420589  0.73484239  0.36391432  1  0.016533  0  -0.163208  -0.194756  0  3.967936  0
C  C109  1  0.47396785  0.76698873  0.30018163  1  -0.018956  0  -0.251696  -0.350382  0  3.929608  0
C  C110  1  0.15354981  0.85832072  0.36957854  1  -0.026956  0  -0.164069  -0.166338  0  3.970136  0
C  C111  1  0.16194420  0.94506180  0.38631165  1  -0.055254  0  -0.244954  -0.351648  0  3.986407  0
C  C112  1  0.91102687  0.13620465  0.59691423  1  0.015542  0  -0.162863  -0.168042  0  3.965443  0
C  C113  1  0.04114120  0.08905887  0.58601856  1  -0.081526  0  -0.241528  -0.34477  0  3.940986  0
S  S114  1  0.08235186  0.63842576  0.65716420  1  3.09463  0  0.554244  1.193259  0  5.957652  0
S  S115  1  0.93833806  0.36530168  0.31828322  1  3.10017  0  0.560079  1.186167  0  5.931333  0
S  S116  1  0.11536052  0.67557313  0.34370855  1  3.112298  0  0.540168  1.162728  0  6.007113  0
S  S117  1  0.96018929  0.30770290  0.63155224  1  3.093697  0  0.54364  1.162833  0  5.99461  0
S  S118  1  0.30316023  0.39211964  0.92113434  1  3.089473  0  0.552863  1.146493  0  5.984785  0
S  S119  1  0.64666209  0.64982998  0.08142527  1  3.034941  0  0.556809  1.144435  0  5.968835  0
S  S120  1  0.28577059  0.40135083  0.72835077  1  3.148115  0  0.569735  1.166699  0  5.942578  0
S  S121  1  0.72018745  0.58222818  0.24978930  1  3.137069  0  0.555781  1.141574  0  5.980843  0
S  S122  1  0.71190337  0.56907571  0.69882056  1  3.127884  0  0.557603  1.17838  0  5.965053  0
S  S123  1  0.31991326  0.38638588  0.27001110  1  3.128711  0  0.556298  1.16627  0  5.97524  0
N  N124  1  0.49569236  0.28109437  0.51329679  1  -1.2276  0  -0.318414  -0.269437  0  3.466584  0
N  N125  1  0.49660791  0.71462312  0.49842201  1  -1.233902  0  -0.323156  -0.26604  0  3.498376  0
O  O126  1  0.53026103  0.42734700  0.37510442  1  -1.139658  0  -0.291572  -0.509535  0  2.283308  0
O  O127  1  0.48510470  0.56641303  0.61217204  1  -1.150582  0  -0.295763  -0.518655  0  2.404251  0
O  O128  1  0.44956857  0.55859723  0.36486697  1  -1.167129  0  -0.302884  -0.563192  0  2.256524  0
O  O129  1  0.51371949  0.43031874  0.61260047  1  -1.162458  0  -0.288467  -0.522461  0  2.403716  0
O  O130  1  0.34082881  0.44200145  0.49558686  1  -1.16222  0  -0.305317  -0.537141  0  2.447667  0
O  O131  1  0.67415911  0.55786530  0.47833380  1  -1.159197  0  -0.307046  -0.538462  0  2.430767  0
O  O132  1  0.31680662  0.57747014  0.50054153  1  -1.15129  0  -0.308311  -0.534984  0  2.434693  0
O  O133  1  0.70113414  0.42114054  0.49065880  1  -1.150058  0  -0.299485  -0.522127  0  2.391731  0
O  O134  1  0.19807851  0.64300051  0.69086652  1  -1.287203  0  -0.31532  -0.538471  0  2.120428  0
O  O135  1  0.96552997  0.67218575  0.69522122  1  -1.309772  0  -0.320705  -0.562524  0  2.188485  0
O  O136  1  0.05834162  0.54995611  0.64855465  1  -1.282181  0  -0.339509  -0.525951  0  2.359243  0
O  O137  1  0.04092646  0.31456945  0.28166610  1  -1.31619  0  -0.32811  -0.587078  0  2.203232  0
O  O138  1  0.82201289  0.37861206  0.28423199  1  -1.270472  0  -0.292041  -0.490688  0  2.158907  0
O  O139  1  0.98965880  0.44831575  0.32577874  1  -1.237312  0  -0.32606  -0.492769  0  2.302787  0
O  O140  1  0.99011139  0.65380623  0.33715581  1  -1.28559  0  -0.305617  -0.509937  0  2.154335  0
O  O141  1  0.17374009  0.72983727  0.28667926  1  -1.308548  0  -0.312615  -0.542841  0  2.200574  0
O  O142  1  0.20090898  0.59317682  0.35024298  1  -1.264387  0  -0.352748  -0.53691  0  2.328777  0
O  O143  1  0.85972853  0.28262634  0.68528822  1  -1.303374  0  -0.31191  -0.541375  0  2.181759  0
O  O144  1  0.08831386  0.27502260  0.63932074  1  -1.292493  0  -0.311026  -0.521069  0  2.126951  0
O  O145  1  0.96266192  0.40167515  0.63021325  1  -1.255924  0  -0.341897  -0.517511  0  2.343639  0
O  O146  1  0.22112731  0.44817485  0.96122734  1  -1.263507  0  -0.293398  -0.497671  0  2.108262  0
O  O147  1  0.25280452  0.32638884  0.89111490  1  -1.285257  0  -0.287422  -0.502435  0  2.180261  0
O  O148  1  0.40675250  0.34662104  0.97169763  1  -1.196313  0  -0.338696  -0.477489  0  2.162013  0
O  O149  1  0.58242798  0.72178411  0.10740359  1  -1.255264  0  -0.283328  -0.490076  0  2.135166  0
O  O150  1  0.78221480  0.63408999  0.07638378  1  -1.243786  0  -0.28465  -0.495853  0  2.165313  0
O  O151  1  0.61252172  0.64744323  0.99776957  1  -1.163741  0  -0.337236  -0.504728  0  2.205324  0
O  O152  1  0.25812775  0.45386127  0.66243537  1  -1.301094  0  -0.276316  -0.500906  0  2.326759  0
O  O153  1  0.33311376  0.31934445  0.72322664  1  -1.252341  0  -0.267736  -0.464676  0  2.163446  0
O  O154  1  0.15905084  0.40891691  0.77950491  1  -1.230767  0  -0.343947  -0.514091  0  2.20981  0
O  O155  1  0.71858954  0.66817089  0.23431954  1  -1.254857  0  -0.286119  -0.50558  0  2.220155  0
O  O156  1  0.72447470  0.54328745  0.32302904  1  -1.277247  0  -0.263648  -0.452789  0  2.276159  0
O  O157  1  0.83374613  0.54103987  0.20086131  1  -1.225348  0  -0.347094  -0.505989  0  2.219736  0
O  O158  1  0.75754640  0.50668702  0.65105367  1  -1.303239  0  -0.292215  -0.536103  0  2.258911  0
O  O159  1  0.67797869  0.64883656  0.66536399  1  -1.27902  0  -0.299014  -0.520314  0  2.160529  0
O  O160  1  0.80727821  0.57334476  0.75853673  1  -1.261599  0  -0.3505  -0.535376  0  2.212329  0
O  O161  1  0.39951077  0.31387128  0.28640266  1  -1.283749  0  -0.287892  -0.508371  0  2.184434  0
O  O162  1  0.24512709  0.42159507  0.33136535  1  -1.299849  0  -0.297598  -0.545454  0  2.274017  0
O  O163  1  0.23023841  0.37502923  0.20920213  1  -1.273528  0  -0.351983  -0.538444  0  2.218683  0
