# generated using pymatgen
data_CoH7C9(N2O)2
_symmetry_space_group_name_H-M   'P 1'
_cell_length_a   8.84672465
_cell_length_b   9.94405428
_cell_length_c   15.98763003
_cell_angle_alpha   100.09789656
_cell_angle_beta   90.00102678
_cell_angle_gamma   90.00005725
_symmetry_Int_Tables_number   1
_chemical_formula_structural   CoH7C9(N2O)2
_chemical_formula_sum   'Co4 H28 C36 N16 O8'
_cell_volume   1384.68200835
_cell_formula_units_Z   4
loop_
 _symmetry_equiv_pos_site_id
 _symmetry_equiv_pos_as_xyz
  1  'x, y, z'
loop_
 _atom_site_type_symbol
 _atom_site_label
 _atom_site_symmetry_multiplicity
 _atom_site_fract_x
 _atom_site_fract_y
 _atom_site_fract_z
 _atom_site_occupancy
 _atom_site_hle17_ddec_charge
 _atom_site_hle17_ddec_spin_density
 _atom_site_hle17_ddec_sum_bond_order
 _atom_site_hle17_magmom
 _atom_site_hse06_10hf_ddec_charge
 _atom_site_hse06_10hf_ddec_spin_density
 _atom_site_hse06_10hf_ddec_sum_bond_order
 _atom_site_hse06_10hf_magmom
 _atom_site_hse06_ddec_charge
 _atom_site_hse06_ddec_spin_density
 _atom_site_hse06_ddec_sum_bond_order
 _atom_site_hse06_magmom
 _atom_site_pbe_cm5_charge
 _atom_site_pbe_ddec_charge
 _atom_site_pbe_ddec_spin_density
 _atom_site_pbe_ddec_sum_bond_order
 _atom_site_pbe_magmom
Co  Co0  1  0.07026375  0.86529334  0.91113757  1  0.849541  2.783008  2.172094  2.499  0.779208  2.799782  2.639079  2.554  0.873571  2.852649  2.552837  2.653  0.690067  0.703554  2.747825  2.706735  2.461
Co  Co1  1  0.57027735  0.63469974  0.08885995  1  0.849563  2.78299  2.172045  2.499  0.779226  2.799761  2.639006  2.554  0.873598  2.852629  2.552751  2.653  0.690063  0.703586  2.747815  2.706664  2.461
Co  Co2  1  0.92974900  0.13471119  0.08886294  1  0.849661  2.78298  2.172094  2.499  0.779333  2.799756  2.63906  2.554  0.873699  2.852628  2.552803  2.653  0.690081  0.70368  2.747798  2.70672  2.461
Co  Co3  1  0.42973201  0.36529249  0.91114166  1  0.849526  2.782938  2.172251  2.499  0.779281  2.799706  2.639194  2.554  0.873672  2.852589  2.552902  2.653  0.690191  0.703637  2.747742  2.706861  2.461
H  H4  1  0.35789236  0.86813882  0.13857879  1  0.36306  -0.000568  0.915776  -0.001  0.344324  -0.000157  0.979585  0.0  0.352947  -0.000206  0.971662  0.0  0.30449  0.338032  -7.4e-05  0.985169  0.0
H  H5  1  0.85791022  0.63185440  0.86141164  1  0.362969  -0.000568  0.915713  -0.001  0.344217  -0.000157  0.979588  0.0  0.352842  -0.000206  0.971665  0.0  0.304374  0.337924  -7.5e-05  0.985172  0.0
H  H6  1  0.64208195  0.13184525  0.86142189  1  0.362949  -0.000568  0.915626  -0.001  0.344196  -0.000157  0.979515  0.0  0.352819  -0.000206  0.971597  0.0  0.304379  0.337901  -7.5e-05  0.985099  0.0
H  H7  1  0.14210592  0.36814920  0.13858127  1  0.362928  -0.000566  0.9157  -0.001  0.344188  -0.000157  0.979557  0.0  0.352811  -0.000206  0.971637  0.0  0.304429  0.337897  -7.4e-05  0.985139  0.0
H  H8  1  0.23219069  0.94946861  0.07723946  1  0.3374  -0.000254  0.903427  0.0  0.316275  0.000524  0.974969  0.0  0.32238  0.000311  0.970549  0.0  0.309387  0.311838  0.00073  0.978201  0.0
H  H9  1  0.73219568  0.55050153  0.92275896  1  0.337291  -0.000255  0.903503  0.0  0.31617  0.000524  0.975065  0.0  0.322277  0.000311  0.970646  0.0  0.309325  0.311731  0.00073  0.978298  0.0
H  H10  1  0.76779832  0.05049599  0.92276338  1  0.337304  -0.000255  0.903391  0.0  0.316156  0.000524  0.974983  0.0  0.322267  0.000311  0.97056  0.0  0.309311  0.311717  0.00073  0.978216  0.0
H  H11  1  0.26780576  0.44948261  0.07723548  1  0.337293  -0.000253  0.903454  0.0  0.316158  0.000524  0.97503  0.0  0.322266  0.00031  0.97061  0.0  0.309319  0.311721  0.00073  0.978265  0.0
H  H12  1  0.95740913  0.53686653  0.64894120  1  0.098718  6.1e-05  0.966809  0.0  0.106381  0.000103  1.031726  0.0  0.110508  5.1e-05  1.028035  0.0  0.102052  0.103368  0.000169  1.034488  0.0
H  H13  1  0.45739931  0.96313822  0.35105593  1  0.098949  6.2e-05  0.966903  0.0  0.106603  0.000103  1.031806  0.0  0.110728  5.1e-05  1.028111  0.0  0.102133  0.103591  0.000168  1.034567  0.0
H  H14  1  0.04259232  0.46312885  0.35105515  1  0.098943  6.4e-05  0.966936  0.0  0.10663  0.000103  1.03178  0.0  0.110726  5.1e-05  1.028132  0.0  0.102175  0.103619  0.000169  1.034543  0.0
H  H15  1  0.54256483  0.03685402  0.64894569  1  0.098734  6.2e-05  0.966775  0.0  0.106404  0.000103  1.031701  0.0  0.110515  5.1e-05  1.028022  0.0  0.102098  0.103385  0.000168  1.034488  0.0
H  H16  1  0.13843342  0.62701506  0.41332134  1  0.091575  -1.6e-05  0.95188  0.0  0.105896  -5e-06  1.005274  0.0  0.10878  -4e-06  1.003419  0.0  0.104509  0.103796  -6e-06  1.006695  0.0
H  H17  1  0.63843497  0.87299161  0.58667279  1  0.091486  -1.5e-05  0.951971  0.0  0.105848  -5e-06  1.005314  0.0  0.108715  -4e-06  1.00348  0.0  0.104466  0.103744  -6e-06  1.006736  0.0
H  H18  1  0.86156803  0.37300803  0.58666690  1  0.091515  -1.5e-05  0.951984  0.0  0.105852  -5e-06  1.005369  0.0  0.108727  -4e-06  1.003524  0.0  0.104478  0.10375  -6e-06  1.006793  0.0
H  H19  1  0.36156874  0.12701604  0.41332370  1  0.09153  -1.6e-05  0.951969  0.0  0.105887  -5e-06  1.005316  0.0  0.108755  -4e-06  1.003483  0.0  0.104487  0.10378  -6e-06  1.006763  0.0
H  H20  1  0.25273023  0.83516350  0.49177601  1  0.088321  -1e-06  0.970536  0.0  0.096979  -8e-06  1.031706  0.0  0.099087  -9e-06  1.032464  0.0  0.097422  0.095497  -7e-06  1.031234  0.0
H  H21  1  0.75275271  0.66485370  0.50822798  1  0.088132  -1e-06  0.970387  0.0  0.096868  -8e-06  1.031514  0.0  0.098978  -9e-06  1.032271  0.0  0.097392  0.095387  -7e-06  1.031037  0.0
H  H22  1  0.74728365  0.16484604  0.50823258  1  0.088209  -1e-06  0.970427  0.0  0.096916  -8e-06  1.031561  0.0  0.099025  -9e-06  1.032317  0.0  0.097408  0.095431  -7e-06  1.031094  0.0
H  H23  1  0.24726117  0.33515188  0.49176953  1  0.088317  -1e-06  0.970562  0.0  0.09704  -8e-06  1.03168  0.0  0.09915  -9e-06  1.032433  0.0  0.097435  0.09556  -7e-06  1.031201  0.0
H  H24  1  0.21757062  0.89953986  0.64905711  1  0.104186  0.000109  0.943965  0.0  0.112741  8.7e-05  1.005559  0.0  0.116193  3.1e-05  1.003482  0.0  0.104602  0.110214  0.000147  1.00719  0.0
H  H25  1  0.71757556  0.60047418  0.35094366  1  0.103939  0.000107  0.944131  0.0  0.112558  8.7e-05  1.005687  0.0  0.116011  3.1e-05  1.003609  0.0  0.104493  0.110028  0.000147  1.007318  0.0
H  H26  1  0.78241613  0.10047690  0.35094667  1  0.103981  0.000107  0.94403  0.0  0.112567  8.7e-05  1.005634  0.0  0.116022  3.1e-05  1.003553  0.0  0.104468  0.110035  0.000147  1.007262  0.0
H  H27  1  0.28241458  0.39952831  0.64905537  1  0.104081  0.000108  0.944104  0.0  0.112642  8.7e-05  1.005691  0.0  0.116096  3.1e-05  1.00361  0.0  0.104545  0.110114  0.000147  1.007321  0.0
H  H28  1  0.20245612  0.56348612  0.85054006  1  0.111384  -0.000321  0.934375  0.001  0.120428  -2.7e-05  0.993342  0.001  0.123531  -0.000102  0.988437  0.001  0.141654  0.117875  5.2e-05  0.997309  0.001
H  H29  1  0.70245853  0.93649926  0.14945792  1  0.111378  -0.000322  0.934275  0.001  0.120384  -2.7e-05  0.993292  0.001  0.123484  -0.000102  0.988394  0.001  0.141699  0.117834  5.2e-05  0.99725  0.001
H  H30  1  0.79756228  0.43651333  0.14945675  1  0.111398  -0.000321  0.934254  0.001  0.120344  -2.7e-05  0.993332  0.001  0.123441  -0.000102  0.988437  0.001  0.141691  0.117798  5.2e-05  0.997286  0.001
H  H31  1  0.29754292  0.06349600  0.85054779  1  0.111405  -0.00032  0.934329  0.001  0.120426  -2.6e-05  0.993324  0.001  0.123524  -0.000102  0.988426  0.001  0.141692  0.117876  5.3e-05  0.997282  0.001
C  C32  1  0.06170088  0.75296489  0.75044661  1  0.635995  -0.007242  3.894781  -0.006  0.59369  0.001704  4.18446  0.0  0.63071  0.00061  4.181368  0.0  0.206997  0.567247  0.002627  4.18498  0.001
C  C33  1  0.56173332  0.74705483  0.24954511  1  0.635972  -0.007241  3.894887  -0.006  0.593651  0.001703  4.184562  0.0  0.630668  0.000607  4.181474  0.0  0.206977  0.567209  0.002627  4.185082  0.001
C  C34  1  0.93830848  0.24704580  0.24955148  1  0.635948  -0.007239  3.894435  -0.006  0.593656  0.001706  4.184094  0.0  0.630677  0.000611  4.181004  0.0  0.207054  0.567211  0.00263  4.184615  0.001
C  C35  1  0.43828056  0.25294874  0.75045029  1  0.635794  -0.007241  3.894257  -0.006  0.593535  0.001704  4.183893  0.0  0.630554  0.000606  4.180809  0.0  0.206987  0.567091  0.002628  4.1844  0.001
C  C36  1  0.08441511  0.72000488  0.65680281  1  -0.06715  0.002197  3.795902  0.003  -0.041154  0.000763  4.023006  0.001  -0.050205  0.00022  4.047246  0.0  -0.021163  -0.035291  0.001305  4.00718  0.001
C  C37  1  0.58443364  0.78001493  0.34318852  1  -0.066945  0.002186  3.796122  0.003  -0.040803  0.000763  4.023038  0.001  -0.049854  0.00022  4.047289  0.0  -0.020994  -0.034936  0.001305  4.0072  0.001
C  C38  1  0.91559764  0.28000373  0.34319817  1  -0.066972  0.002187  3.795986  0.003  -0.040929  0.000763  4.023032  0.001  -0.049979  0.000221  4.047271  0.0  -0.021081  -0.035063  0.001305  4.007205  0.001
C  C39  1  0.41556894  0.22000092  0.65680640  1  -0.066696  0.002191  3.795601  0.003  -0.040692  0.000763  4.022634  0.001  -0.049742  0.000213  4.046877  0.0  -0.020998  -0.034843  0.001305  4.00688  0.001
C  C40  1  0.02038722  0.60001741  0.61195730  1  -0.113678  -0.000102  3.703207  0.0  -0.142725  0.000792  3.951181  0.001  -0.143617  0.000551  3.971561  0.001  -0.082558  -0.142156  0.001024  3.937583  0.001
C  C41  1  0.52036214  0.89998268  0.38803740  1  -0.113822  -8.6e-05  3.703363  0.0  -0.142948  0.000792  3.951315  0.001  -0.143838  0.000553  3.971688  0.001  -0.082507  -0.142404  0.001024  3.937811  0.001
C  C42  1  0.97959161  0.40000768  0.38803492  1  -0.113765  -8.9e-05  3.703692  0.0  -0.142875  0.000792  3.95158  0.001  -0.143748  0.00055  3.971986  0.001  -0.082528  -0.142307  0.001024  3.937989  0.001
C  C43  1  0.47959748  0.10001464  0.61196605  1  -0.113815  -9.4e-05  3.703467  0.0  -0.142883  0.000792  3.951448  0.001  -0.14376  0.000559  3.971829  0.001  -0.082662  -0.142735  0.001024  3.937489  0.001
C  C44  1  0.03594183  0.56304199  0.52357100  1  0.042956  0.000339  3.773569  0.001  0.052879  6.6e-05  4.025147  0.0  0.051529  -5.9e-05  4.050182  0.0  -0.008542  0.053836  0.000185  4.008001  0.0
C  C45  1  0.53592979  0.93696321  0.47642882  1  0.042621  0.00033  3.773758  0.001  0.052624  6.6e-05  4.025298  0.0  0.051272  -6.4e-05  4.050333  0.0  -0.008745  0.053192  0.000185  4.00793  0.0
C  C46  1  0.96409014  0.43695849  0.47642593  1  0.042718  0.000325  3.773926  0.001  0.052764  6.6e-05  4.025402  0.0  0.051415  -5.8e-05  4.050428  0.0  -0.008659  0.053723  0.000185  4.008256  0.0
C  C47  1  0.46407618  0.06304639  0.52357478  1  0.042798  0.000329  3.773715  0.001  0.052737  6.6e-05  4.02531  0.0  0.051386  -6.1e-05  4.050341  0.0  -0.008627  0.05501  0.000185  4.00634  0.0
C  C48  1  0.12168256  0.65085350  0.48179564  1  -0.093379  -3.9e-05  3.711996  0.0  -0.114376  0.000468  3.958642  0.001  -0.115439  0.000341  3.978994  0.0  -0.081091  -0.113307  0.000587  3.944524  0.001
C  C49  1  0.62172824  0.84918076  0.51819646  1  -0.09316  -2.7e-05  3.712296  0.0  -0.11417  0.000468  3.958893  0.001  -0.115218  0.000343  3.979254  0.0  -0.080961  -0.113119  0.000588  3.944851  0.001
C  C50  1  0.87832679  0.34916440  0.51819889  1  -0.093138  -2.5e-05  3.712254  0.0  -0.114181  0.000468  3.958859  0.001  -0.115237  0.000343  3.979215  0.0  -0.080998  -0.113111  0.000588  3.944739  0.001
C  C51  1  0.37830824  0.15084427  0.48180014  1  -0.09323  -2.9e-05  3.712093  0.0  -0.114237  0.000468  3.958746  0.001  -0.115288  0.000339  3.979107  0.0  -0.080976  -0.113578  0.000588  3.944284  0.001
C  C52  1  0.18664525  0.77011595  0.52614267  1  -0.06767  -2e-05  3.787209  0.0  -0.076776  -0.000367  4.035994  0.0  -0.080436  -0.000377  4.058865  0.0  -0.08876  -0.074264  -0.000331  4.020421  0.0
C  C53  1  0.68664187  0.72990101  0.47386062  1  -0.067424  -2.9e-05  3.786885  0.0  -0.076618  -0.000367  4.035757  0.0  -0.08028  -0.000378  4.058625  0.0  -0.08871  -0.074106  -0.000331  4.020176  0.0
C  C54  1  0.81334263  0.22991005  0.47385841  1  -0.06774  -3.1e-05  3.787058  0.0  -0.076868  -0.000367  4.035888  0.0  -0.080531  -0.000381  4.058764  0.0  -0.088787  -0.074354  -0.000331  4.020311  0.0
C  C55  1  0.31334036  0.27010553  0.52614200  1  -0.067755  -2.5e-05  3.787442  0.0  -0.076961  -0.000367  4.03629  0.0  -0.080625  -0.000371  4.059163  0.0  -0.088827  -0.074469  -0.000331  4.020804  0.0
C  C56  1  0.16802509  0.80627460  0.61376482  1  -0.063052  0.000157  3.721804  0.0  -0.088067  0.000782  3.964948  0.001  -0.086946  0.000552  3.984517  0.001  -0.081421  -0.088952  0.001011  3.952023  0.001
C  C57  1  0.66799400  0.69372998  0.38624125  1  -0.062978  0.000175  3.721876  0.0  -0.088115  0.000783  3.965103  0.001  -0.086995  0.000551  3.984681  0.001  -0.081465  -0.088997  0.001011  3.952168  0.001
C  C58  1  0.83202156  0.19372165  0.38624226  1  -0.062955  0.000178  3.721831  0.0  -0.08805  0.000782  3.965026  0.001  -0.08693  0.000552  3.984602  0.001  -0.081438  -0.088928  0.001011  3.95209  0.001
C  C59  1  0.33199388  0.30628376  0.61375843  1  -0.062989  0.000169  3.721832  0.0  -0.087994  0.000782  3.964985  0.001  -0.086873  0.000552  3.984558  0.001  -0.08138  -0.088884  0.001011  3.952064  0.001
C  C60  1  0.24720363  0.60968787  0.91198749  1  0.242387  -0.009512  3.703645  -0.004  0.189884  0.008689  3.977433  0.012  0.211776  0.006245  3.9874  0.009  0.147933  0.17416  0.010641  3.970701  0.014
C  C61  1  0.74719837  0.89029359  0.08800987  1  0.242665  -0.009505  3.703655  -0.004  0.190162  0.008683  3.977425  0.012  0.212052  0.006239  3.987394  0.009  0.147971  0.17444  0.010636  3.970689  0.014
C  C62  1  0.75280911  0.39029828  0.08801031  1  0.242651  -0.009504  3.703576  -0.004  0.190177  0.008691  3.977367  0.012  0.212073  0.006247  3.987332  0.009  0.147986  0.174451  0.010644  3.970636  0.014
C  C63  1  0.25279743  0.10969555  0.91199389  1  0.24259  -0.009494  3.703767  -0.004  0.190118  0.008691  3.977564  0.012  0.212011  0.006246  3.98753  0.009  0.148019  0.174392  0.010645  3.97083  0.014
C  C64  1  0.28955334  0.75306964  0.02694523  1  0.609946  0.007914  3.824872  0.011  0.571237  0.011557  4.098475  0.016  0.598972  0.008523  4.109395  0.012  0.333224  0.551675  0.014889  4.090129  0.02
C  C65  1  0.78956249  0.74692721  0.97306119  1  0.610127  0.007924  3.824202  0.011  0.571033  0.011568  4.098265  0.016  0.598778  0.008533  4.109181  0.012  0.333183  0.551466  0.014903  4.089923  0.02
C  C66  1  0.71043227  0.24693064  0.97306731  1  0.609943  0.007931  3.824037  0.011  0.57103  0.011574  4.09784  0.016  0.598772  0.008536  4.108759  0.012  0.333064  0.551464  0.01491  4.089493  0.02
C  C67  1  0.21043895  0.25307419  0.02694335  1  0.61015  0.007925  3.824352  0.011  0.571353  0.011565  4.098077  0.016  0.599091  0.00853  4.108991  0.012  0.333277  0.551789  0.014899  4.089736  0.02
N  N68  1  0.34713052  0.55011436  0.95492633  1  -0.291376  0.046439  3.316652  0.078  -0.254095  0.035298  3.645762  0.05  -0.280786  0.027903  3.658691  0.04  -0.28425  -0.234016  0.042456  3.637072  0.06
N  N69  1  0.84711719  0.94985940  0.04506240  1  -0.291852  0.046443  3.31699  0.078  -0.254595  0.035301  3.64615  0.05  -0.28128  0.027904  3.65909  0.04  -0.284314  -0.234509  0.042465  3.63744  0.06
N  N70  1  0.65288788  0.44986675  0.04506526  1  -0.291675  0.04645  3.31694  0.078  -0.254395  0.035304  3.646088  0.05  -0.281086  0.027902  3.659026  0.04  -0.284306  -0.234313  0.042467  3.637396  0.06
N  N71  1  0.15287408  0.05012474  0.95493204  1  -0.29165  0.046433  3.316953  0.078  -0.254369  0.035297  3.646096  0.05  -0.281056  0.027903  3.659018  0.04  -0.284294  -0.234284  0.042459  3.637395  0.06
N  N72  1  0.37592992  0.64118668  0.03050863  1  -0.432395  0.046438  3.169835  0.067  -0.392771  0.03469  3.494082  0.04  -0.425519  0.026038  3.504801  0.029  -0.301845  -0.368399  0.042707  3.487029  0.05
N  N73  1  0.87594025  0.85880254  0.96947902  1  -0.432114  0.046426  3.169805  0.067  -0.392355  0.034685  3.494143  0.04  -0.425102  0.026033  3.50485  0.029  -0.301765  -0.367986  0.042699  3.487088  0.05
N  N74  1  0.62404666  0.35880261  0.96948265  1  -0.432213  0.046427  3.169759  0.067  -0.392552  0.034692  3.494088  0.04  -0.425298  0.026044  3.504784  0.029  -0.301858  -0.368186  0.042706  3.487048  0.05
N  N75  1  0.12406232  0.14119289  0.03051295  1  -0.432456  0.046439  3.169899  0.067  -0.392814  0.034694  3.494217  0.04  -0.425555  0.026037  3.504913  0.029  -0.30195  -0.368441  0.04271  3.487164  0.05
N  N76  1  0.20729809  0.73586367  0.95346359  1  -0.513626  0.04795  3.225828  0.072  -0.461918  0.03702  3.533633  0.046  -0.50005  0.028402  3.53911  0.034  -0.380118  -0.43374  0.045  3.530632  0.056
N  N77  1  0.70730149  0.76411542  0.04654748  1  -0.513941  0.047943  3.22555  0.072  -0.461993  0.037014  3.533342  0.046  -0.500123  0.028399  3.538804  0.034  -0.380258  -0.433821  0.044993  3.530356  0.056
N  N78  1  0.79270674  0.26411405  0.04655326  1  -0.513924  0.047941  3.225405  0.072  -0.462023  0.037017  3.533123  0.046  -0.500151  0.028402  3.53858  0.034  -0.380215  -0.43385  0.044995  3.530135  0.056
N  N79  1  0.29269430  0.23587164  0.95345917  1  -0.513734  0.047946  3.225558  0.072  -0.462018  0.03702  3.533405  0.046  -0.500153  0.028404  3.538877  0.034  -0.380184  -0.433844  0.045  3.530414  0.056
N  N80  1  0.28489392  0.86379871  0.08832381  1  -0.699719  0.009639  3.061714  0.016  -0.669342  0.008468  3.288123  0.012  -0.691833  0.005214  3.283182  0.008  -0.574432  -0.651898  0.012983  3.290792  0.018
N  N81  1  0.78490774  0.63617976  0.91167797  1  -0.699632  0.009655  3.061259  0.016  -0.669169  0.008478  3.287794  0.012  -0.691673  0.005221  3.282865  0.008  -0.574278  -0.651712  0.013  3.290453  0.018
N  N82  1  0.71508831  0.13618318  0.91168664  1  -0.699532  0.00966  3.061038  0.016  -0.669086  0.008483  3.287532  0.012  -0.691591  0.005224  3.282603  0.008  -0.574201  -0.651632  0.013006  3.290192  0.018
N  N83  1  0.21510049  0.36380637  0.08832107  1  -0.699553  0.009647  3.06149  0.016  -0.669155  0.008477  3.287948  0.012  -0.691653  0.005222  3.283016  0.008  -0.574338  -0.651708  0.012995  3.290614  0.018
O  O84  1  0.10616099  0.87108044  0.79047525  1  -0.600372  0.058179  2.023202  0.098  -0.561863  0.042762  2.287521  0.066  -0.607374  0.031023  2.277407  0.048  -0.324829  -0.526066  0.053491  2.292788  0.081
O  O85  1  0.60616260  0.62892498  0.20952780  1  -0.600437  0.058174  2.023227  0.098  -0.561942  0.042757  2.287562  0.066  -0.607452  0.03102  2.277448  0.048  -0.32486  -0.526149  0.053485  2.292835  0.081
O  O86  1  0.89383932  0.12892618  0.20952113  1  -0.600385  0.058181  2.022976  0.098  -0.561889  0.042764  2.287294  0.066  -0.607403  0.031025  2.277184  0.048  -0.324809  -0.526093  0.053492  2.292561  0.081
O  O87  1  0.39382415  0.37107129  0.79047803  1  -0.600377  0.058187  2.022861  0.098  -0.561905  0.042767  2.287166  0.066  -0.607424  0.031028  2.277063  0.048  -0.32483  -0.526108  0.053497  2.29243  0.081
O  O88  1  0.00190417  0.66679256  0.78993981  1  -0.63294  0.015645  1.961067  0.028  -0.586756  0.017023  2.1857  0.029  -0.617706  0.012108  2.175769  0.022  -0.313255  -0.56293  0.022595  2.191248  0.037
O  O89  1  0.50189931  0.83321361  0.21005414  1  -0.632903  0.01564  1.960928  0.028  -0.586748  0.01702  2.185569  0.029  -0.617694  0.012107  2.175636  0.022  -0.313274  -0.562925  0.022591  2.191117  0.037
O  O90  1  0.99810293  0.33322624  0.21006420  1  -0.632893  0.015638  1.960876  0.028  -0.586716  0.017021  2.185497  0.029  -0.617662  0.012108  2.17556  0.022  -0.313315  -0.562898  0.022591  2.191047  0.037
O  O91  1  0.49808291  0.16677664  0.78994287  1  -0.632916  0.015639  1.960912  0.028  -0.586767  0.017021  2.185546  0.029  -0.617715  0.012108  2.175609  0.022  -0.313331  -0.562946  0.022591  2.191091  0.037
