# generated using pymatgen
data_Zn2H18C39I6N2O17
_symmetry_space_group_name_H-M   'P 1'
_cell_length_a   10.91859081
_cell_length_b   12.01597964
_cell_length_c   13.01691099
_cell_angle_alpha   86.03534345
_cell_angle_beta   86.37260613
_cell_angle_gamma   82.16097243
_symmetry_Int_Tables_number   1
_chemical_formula_structural   Zn2H18C39I6N2O17
_chemical_formula_sum   'Zn2 H18 C39 I6 N2 O17'
_cell_volume   1685.27311866
_cell_formula_units_Z   1
loop_
 _symmetry_equiv_pos_site_id
 _symmetry_equiv_pos_as_xyz
  1  'x, y, z'
loop_
 _atom_site_type_symbol
 _atom_site_label
 _atom_site_symmetry_multiplicity
 _atom_site_fract_x
 _atom_site_fract_y
 _atom_site_fract_z
 _atom_site_occupancy
 _atom_site_pbe_bader_charge
 _atom_site_pbe_bader_spin_density
 _atom_site_pbe_cm5_charge
 _atom_site_pbe_ddec_charge
 _atom_site_pbe_ddec_spin_density
 _atom_site_pbe_ddec_sum_bond_order
 _atom_site_pbe_magmom
Zn  Zn0  1  0.48385096  0.62360437  0.50655508  1  1.30518  0  0.689928  0.865153  0  2.296026  0
Zn  Zn1  1  0.50388592  0.38039996  0.50206986  1  1.308558  0  0.685318  0.867152  0  2.322002  0
H  H2  1  0.53887360  0.34864180  0.17934880  1  0.186957  0  0.1127  0.13209  0  1.04063  0
H  H3  1  0.97254271  0.40201153  0.27490809  1  0.093143  0  0.077127  0.006361  0  1.107802  0
H  H4  1  0.64705068  0.15401206  0.97034670  1  0.09611  0  0.108778  0.056177  0  0.981758  0
H  H5  1  0.41264834  0.74933233  0.91084146  1  0.03482  0  0.082692  0.017254  0  1.026161  0
H  H6  1  0.69320418  0.24427729  0.74779977  1  0.073892  0  0.092408  0.037174  0  0.995262  0
H  H7  1  0.30769127  0.81946272  0.76725196  1  0.062096  0  0.1047  0.049772  0  0.967877  0
H  H8  1  0.71414970  0.07502727  0.26821746  1  0.110304  0  0.115855  0.063908  0  0.966157  0
H  H9  1  0.18193858  0.73307326  0.36558075  1  0.149586  0  0.103878  0.073837  0  1.000659  0
H  H10  1  0.13243152  0.29856063  0.32144318  1  0.063986  0  0.097852  0.034357  0  1.008682  0
H  H11  1  0.83058210  0.26735826  0.53378398  1  0.111375  0  0.101175  0.056239  0  1.011756  0
H  H12  1  0.47885254  0.70938585  0.17951861  1  0.150712  0  0.117553  0.134785  0  0.981517  0
H  H13  1  0.58087868  0.81600529  0.40142665  1  0.185844  0  0.134962  0.121832  0  1.005287  0
H  H14  1  0.09810232  0.51599853  0.63999738  1  0.12134  0  0.102356  0.114722  0  0.986176  0
H  H15  1  0.34983215  0.98651132  0.70136209  1  0.122445  0  0.10789  0.112657  0  1.044555  0
H  H16  1  0.63259721  0.21515012  0.37418106  1  0.168851  0  0.13846  0.122068  0  0.973534  0
H  H17  1  0.84616693  0.60410892  0.59755445  1  0.148096  0  0.091539  0.094966  0  1.052997  0
H  H18  1  0.87969500  0.67120845  0.42502865  1  0.172124  0  0.10749  0.123695  0  1.004235  0
H  H19  1  0.12235322  0.35276145  0.54005902  1  0.101646  0  0.100357  0.097302  0  1.037979  0
C  C20  1  0.54737275  0.45850673  0.69700341  1  1.588259  0  0.206339  0.580484  0  4.18857  0
C  C21  1  0.54497572  0.54396365  0.97379966  1  -0.017379  0  -0.002973  0.01085  0  3.950618  0
C  C22  1  0.55165278  0.43480954  0.02831209  1  0.028309  0  0.008845  0.074644  0  3.922292  0
C  C23  1  0.25751637  0.52950657  0.49157463  1  1.615866  0  0.208396  0.576755  0  4.134438  0
C  C24  1  0.53517359  0.43009123  0.13726740  1  0.013538  0  -0.070415  -0.116506  0  3.880488  0
C  C25  1  0.50339103  0.63348370  0.13744182  1  -0.068035  0  -0.067757  -0.095631  0  3.913387  0
C  C26  1  0.51324473  0.64274466  0.03081933  1  0.005333  0  -0.023316  -0.024066  0  3.970911  0
C  C27  1  0.59068757  0.04545549  0.40402273  1  0.07317  0  0.000654  -0.050502  0  3.935967  0
C  C28  1  0.58166360  0.15810124  0.42382815  1  0.399061  0  0.079103  0.094925  0  3.824167  0
C  C29  1  0.44339370  0.14350203  0.56620002  1  0.4269  0  0.122969  0.180075  0  3.79413  0
C  C30  1  0.45525201  0.02384342  0.55943458  1  0.026416  0  0.013401  0.041013  0  3.968136  0
C  C31  1  0.88157789  0.49442744  0.47217319  1  0.061232  0  -0.01463  -0.023945  0  3.729374  0
C  C32  1  0.52631071  0.97443521  0.47459279  1  -0.04254  0  0.030954  0.058396  0  3.891503  0
C  C33  1  0.52880884  0.85624256  0.46625847  1  0.581826  0  0.093954  0.10256  0  3.772655  0
C  C34  1  0.40692894  0.83913512  0.61856571  1  0.432434  0  0.101748  0.140736  0  4.006027  0
C  C35  1  0.50192955  0.51862191  0.30623961  1  1.570144  0  0.208236  0.571117  0  4.206613  0
C  C36  1  0.39951090  0.95235678  0.63276935  1  0.032698  0  -0.05879  -0.145978  0  3.920899  0
C  C37  1  0.73817270  0.50037304  0.47832147  1  1.58614  0  0.201202  0.562213  0  4.168694  0
C  C38  1  0.04707820  0.55779289  0.57537007  1  -0.165873  0  -0.097334  -0.055916  0  3.65805  0
C  C39  1  0.91396642  0.53235125  0.57737142  1  -0.170922  0  -0.102908  -0.056387  0  3.693504  0
C  C40  1  0.05987148  0.59572980  0.38266698  1  -0.118722  0  -0.024798  0.024851  0  3.601102  0
C  C41  1  0.09854660  0.39463239  0.46463988  1  -0.043303  0  -0.091362  -0.133234  0  3.715464  0
C  C42  1  0.91949846  0.59052343  0.39401798  1  -0.215384  0  -0.103918  -0.095284  0  3.642924  0
C  C43  1  0.11955150  0.52165080  0.47292953  1  0.044054  0  -0.009853  -0.026547  0  3.703348  0
C  C44  1  0.93549235  0.34900264  0.33963473  1  0.901016  0  0.085272  0.261371  0  3.913176  0
C  C45  1  0.61276018  0.22080992  0.02360162  1  0.917737  0  0.100524  0.272282  0  3.9396  0
C  C46  1  0.46265384  0.75437420  0.98215179  1  0.942213  0  0.073717  0.247857  0  4.056225  0
C  C47  1  0.60970140  0.24228976  0.80121014  1  0.967777  0  0.091359  0.288517  0  3.986196  0
C  C48  1  0.34097279  0.77126985  0.69827357  1  0.973113  0  0.090809  0.209641  0  4.025069  0
C  C49  1  0.66634151  0.00818162  0.31033373  1  0.979414  0  0.113806  0.279391  0  3.93316  0
C  C50  1  0.08394104  0.72015771  0.36282838  1  0.921569  0  0.059786  0.217057  0  3.998218  0
C  C51  1  0.18100657  0.31924414  0.38921432  1  0.966117  0  0.090069  0.291997  0  3.929288  0
C  C52  1  0.92976943  0.27353165  0.51617004  1  0.931078  0  0.079177  0.259401  0  3.942033  0
C  C53  1  0.96024914  0.37998441  0.44972831  1  -0.042328  0  -0.027782  -0.048644  0  3.697176  0
C  C54  1  0.51559288  0.52693798  0.19085651  1  -0.042074  0  -0.016694  -0.028897  0  4.012167  0
C  C55  1  0.56938465  0.45259703  0.80993195  1  0.02977  0  -0.02263  -0.111041  0  3.972245  0
C  C56  1  0.57874441  0.33451558  0.97205218  1  0.037029  0  -0.009994  -0.055975  0  3.906039  0
C  C57  1  0.58015653  0.34476149  0.86419903  1  -0.07534  0  -0.000217  -0.00094  0  3.905122  0
C  C58  1  0.57032740  0.54796028  0.86507308  1  -0.228703  0  -0.021678  0.026801  0  3.802144  0
I  I59  1  0.03443712  0.73619440  0.60857322  1  0.069692  0  0.080273  0.001849  0  1.426611  0
I  I60  1  0.16495445  0.53822097  0.23857054  1  0.084774  0  0.132119  0.017699  0  1.519211  0
I  I61  1  0.82287895  0.61034720  0.25129443  1  0.130431  0  0.108206  0.038832  0  1.563539  0
I  I62  1  0.64158110  0.69188848  0.79492715  1  0.208237  0  0.165053  0.064477  0  1.687778  0
I  I63  1  0.31141245  0.21566094  0.67342888  1  0.316534  0  0.227715  0.151778  0  1.685822  0
I  I64  1  0.88410167  0.41387975  0.70968168  1  0.045706  0  0.099021  -0.013687  0  1.54306  0
N  N65  1  0.46963773  0.79216440  0.53413921  1  -1.231388  0  -0.298636  -0.204419  0  3.468118  0
N  N66  1  0.50851886  0.20653173  0.50196728  1  -1.22791  0  -0.307311  -0.216095  0  3.513981  0
O  O67  1  0.52832192  0.55383716  0.64971952  1  -1.164275  0  -0.301644  -0.525701  0  2.525126  0
O  O68  1  0.60798906  0.19711885  0.11701082  1  -1.086593  0  -0.249878  -0.344945  0  2.162006  0
O  O69  1  0.46170363  0.84422924  0.02111940  1  -1.067876  0  -0.271532  -0.343388  0  2.100118  0
O  O70  1  0.55610474  0.15883800  0.81300050  1  -1.093813  0  -0.278829  -0.385185  0  2.191288  0
O  O71  1  0.31955598  0.67530505  0.69124547  1  -1.061453  0  -0.239355  -0.305218  0  2.291364  0
O  O72  1  0.67525034  0.91322486  0.27973180  1  -1.058022  0  -0.240185  -0.329884  0  2.152637  0
O  O73  1  0.00119878  0.79480307  0.33988244  1  -1.093687  0  -0.267118  -0.335039  0  2.196744  0
O  O74  1  0.28436951  0.27143266  0.40380950  1  -1.083984  0  -0.249758  -0.329223  0  2.255421  0
O  O75  1  0.01164076  0.19680314  0.53668858  1  -1.096296  0  -0.275691  -0.363448  0  2.175856  0
O  O76  1  0.54144327  0.36499837  0.65765345  1  -1.12768  0  -0.291245  -0.524573  0  2.411417  0
O  O77  1  0.29598809  0.62405196  0.47619866  1  -1.155075  0  -0.298125  -0.522227  0  2.388121  0
O  O78  1  0.31905966  0.44098350  0.52979525  1  -1.178805  0  -0.31397  -0.553065  0  2.455231  0
O  O79  1  0.50150909  0.60942080  0.35072402  1  -1.160317  0  -0.307975  -0.533176  0  2.38681  0
O  O80  1  0.49170866  0.42164039  0.34957415  1  -1.161276  0  -0.312858  -0.535864  0  2.367161  0
O  O81  1  0.68186575  0.59825236  0.48993642  1  -1.160453  0  -0.311338  -0.529738  0  2.358533  0
O  O82  1  0.69152281  0.40970894  0.47599672  1  -1.165144  0  -0.305113  -0.533715  0  2.363038  0
O  O83  1  0.87593978  0.27343408  0.32397487  1  -1.069996  0  -0.258115  -0.330988  0  2.137679  0
