# generated using pymatgen
data_Zr3H3C26(O4F3)4
_symmetry_space_group_name_H-M   'P 1'
_cell_length_a   14.83507030
_cell_length_b   14.79192358
_cell_length_c   14.79139830
_cell_angle_alpha   60.20075917
_cell_angle_beta   60.12612725
_cell_angle_gamma   60.12129535
_symmetry_Int_Tables_number   1
_chemical_formula_structural   Zr3H3C26(O4F3)4
_chemical_formula_sum   'Zr6 H6 C52 O32 F24'
_cell_volume   2302.90018659
_cell_formula_units_Z   2
loop_
 _symmetry_equiv_pos_site_id
 _symmetry_equiv_pos_as_xyz
  1  'x, y, z'
loop_
 _atom_site_type_symbol
 _atom_site_label
 _atom_site_symmetry_multiplicity
 _atom_site_fract_x
 _atom_site_fract_y
 _atom_site_fract_z
 _atom_site_occupancy
 _atom_site_pbe_bader_charge
 _atom_site_pbe_bader_spin_density
 _atom_site_pbe_cm5_charge
 _atom_site_pbe_ddec_charge
 _atom_site_pbe_ddec_spin_density
 _atom_site_pbe_ddec_sum_bond_order
 _atom_site_pbe_magmom
Zr  Zr0  1  0.87680565  0.88208141  0.62158505  1  2.638496  0  1.630882  2.378181  0  2.736439  0
Zr  Zr1  1  0.11523603  0.12103887  0.38306674  1  2.639206  0  1.632619  2.379802  0  2.73912  0
Zr  Zr2  1  0.11537489  0.88181866  0.62231407  1  2.639386  0  1.632736  2.380285  0  2.73879  0
Zr  Zr3  1  0.87663753  0.11992799  0.38362886  1  2.638871  0  1.630966  2.37853  0  2.736452  0
Zr  Zr4  1  0.11652478  0.88166714  0.38298178  1  2.635896  0  1.631839  2.378228  0  2.742996  0
Zr  Zr5  1  0.87749850  0.12103393  0.62227383  1  2.640811  0  1.63324  2.380924  0  2.728924  0
H  H6  1  0.09244461  0.71886167  0.59479328  1  0.603738  0  0.32786  0.418134  0  0.868191  0
H  H7  1  0.09213841  0.09331417  0.22023723  1  0.621319  0  0.328661  0.418705  0  0.867738  0
H  H8  1  0.09014796  0.09584567  0.59704598  1  0.597342  0  0.332977  0.427581  0  0.851065  0
H  H9  1  0.71513856  0.09475217  0.59635233  1  0.614352  0  0.332614  0.424774  0  0.855941  0
H  H10  1  0.99203177  0.57319533  0.73802239  1  0.11318  0  0.111219  0.140893  0  1.02109  0
H  H11  1  0.99081499  0.23717693  0.07449000  1  0.12403  0  0.111232  0.14034  0  1.021232  0
C  C12  1  0.99255358  0.70383906  0.49487932  1  1.615342  0  0.24231  0.679237  0  4.095703  0
C  C13  1  0.30340511  0.99688124  0.20516162  1  1.607002  0  0.240189  0.675916  0  4.088723  0
C  C14  1  0.99191815  0.30960928  0.49570241  1  1.636828  0  0.245167  0.684222  0  4.090906  0
C  C15  1  0.70062631  0.99653885  0.81039930  1  1.607378  0  0.240864  0.676412  0  4.087254  0
C  C16  1  0.99005146  0.70265106  0.80977803  1  1.616505  0  0.243315  0.671498  0  4.091732  0
C  C17  1  0.70042330  0.99451060  0.49681602  1  1.628051  0  0.241295  0.67789  0  4.085199  0
C  C18  1  0.98962613  0.30835173  0.20403993  1  1.582229  0  0.242278  0.670864  0  4.089599  0
C  C19  1  0.30259461  0.99645913  0.49793510  1  1.618042  0  0.240938  0.676242  0  4.086836  0
C  C20  1  0.30358913  0.70398339  0.49792667  1  1.601176  0  0.240516  0.676542  0  4.08608  0
C  C21  1  0.99195301  0.99458916  0.81082293  1  1.639274  0  0.245687  0.685293  0  4.090386  0
C  C22  1  0.70036129  0.30873649  0.49789608  1  1.612344  0  0.241271  0.676615  0  4.08727  0
C  C23  1  0.99224521  0.99334404  0.20538328  1  1.615345  0  0.241636  0.678626  0  4.096237  0
C  C24  1  0.99128163  0.41392116  0.49025169  1  0.092787  0  -0.019401  -0.206048  0  3.984049  0
C  C25  1  0.99172587  0.60584410  0.48902443  1  0.118052  0  -0.023452  -0.214752  0  3.999353  0
C  C26  1  0.08670337  0.41879798  0.48243729  1  0.548623  0  0.098746  0.1714  0  4.0749  0
C  C27  1  0.89672097  0.60180189  0.49480733  1  0.564115  0  0.100326  0.170413  0  4.068754  0
C  C28  1  0.08687947  0.51305004  0.48182029  1  0.578245  0  0.096297  0.165202  0  4.08822  0
C  C29  1  0.89647693  0.50735193  0.49549309  1  0.533128  0  0.101123  0.170931  0  4.068264  0
C  C30  1  0.40795535  0.99431587  0.10803940  1  0.096207  0  -0.021579  -0.215894  0  3.960031  0
C  C31  1  0.60353601  0.99365888  0.91511434  1  0.058049  0  -0.020601  -0.21256  0  3.956908  0
C  C32  1  0.44772499  0.08398271  0.04819433  1  0.575911  0  0.101623  0.170448  0  4.060487  0
C  C33  1  0.56573051  0.90265654  0.97694541  1  0.557645  0  0.101516  0.17032  0  4.065093  0
C  C34  1  0.54233337  0.08372988  0.95463760  1  0.57983  0  0.10151  0.169028  0  4.06442  0
C  C35  1  0.47066632  0.90324406  0.06989411  1  0.557744  0  0.101964  0.170789  0  4.067822  0
C  C36  1  0.99125722  0.98909282  0.91517632  1  0.1053  0  -0.019559  -0.205822  0  3.984536  0
C  C37  1  0.99149331  0.98772294  0.10722484  1  0.079007  0  -0.023932  -0.215068  0  4.00103  0
C  C38  1  0.89657279  0.99364155  0.00874965  1  0.550126  0  0.101568  0.172001  0  4.06972  0
C  C39  1  0.08652477  0.98124516  0.01425344  1  0.572777  0  0.096771  0.165825  0  4.088712  0
C  C40  1  0.89671869  0.99293332  0.10326378  1  0.568052  0  0.100193  0.169725  0  4.071573  0
C  C41  1  0.08645398  0.98188464  0.91994636  1  0.578666  0  0.098714  0.171012  0  4.076081  0
C  C42  1  0.40792524  0.60657165  0.49550293  1  0.101809  0  -0.022036  -0.215252  0  3.957829  0
C  C43  1  0.60311184  0.41327771  0.49513211  1  0.087097  0  -0.020529  -0.21367  0  3.960337  0
C  C44  1  0.47099621  0.56880928  0.40417589  1  0.499577  0  0.103074  0.171222  0  4.065283  0
C  C45  1  0.54147606  0.45234739  0.58551601  1  0.534666  0  0.101634  0.169939  0  4.064378  0
C  C46  1  0.56586108  0.47561906  0.40375434  1  0.572882  0  0.101594  0.170059  0  4.065236  0
C  C47  1  0.44705225  0.54607912  0.58563607  1  0.612355  0  0.101511  0.170268  0  4.061342  0
C  C48  1  0.98798624  0.60096689  0.91046634  1  0.066555  0  -0.014125  -0.166669  0  3.937921  0
C  C49  1  0.99132123  0.50385121  0.90812709  1  0.011234  0  0.0029  0.086368  0  3.971954  0
C  C50  1  0.98370251  0.59985058  0.00624038  1  0.491939  0  0.103458  0.168294  0  4.07711  0
C  C51  1  0.99652292  0.50028357  0.81138465  1  0.067383  0  -0.098923  -0.23802  0  3.969308  0
C  C52  1  0.00213107  0.40512904  0.81122864  1  0.433091  0  0.092776  0.190192  0  4.110994  0
C  C53  1  0.98758000  0.40909321  0.10238883  1  0.049564  0  -0.014206  -0.16853  0  3.939567  0
C  C54  1  0.98353833  0.50470154  0.10140117  1  0.536252  0  0.103397  0.17023  0  4.076387  0
C  C55  1  0.99105395  0.40693152  0.00512072  1  0.079262  0  0.003016  0.087254  0  3.972245  0
C  C56  1  0.99583003  0.31041460  0.00149844  1  0.0128  0  -0.099117  -0.237544  0  3.968922  0
C  C57  1  0.00169406  0.31036733  0.90618847  1  0.512374  0  0.093053  0.18999  0  4.11032  0
C  C58  1  0.40744492  0.99233052  0.49410903  1  0.145236  0  -0.020533  -0.213557  0  3.950529  0
C  C59  1  0.60287198  0.99124217  0.49344357  1  0.099614  0  -0.020905  -0.216077  0  3.955511  0
C  C60  1  0.45896836  0.91031886  0.57333780  1  0.556287  0  0.102948  0.171784  0  4.057732  0
C  C61  1  0.55310418  0.07148673  0.41244497  1  0.585679  0  0.102111  0.171824  0  4.062328  0
C  C62  1  0.55340791  0.90988848  0.57309148  1  0.52962  0  0.102326  0.172013  0  4.06028  0
C  C63  1  0.45860998  0.07197987  0.41274794  1  0.523667  0  0.101941  0.170363  0  4.06066  0
O  O64  1  0.91775099  0.73813725  0.57494546  1  -1.167438  0  -0.340419  -0.60197  0  2.248213  0
O  O65  1  0.26198244  0.07476732  0.24342166  1  -1.154114  0  -0.351368  -0.607863  0  2.30707  0
O  O66  1  0.06936680  0.26894002  0.42080271  1  -1.165137  0  -0.347027  -0.60295  0  2.276521  0
O  O67  1  0.73545213  0.92325335  0.76835089  1  -1.161775  0  -0.348804  -0.605707  0  2.291386  0
O  O68  1  0.06787034  0.73920221  0.77157037  1  -1.164311  0  -0.339221  -0.598595  0  2.244692  0
O  O69  1  0.73776273  0.07273889  0.42252526  1  -1.166642  0  -0.351428  -0.609024  0  2.307583  0
O  O70  1  0.91424140  0.26768915  0.24298987  1  -1.165733  0  -0.348183  -0.606852  0  2.269247  0
O  O71  1  0.26122415  0.92236609  0.57642130  1  -1.16518  0  -0.350565  -0.605795  0  2.307612  0
O  O72  1  0.26272438  0.74006216  0.42353926  1  -1.154486  0  -0.348355  -0.606181  0  2.290298  0
O  O73  1  0.91734261  0.07433637  0.77155844  1  -1.166584  0  -0.339437  -0.595904  0  2.241224  0
O  O74  1  0.73920047  0.26851980  0.57483244  1  -1.157572  0  -0.350185  -0.606386  0  2.307938  0
O  O75  1  0.07008052  0.91921908  0.24267846  1  -1.171297  0  -0.344122  -0.597122  0  2.272511  0
O  O76  1  0.06943888  0.91966164  0.77019366  1  -1.166804  0  -0.34732  -0.603902  0  2.277338  0
O  O77  1  0.73509831  0.26656903  0.42472208  1  -1.158224  0  -0.348817  -0.605413  0  2.290312  0
O  O78  1  0.91730049  0.07326288  0.23986910  1  -1.165345  0  -0.340279  -0.601876  0  2.24699  0
O  O79  1  0.26236979  0.74233493  0.57569889  1  -1.154615  0  -0.35143  -0.608248  0  2.304888  0
O  O80  1  0.91460476  0.74161135  0.76919878  1  -1.174328  0  -0.348605  -0.607149  0  2.271088  0
O  O81  1  0.26144853  0.07477639  0.42365735  1  -1.166714  0  -0.349719  -0.605732  0  2.3072  0
O  O82  1  0.06744827  0.27019456  0.24056439  1  -1.157168  0  -0.338989  -0.597958  0  2.244344  0
O  O83  1  0.73761690  0.92042358  0.57520334  1  -1.165636  0  -0.351164  -0.608845  0  2.306115  0
O  O84  1  0.73919239  0.07376190  0.76984083  1  -1.164236  0  -0.35019  -0.606886  0  2.308585  0
O  O85  1  0.07031919  0.74121159  0.42071749  1  -1.164958  0  -0.344818  -0.597969  0  2.273855  0
O  O86  1  0.26255468  0.92249752  0.24117876  1  -1.162977  0  -0.348274  -0.605756  0  2.290032  0
O  O87  1  0.91729987  0.27035139  0.57546646  1  -1.170827  0  -0.339588  -0.595827  0  2.241949  0
O  O88  1  0.79508087  0.06836784  0.56991069  1  -1.239236  0  -0.693139  -1.07111  0  2.367811  0
O  O89  1  0.06273196  0.06937469  0.57058215  1  -1.221849  0  -0.691523  -1.07513  0  2.349835  0
O  O90  1  0.06312532  0.06851755  0.30030708  1  -1.254181  0  -0.693246  -1.075627  0  2.364483  0
O  O91  1  0.06338824  0.79893193  0.56995334  1  -1.236845  0  -0.692267  -1.075108  0  2.363492  0
O  O92  1  0.14421117  0.95206028  0.45331882  1  -1.199786  0  -0.792015  -1.155605  0  2.138635  0
O  O93  1  0.94745396  0.95112743  0.45273675  1  -1.203944  0  -0.788929  -1.151666  0  2.122474  0
O  O94  1  0.94688695  0.14918951  0.45327029  1  -1.200905  0  -0.789765  -1.152121  0  2.127696  0
O  O95  1  0.94700336  0.95199813  0.65052781  1  -1.202346  0  -0.789699  -1.151958  0  2.127909  0
F  F96  1  0.17899132  0.32907339  0.48246336  1  -0.609923  0  -0.088108  -0.105467  0  1.360571  0
F  F97  1  0.80397629  0.69098286  0.49723290  1  -0.615549  0  -0.086297  -0.102223  0  1.368935  0
F  F98  1  0.17916592  0.51039457  0.48211073  1  -0.612615  0  -0.090461  -0.107332  0  1.359093  0
F  F99  1  0.80344791  0.50834888  0.49861562  1  -0.610056  0  -0.086402  -0.102743  0  1.359386  0
F  F100  1  0.39498587  0.17591305  0.07598836  1  -0.601293  0  -0.076392  -0.086585  0  1.397468  0
F  F101  1  0.61986446  0.81015783  0.94991393  1  -0.602367  0  -0.076994  -0.087279  0  1.394866  0
F  F102  1  0.56985377  0.17554654  0.90253800  1  -0.600279  0  -0.074977  -0.08579  0  1.409993  0
F  F103  1  0.44264906  0.81182310  0.12174288  1  -0.600362  0  -0.073351  -0.084412  0  1.431612  0
F  F104  1  0.80383933  0.99608735  0.00978232  1  -0.609897  0  -0.086544  -0.10319  0  1.359895  0
F  F105  1  0.17849024  0.98224627  0.01154943  1  -0.613254  0  -0.090678  -0.107764  0  1.359585  0
F  F106  1  0.80408381  0.99480720  0.19257086  1  -0.621356  0  -0.086669  -0.102824  0  1.368114  0
F  F107  1  0.17856966  0.98254839  0.83007545  1  -0.622076  0  -0.088237  -0.105486  0  1.360562  0
F  F108  1  0.44365279  0.62143816  0.31228321  1  -0.598013  0  -0.074368  -0.085326  0  1.431637  0
F  F109  1  0.56841330  0.39957713  0.67775906  1  -0.601005  0  -0.075516  -0.0865  0  1.407695  0
F  F110  1  0.62053837  0.44902300  0.31095591  1  -0.601925  0  -0.07716  -0.087049  0  1.39506  0
F  F111  1  0.39383267  0.57344115  0.67786097  1  -0.600549  0  -0.076498  -0.08683  0  1.398006  0
F  F112  1  0.41962672  0.82848919  0.65393441  1  -0.604653  0  -0.075387  -0.085638  0  1.403509  0
F  F113  1  0.59301211  0.15270982  0.33120875  1  -0.607316  0  -0.07507  -0.086211  0  1.406994  0
F  F114  1  0.59375933  0.82807246  0.65382004  1  -0.60353  0  -0.075726  -0.086688  0  1.406977  0
F  F115  1  0.41880090  0.15331683  0.33146684  1  -0.60209  0  -0.074873  -0.085044  0  1.40468  0
F  F116  1  0.97612484  0.51150204  0.19286087  1  -0.612837  0  -0.088577  -0.107266  0  1.354735  0
F  F117  1  0.97634466  0.69119646  0.01321155  1  -0.611146  0  -0.088662  -0.107055  0  1.354592  0
F  F118  1  0.00651766  0.39986279  0.72015834  1  -0.628556  0  -0.091719  -0.125054  0  1.403294  0
F  F119  1  0.00560100  0.21952165  0.90090744  1  -0.627513  0  -0.091947  -0.125172  0  1.401718  0
