# generated using pymatgen
data_MnH12(C11O4)2
_symmetry_space_group_name_H-M   'P 1'
_cell_length_a   4.68463966
_cell_length_b   9.72427518
_cell_length_c   9.87454819
_cell_angle_alpha   75.33532168
_cell_angle_beta   80.78955956
_cell_angle_gamma   79.96204577
_symmetry_Int_Tables_number   1
_chemical_formula_structural   MnH12(C11O4)2
_chemical_formula_sum   'Mn1 H12 C22 O8'
_cell_volume   425.33181451
_cell_formula_units_Z   1
loop_
 _symmetry_equiv_pos_site_id
 _symmetry_equiv_pos_as_xyz
  1  'x, y, z'
loop_
 _atom_site_type_symbol
 _atom_site_label
 _atom_site_symmetry_multiplicity
 _atom_site_fract_x
 _atom_site_fract_y
 _atom_site_fract_z
 _atom_site_occupancy
 _atom_site_pbe_cm5_charge
 _atom_site_pbe_ddec_charge
 _atom_site_pbe_ddec_spin_density
 _atom_site_pbe_ddec_sum_bond_order
 _atom_site_pbe_magmom
Mn  Mn0  1  0.00000145  0.00000070  0.50000134  1  0.620205  1.099233  -4.660572  2.267361  -4.487
H  H1  1  0.52053544  0.76642498  0.49185123  1  0.312016  0.363404  0.000384  0.97498  0.0
H  H2  1  0.47946297  0.23357812  0.50814528  1  0.311999  0.363436  0.000384  0.974971  0.0
H  H3  1  0.68083372  0.80507065  0.87519540  1  0.104682  0.10908  0.000136  1.020659  0.0
H  H4  1  0.31917333  0.19492493  0.12480839  1  0.104675  0.109052  0.000136  1.020716  0.0
H  H5  1  0.92700363  0.17788389  0.75355014  1  0.10309  0.107686  0.000364  1.059923  0.0
H  H6  1  0.07298636  0.82211808  0.24645333  1  0.103123  0.107726  0.000364  1.059906  0.0
H  H7  1  0.70293154  0.40983967  0.61962672  1  0.108741  0.117097  6.2e-05  1.007517  0.0
H  H8  1  0.29706382  0.59015911  0.38037207  1  0.108757  0.117106  6.2e-05  1.007509  0.0
H  H9  1  0.18154909  0.63297755  0.81213313  1  0.108249  0.112619  0.000161  0.996468  0.0
H  H10  1  0.81845278  0.36702127  0.18786315  1  0.108243  0.112572  0.000161  0.996488  0.0
H  H11  1  0.41487573  0.39895111  0.94606625  1  0.101569  0.103695  -6e-06  1.00849  0.0
H  H12  1  0.58512663  0.60105307  0.05393275  1  0.101562  0.103679  -6e-06  1.008573  0.0
C  C13  1  0.42345505  0.03279888  0.70701729  1  0.241516  0.62097  -0.025799  4.145296  -0.023
C  C14  1  0.57654923  0.96719885  0.29298415  1  0.241488  0.620897  -0.025799  4.145276  -0.023
C  C15  1  0.59604917  0.88925179  0.93186226  1  -0.080924  -0.136799  -0.001462  3.93765  -0.001
C  C16  1  0.40394182  0.11074697  0.06813989  1  -0.080976  -0.136742  -0.001462  3.937622  -0.001
C  C17  1  0.45066683  0.01803465  0.86000832  1  -0.005762  -0.059735  -0.002706  3.926425  -0.002
C  C18  1  0.54933035  0.98196521  0.13999109  1  -0.005706  -0.059794  -0.002706  3.926246  -0.002
C  C19  1  0.35025903  0.13212217  0.92811362  1  -0.001084  0.049409  -0.001725  3.969182  -0.001
C  C20  1  0.64975244  0.86787345  0.07188377  1  -0.001115  0.049489  -0.001724  3.969055  -0.001
C  C21  1  0.19608843  0.27081650  0.85632974  1  0.004419  0.087125  -0.001778  3.963559  -0.001
C  C22  1  0.80391834  0.72918016  0.14367077  1  0.004376  0.087094  -0.001778  3.963611  -0.001
C  C23  1  0.98980662  0.27631314  0.76546242  1  -0.094408  -0.140298  0.000116  3.953759  0.0
C  C24  1  0.01018837  0.72368670  0.23453918  1  -0.094421  -0.14035  0.000116  3.953779  0.0
C  C25  1  0.85973596  0.40695105  0.69087620  1  -0.079816  -0.071569  -0.001897  3.965429  -0.002
C  C26  1  0.14026119  0.59304880  0.30912524  1  -0.079852  -0.071567  -0.001897  3.965413  -0.002
C  C27  1  0.93184676  0.53599871  0.70563588  1  -0.022389  -0.069806  -0.000741  4.00695  -0.001
C  C28  1  0.06814977  0.46400329  0.29436406  1  -0.02233  -0.069803  -0.000741  4.007036  -0.001
C  C29  1  0.12784514  0.53213891  0.80067163  1  -0.080411  -0.081067  -0.001376  3.979289  -0.001
C  C30  1  0.87214892  0.46786417  0.19932722  1  -0.080433  -0.081024  -0.001377  3.979232  -0.001
C  C31  1  0.25611247  0.40115880  0.87575469  1  -0.087295  -0.13013  0.000437  3.974198  0.0
C  C32  1  0.74388191  0.59884320  0.12424440  1  -0.087285  -0.130113  0.000437  3.97423  0.0
C  C33  1  0.80828999  0.67485390  0.62018836  1  0.245469  0.597351  -0.010544  4.091346  -0.011
C  C34  1  0.19171090  0.32514813  0.37980823  1  0.245414  0.597278  -0.010544  4.091485  -0.011
O  O35  1  0.61106731  0.10055740  0.61552331  1  -0.305585  -0.592805  -0.038111  2.358089  -0.02
O  O36  1  0.38893049  0.89944030  0.38447861  1  -0.305579  -0.592757  -0.038109  2.358007  -0.02
O  O37  1  0.22489363  0.97716078  0.67780614  1  -0.289293  -0.544929  -0.044075  2.342808  -0.028
O  O38  1  0.77510818  0.02283802  0.32219421  1  -0.289275  -0.544886  -0.04407  2.342912  -0.028
O  O39  1  0.59433706  0.66762777  0.55113259  1  -0.310136  -0.4612  -0.003511  2.365107  -0.004
O  O40  1  0.40566505  0.33237750  0.44886211  1  -0.310105  -0.461208  -0.003511  2.36507  -0.004
O  O41  1  0.90103941  0.78929942  0.61488881  1  -0.28274  -0.529755  -0.037647  2.345686  -0.021
O  O42  1  0.09896145  0.21070261  0.38510980  1  -0.282676  -0.529663  -0.037644  2.345756  -0.021
