# generated using pymatgen
data_CdH6C7S2(N2O)2
_symmetry_space_group_name_H-M   'P 1'
_cell_length_a   7.75812799
_cell_length_b   8.76921880
_cell_length_c   8.61361702
_cell_angle_alpha   100.18808956
_cell_angle_beta   103.39860587
_cell_angle_gamma   99.08567823
_symmetry_Int_Tables_number   1
_chemical_formula_structural   CdH6C7S2(N2O)2
_chemical_formula_sum   'Cd2 H12 C14 S4 N8 O4'
_cell_volume   548.82895652
_cell_formula_units_Z   2
loop_
 _symmetry_equiv_pos_site_id
 _symmetry_equiv_pos_as_xyz
  1  'x, y, z'
loop_
 _atom_site_type_symbol
 _atom_site_label
 _atom_site_symmetry_multiplicity
 _atom_site_fract_x
 _atom_site_fract_y
 _atom_site_fract_z
 _atom_site_occupancy
 _atom_site_hle17_bader_spin_density
 _atom_site_hle17_ddec_charge
 _atom_site_hle17_ddec_spin_density
 _atom_site_hle17_ddec_sum_bond_order
 _atom_site_hle17_magmom
 _atom_site_hse06_10hf_bader_spin_density
 _atom_site_hse06_10hf_ddec_charge
 _atom_site_hse06_10hf_ddec_spin_density
 _atom_site_hse06_10hf_ddec_sum_bond_order
 _atom_site_hse06_10hf_magmom
 _atom_site_hse06_bader_spin_density
 _atom_site_hse06_ddec_charge
 _atom_site_hse06_ddec_spin_density
 _atom_site_hse06_ddec_sum_bond_order
 _atom_site_hse06_magmom
 _atom_site_pbe_bader_spin_density
 _atom_site_pbe_cm5_charge
 _atom_site_pbe_ddec_charge
 _atom_site_pbe_ddec_spin_density
 _atom_site_pbe_ddec_sum_bond_order
 _atom_site_pbe_magmom
Cd  Cd0  1  0.73889302  0.71624631  0.79715522  1  0  1.016566  0  1.925625  0  0  0.851454  0  2.396029  0  0  0.898827  0  2.352148  0  0  0.710137  0.818179  0  2.425661  0
Cd  Cd1  1  0.26109223  0.28374433  0.20282560  1  0  1.016499  0  1.925734  0  0  0.851348  0  2.396159  0  0  0.898721  0  2.352282  0  0  0.7101  0.818065  0  2.425805  0
H  H2  1  0.80151915  0.42601283  0.02661722  1  0  0.130189  0  0.961579  0  0  0.131926  0  1.032288  0  0  0.136526  0  1.027885  0  0  0.123951  0.128656  0  1.035444  0
H  H3  1  0.19848836  0.57399900  0.97338847  1  0  0.130165  0  0.961508  0  0  0.131894  0  1.032245  0  0  0.136489  0  1.027848  0  0  0.123954  0.128644  0  1.035354  0
H  H4  1  0.67106677  0.98644166  0.55473174  1  0  0.143052  0  0.921948  0  0  0.150192  0  0.982411  0  0  0.154089  0  0.979366  0  0  0.137937  0.147425  0  0.984655  0
H  H5  1  0.32894050  0.01356892  0.44527830  1  0  0.142942  0  0.922071  0  0  0.150135  0  0.982463  0  0  0.154031  0  0.979419  0  0  0.137899  0.147364  0  0.984708  0
H  H6  1  0.62724174  0.15215077  0.02457813  1  0  0.145215  0  0.927463  0  0  0.147678  0  0.994799  0  0  0.152779  0  0.989843  0  0  0.134201  0.144003  0  0.998455  0
H  H7  1  0.37276873  0.84786220  0.97543302  1  0  0.145107  0  0.927591  0  0  0.14758  0  0.994896  0  0  0.15268  0  0.989941  0  0  0.134193  0.143908  0  0.99856  0
H  H8  1  0.79007627  0.36413065  0.46355065  1  0  0.138652  0  0.950654  0  0  0.156062  0  1.014219  0  0  0.157918  0  1.013646  0  0  0.099419  0.154683  0  1.014676  0
H  H9  1  0.20992730  0.63588110  0.53645887  1  0  0.13869  0  0.950661  0  0  0.156073  0  1.014255  0  0  0.157927  0  1.013684  0  0  0.09942  0.154689  0  1.014719  0
H  H10  1  0.81736118  0.16517594  0.41256705  1  0  0.137092  0  0.94377  0  0  0.157326  0  0.999254  0  0  0.15877  0  0.999385  0  0  0.098387  0.156263  0  0.999206  0
H  H11  1  0.18264262  0.83483708  0.58743696  1  0  0.137005  0  0.943765  0  0  0.157264  0  0.999231  0  0  0.158706  0  0.999362  0  0  0.098376  0.156204  0  0.999177  0
H  H12  1  0.99905059  0.31570742  0.54894654  1  0  0.143227  0  0.936405  0  0  0.160628  0  0.998913  0  0  0.162496  0  0.998406  0  0  0.101682  0.159283  0  0.999291  0
H  H13  1  0.00095374  0.68430200  0.45106036  1  0  0.143233  0  0.936451  0  0  0.160598  0  0.998988  0  0  0.162463  0  0.998487  0  0  0.10167  0.159255  0  0.999365  0
C  C14  1  0.76418907  0.32807880  0.92044077  1  0  -0.016091  0  3.649293  0  0  -0.062891  0  3.931576  0  0  -0.055858  0  3.939268  0  0  0.040052  -0.067559  0  3.9266  0
C  C15  1  0.23581552  0.67193183  0.07956409  1  0  -0.016258  0  3.649529  0  0  -0.063059  0  3.931817  0  0  -0.056024  0  3.939508  0  0  0.039958  -0.067729  0  3.926851  0
C  C16  1  0.78639021  0.23675665  0.65166974  1  0  0.209686  0  3.670062  0  0  0.205799  0  3.931665  0  0  0.212652  0  3.947793  0  0  0.125998  0.201144  0  3.920764  0
C  C17  1  0.21361705  0.76325399  0.34833682  1  0  0.209527  0  3.670007  0  0  0.205691  0  3.931573  0  0  0.212543  0  3.947702  0  0  0.125925  0.20104  0  3.920669  0
C  C18  1  0.69678040  0.08871271  0.65515172  1  0  -0.092158  0  3.55877  0  0  -0.137666  0  3.821112  0  0  -0.135357  0  3.832034  0  0  0.03917  -0.139338  0  3.814027  0
C  C19  1  0.30322528  0.91129668  0.34485777  1  0  -0.091898  0  3.558667  0  0  -0.137441  0  3.820944  0  0  -0.135128  0  3.831868  0  0  0.039304  -0.139112  0  3.813857  0
C  C20  1  0.67346967  0.18066237  0.92110067  1  0  -0.018284  0  3.588406  0  0  -0.062347  0  3.863298  0  0  -0.059025  0  3.872735  0  0  0.039775  -0.064722  0  3.857283  0
C  C21  1  0.32654264  0.81934706  0.07891016  1  0  -0.017983  0  3.588172  0  0  -0.062035  0  3.86303  0  0  -0.058708  0  3.872461  0  0  0.039888  -0.064431  0  3.857056  0
C  C22  1  0.85169823  0.27145076  0.51085979  1  0  -0.35954  0  3.696512  0  0  -0.438291  0  3.928707  0  0  -0.440632  0  3.934253  0  0  -0.235843  -0.436434  0  3.924856  0
C  C23  1  0.14830770  0.72855985  0.48914766  1  0  -0.35948  0  3.696433  0  0  -0.43822  0  3.92863  0  0  -0.440558  0  3.93418  0  0  -0.235834  -0.436362  0  3.924783  0
C  C24  1  0.91938341  0.97918502  0.16059064  1  0  0.304495  0  4.01018  0  0  0.286022  0  4.305617  0  0  0.30782  0  4.322431  0  0  0.146759  0.271152  0  4.293869  0
C  C25  1  0.08059179  0.02079417  0.83943933  1  0  0.304384  0  4.010009  0  0  0.285922  0  4.30544  0  0  0.307719  0  4.322254  0  0  0.146875  0.271055  0  4.293686  0
C  C26  1  0.61328307  0.58788721  0.38398776  1  0  0.307531  0  3.984417  0  0  0.28343  0  4.28884  0  0  0.305203  0  4.304454  0  0  0.151115  0.26852  0  4.278014  0
C  C27  1  0.38671329  0.41208974  0.61596127  1  0  0.307334  0  3.984128  0  0  0.283235  0  4.288554  0  0  0.305011  0  4.304161  0  0  0.151051  0.268328  0  4.277729  0
S  S28  1  0.79009602  0.80535869  0.13170438  1  0  -0.34352  0  2.208926  0  0  -0.313677  0  2.545757  0  0  -0.33387  0  2.542389  0  0  -0.144434  -0.299502  0  2.547675  0
S  S29  1  0.20988073  0.19462777  0.86831571  1  0  -0.343708  0  2.208766  0  0  -0.313866  0  2.545621  0  0  -0.334082  0  2.542298  0  0  -0.144653  -0.2997  0  2.547547  0
S  S30  1  0.55744375  0.47653504  0.19948277  1  0  -0.319601  0  2.305895  0  0  -0.272112  0  2.654834  0  0  -0.293224  0  2.648971  0  0  -0.122159  -0.2573  0  2.65849  0
S  S31  1  0.44255362  0.52344084  0.80045928  1  0  -0.319546  0  2.306133  0  0  -0.272128  0  2.655206  0  0  -0.29325  0  2.649357  0  0  -0.12218  -0.257318  0  2.658848  0
N  N32  1  0.65760107  0.67211673  0.51578354  1  0  -0.519718  0  2.86559  0  0  -0.466596  0  3.145312  0  0  -0.488054  0  3.152181  0  0  -0.38227  -0.451903  0  3.140483  0
N  N33  1  0.34237562  0.32784940  0.48416406  1  0  -0.519477  0  2.865056  0  0  -0.466351  0  3.144778  0  0  -0.487809  0  3.151641  0  0  -0.382188  -0.45164  0  3.13991  0
N  N34  1  0.01147540  0.10688882  0.18651583  1  0  -0.530881  0  2.902538  0  0  -0.467494  0  3.172103  0  0  -0.491037  0  3.180427  0  0  -0.394278  -0.451351  0  3.166195  0
N  N35  1  0.98851217  0.89308706  0.81350437  1  0  -0.530499  0  2.902701  0  0  -0.467103  0  3.172235  0  0  -0.490643  0  3.180561  0  0  -0.394149  -0.450963  0  3.166331  0
N  N36  1  0.81693238  0.35811427  0.78680578  1  0  0.219389  0  3.704696  0  0  0.262358  0  3.971276  0  0  0.263656  0  3.992807  0  0  -0.110461  0.26115  0  3.956757  0
N  N37  1  0.18307221  0.64189637  0.21319908  1  0  0.219433  0  3.704619  0  0  0.262347  0  3.97121  0  0  0.263645  0  3.992744  0  0  -0.110419  0.261139  0  3.956692  0
N  N38  1  0.63759471  0.06024618  0.78677073  1  0  0.303676  0  3.747287  0  0  0.350828  0  4.015654  0  0  0.354964  0  4.037499  0  0  -0.108132  0.347866  0  4.000991  0
N  N39  1  0.36241762  0.93976322  0.21324242  1  0  0.303611  0  3.746905  0  0  0.350751  0  4.015279  0  0  0.354884  0  4.037116  0  0  -0.10819  0.347789  0  4.000615  0
O  O40  1  0.55043444  0.91936039  0.78476629  1  0  -0.511007  0  1.769001  0  0  -0.477579  0  2.015845  0  0  -0.500233  0  2.015717  0  0  -0.228406  -0.46159  0  2.015396  0
O  O41  1  0.44958530  0.08064669  0.21524790  1  0  -0.511013  0  1.768939  0  0  -0.47758  0  2.015735  0  0  -0.50026  0  2.015666  0  0  -0.228434  -0.461589  0  2.015281  0
O  O42  1  0.89919846  0.50054803  0.78679099  1  0  -0.488016  0  1.788841  0  0  -0.44509  0  2.034581  0  0  -0.46842  0  2.033613  0  0  -0.22259  -0.428663  0  2.034728  0
O  O43  1  0.10079787  0.49946142  0.21320850  1  0  -0.488026  0  1.788647  0  0  -0.445019  0  2.034329  0  0  -0.468348  0  2.033364  0  0  -0.222577  -0.428595  0  2.034495  0
