# generated using pymatgen
data_Ag2H2C4O5
_symmetry_space_group_name_H-M   'P 1'
_cell_length_a   5.04611527
_cell_length_b   8.04875861
_cell_length_c   15.49805399
_cell_angle_alpha   90.00133010
_cell_angle_beta   103.47216935
_cell_angle_gamma   89.99879974
_symmetry_Int_Tables_number   1
_chemical_formula_structural   Ag2H2C4O5
_chemical_formula_sum   'Ag8 H8 C16 O20'
_cell_volume   612.13237049
_cell_formula_units_Z   4
loop_
 _symmetry_equiv_pos_site_id
 _symmetry_equiv_pos_as_xyz
  1  'x, y, z'
loop_
 _atom_site_type_symbol
 _atom_site_label
 _atom_site_symmetry_multiplicity
 _atom_site_fract_x
 _atom_site_fract_y
 _atom_site_fract_z
 _atom_site_occupancy
 _atom_site_hle17_bader_spin_density
 _atom_site_hle17_ddec_charge
 _atom_site_hle17_ddec_spin_density
 _atom_site_hle17_ddec_sum_bond_order
 _atom_site_hle17_magmom
 _atom_site_hse06_10hf_bader_spin_density
 _atom_site_hse06_10hf_ddec_charge
 _atom_site_hse06_10hf_ddec_spin_density
 _atom_site_hse06_10hf_ddec_sum_bond_order
 _atom_site_hse06_10hf_magmom
 _atom_site_hse06_bader_spin_density
 _atom_site_hse06_ddec_charge
 _atom_site_hse06_ddec_spin_density
 _atom_site_hse06_ddec_sum_bond_order
 _atom_site_hse06_magmom
 _atom_site_pbe_bader_spin_density
 _atom_site_pbe_cm5_charge
 _atom_site_pbe_ddec_charge
 _atom_site_pbe_ddec_spin_density
 _atom_site_pbe_ddec_sum_bond_order
 _atom_site_pbe_magmom
Ag  Ag0  1  0.73704467  0.48333216  0.93210801  1  0  0.542535  0  1.514091  0  0  0.419873  0  1.998227  0  0  0.4613  0  1.925227  0  0  0.394992  0.391421  0  2.048261  0
Ag  Ag1  1  0.76292715  0.98334354  0.56788895  1  0  0.542573  0  1.514023  0  0  0.419888  0  1.998161  0  0  0.461322  0  1.925158  0  0  0.394981  0.391429  0  2.048199  0
Ag  Ag2  1  0.26290695  0.51666459  0.06787772  1  0  0.542503  0  1.51413  0  0  0.419863  0  1.998229  0  0  0.461293  0  1.925224  0  0  0.394989  0.391407  0  2.048269  0
Ag  Ag3  1  0.23706691  0.01664700  0.43211166  1  0  0.54258  0  1.513999  0  0  0.419933  0  1.998087  0  0  0.461366  0  1.925084  0  0  0.394989  0.391474  0  2.048124  0
Ag  Ag4  1  0.05602354  0.20289115  0.94119063  1  0  0.621218  0  1.415178  0  0  0.506471  0  1.869465  0  0  0.541153  0  1.807036  0  0  0.436266  0.481954  0  1.912759  0
Ag  Ag5  1  0.44396236  0.70289972  0.55880678  1  0  0.621218  0  1.415153  0  0  0.506456  0  1.869418  0  0  0.541138  0  1.806995  0  0  0.436249  0.481943  0  1.912712  0
Ag  Ag6  1  0.94398337  0.79712920  0.05881530  1  0  0.621224  0  1.415137  0  0  0.506465  0  1.869384  0  0  0.54115  0  1.806958  0  0  0.436266  0.481946  0  1.912676  0
Ag  Ag7  1  0.55601948  0.29709579  0.44119308  1  0  0.621212  0  1.415187  0  0  0.506456  0  1.869481  0  0  0.541137  0  1.807059  0  0  0.436287  0.481945  0  1.912772  0
H  H8  1  0.37871576  0.50127155  0.72056415  1  0  0.113715  0  0.931687  0  0  0.116029  0  0.998696  0  0  0.119822  0  0.995276  0  0  0.118287  0.113263  0  1.00132  0
H  H9  1  0.12127528  0.00128447  0.77944488  1  0  0.113696  0  0.931644  0  0  0.115975  0  0.998687  0  0  0.11977  0  0.995264  0  0  0.118276  0.113209  0  1.001308  0
H  H10  1  0.62129987  0.49871899  0.27943199  1  0  0.11374  0  0.931852  0  0  0.116088  0  0.998856  0  0  0.119888  0  0.995419  0  0  0.11828  0.113317  0  1.001476  0
H  H11  1  0.87873153  0.99872719  0.22056040  1  0  0.11373  0  0.931667  0  0  0.116023  0  0.998705  0  0  0.119813  0  0.995287  0  0  0.118276  0.113255  0  1.001327  0
H  H12  1  0.83190611  0.31846693  0.63435566  1  0  0.100577  0  0.948983  0  0  0.103538  0  1.01869  0  0  0.106411  0  1.016097  0  0  0.111295  0.101399  0  1.020769  0
H  H13  1  0.66808168  0.81843742  0.86563655  1  0  0.100693  0  0.948895  0  0  0.103636  0  1.018604  0  0  0.10651  0  1.016011  0  0  0.111277  0.101496  0  1.020688  0
H  H14  1  0.16807980  0.68152733  0.36564445  1  0  0.100554  0  0.94897  0  0  0.103523  0  1.01869  0  0  0.106394  0  1.016099  0  0  0.111328  0.101387  0  1.020766  0
H  H15  1  0.33192893  0.18156555  0.13436703  1  0  0.100739  0  0.94882  0  0  0.103686  0  1.018524  0  0  0.106559  0  1.015928  0  0  0.111287  0.10155  0  1.020611  0
C  C16  1  0.05550093  0.45988637  0.79300744  1  0  0.65132  0  3.896531  0  0  0.600555  0  4.180677  0  0  0.635468  0  4.178361  0  0  0.204654  0.576763  0  4.181436  0
C  C17  1  0.44449852  0.95990301  0.70699307  1  0  0.651502  0  3.896553  0  0  0.600655  0  4.180802  0  0  0.635569  0  4.178479  0  0  0.204691  0.576836  0  4.181587  0
C  C18  1  0.94451072  0.54010541  0.20698909  1  0  0.651103  0  3.896501  0  0  0.600406  0  4.18061  0  0  0.635313  0  4.178297  0  0  0.204563  0.576615  0  4.181364  0
C  C19  1  0.55550942  0.04010367  0.29300582  1  0  0.651028  0  3.896611  0  0  0.600336  0  4.180652  0  0  0.635252  0  4.178334  0  0  0.204618  0.576541  0  4.181407  0
C  C20  1  0.17509984  0.31349385  0.56844878  1  0  0.658352  0  3.869016  0  0  0.600331  0  4.15711  0  0  0.63631  0  4.1538  0  0  0.208872  0.575781  0  4.158553  0
C  C21  1  0.32489186  0.81350505  0.93155412  1  0  0.658471  0  3.869079  0  0  0.600421  0  4.157196  0  0  0.636395  0  4.153897  0  0  0.2089  0.575871  0  4.158642  0
C  C22  1  0.82488015  0.68648924  0.43155226  1  0  0.65812  0  3.869199  0  0  0.600158  0  4.157215  0  0  0.636143  0  4.153896  0  0  0.208806  0.575607  0  4.158658  0
C  C23  1  0.67511070  0.18650785  0.06844961  1  0  0.65845  0  3.868757  0  0  0.600459  0  4.156832  0  0  0.636441  0  4.153514  0  0  0.20892  0.575914  0  4.158277  0
C  C24  1  0.15879940  0.48178901  0.70983666  1  0  0.005343  0  3.565017  0  0  -0.012672  0  3.81157  0  0  -0.012114  0  3.816469  0  0  -0.006299  -0.013161  0  3.808361  0
C  C25  1  0.34121649  0.98178974  0.79017028  1  0  0.005451  0  3.564786  0  0  -0.012497  0  3.811282  0  0  -0.011938  0  3.816181  0  0  -0.006239  -0.012976  0  3.808074  0
C  C26  1  0.84119615  0.51820153  0.29016017  1  0  0.005332  0  3.565205  0  0  -0.012809  0  3.81186  0  0  -0.012253  0  3.816766  0  0  -0.006336  -0.01329  0  3.80864  0
C  C27  1  0.65880625  0.01821943  0.20983340  1  0  0.005374  0  3.564997  0  0  -0.012654  0  3.811524  0  0  -0.012085  0  3.816401  0  0  -0.006336  -0.013139  0  3.808312  0
C  C28  1  0.01732114  0.38568138  0.63082178  1  0  -0.031325  0  3.589985  0  0  -0.052741  0  3.848127  0  0  -0.053381  0  3.852646  0  0  -0.016808  -0.052423  0  3.845213  0
C  C29  1  0.48267875  0.88565903  0.86918179  1  0  -0.031484  0  3.589693  0  0  -0.052884  0  3.847796  0  0  -0.05352  0  3.85231  0  0  -0.016774  -0.052569  0  3.844889  0
C  C30  1  0.98267033  0.61430419  0.36917480  1  0  -0.031115  0  3.589876  0  0  -0.052578  0  3.848052  0  0  -0.053213  0  3.852571  0  0  -0.016773  -0.052253  0  3.845124  0
C  C31  1  0.51732860  0.11434641  0.13082739  1  0  -0.031403  0  3.589806  0  0  -0.052769  0  3.847851  0  0  -0.053407  0  3.852357  0  0  -0.016712  -0.052468  0  3.84496  0
O  O32  1  0.84270710  0.53445559  0.80172639  1  0  -0.572965  0  2.025821  0  0  -0.501109  0  2.277929  0  0  -0.533438  0  2.267241  0  0  -0.311014  -0.478809  0  2.284544  0
O  O33  1  0.65726560  0.03445683  0.69827525  1  0  -0.573009  0  2.026111  0  0  -0.501077  0  2.278192  0  0  -0.533422  0  2.26754  0  0  -0.311005  -0.478776  0  2.284825  0
O  O34  1  0.15729808  0.46553992  0.19826716  1  0  -0.57289  0  2.025675  0  0  -0.501042  0  2.277738  0  0  -0.53339  0  2.267096  0  0  -0.311033  -0.478742  0  2.284352  0
O  O35  1  0.34271597  0.96553868  0.30172266  1  0  -0.572841  0  2.0259  0  0  -0.500993  0  2.277946  0  0  -0.533328  0  2.267271  0  0  -0.311003  -0.478697  0  2.284566  0
O  O36  1  0.20348981  0.35877911  0.84667745  1  0  -0.610811  0  2.149889  0  0  -0.533951  0  2.426389  0  0  -0.569058  0  2.417538  0  0  -0.319327  -0.509662  0  2.431754  0
O  O37  1  0.29648952  0.85879151  0.65331809  1  0  -0.610905  0  2.149731  0  0  -0.533999  0  2.426197  0  0  -0.569108  0  2.417345  0  0  -0.319345  -0.509708  0  2.431593  0
O  O38  1  0.79652229  0.64122012  0.15332234  1  0  -0.610755  0  2.149881  0  0  -0.533895  0  2.426275  0  0  -0.568996  0  2.417425  0  0  -0.319279  -0.509614  0  2.431658  0
O  O39  1  0.70351951  0.14121269  0.34668861  1  0  -0.610707  0  2.149753  0  0  -0.533848  0  2.426138  0  0  -0.568959  0  2.41729  0  0  -0.319309  -0.509563  0  2.431516  0
O  O40  1  0.10427271  0.16795195  0.53974715  1  0  -0.618793  0  2.241864  0  0  -0.525278  0  2.529178  0  0  -0.563251  0  2.517315  0  0  -0.317597  -0.499078  0  2.536469  0
O  O41  1  0.39574044  0.66795360  0.96026512  1  0  -0.618843  0  2.241511  0  0  -0.525315  0  2.52881  0  0  -0.563292  0  2.516946  0  0  -0.317628  -0.499116  0  2.53611  0
O  O42  1  0.89573428  0.83204355  0.46025943  1  0  -0.618747  0  2.241618  0  0  -0.525261  0  2.528913  0  0  -0.563243  0  2.517044  0  0  -0.317586  -0.499062  0  2.536212  0
O  O43  1  0.60425121  0.33204936  0.03973276  1  0  -0.618877  0  2.241534  0  0  -0.525339  0  2.528758  0  0  -0.563316  0  2.516891  0  0  -0.317661  -0.499144  0  2.536056  0
O  O44  1  0.36484901  0.39800703  0.54881950  1  0  -0.592955  0  2.165493  0  0  -0.506128  0  2.440797  0  0  -0.540819  0  2.430557  0  0  -0.309175  -0.482051  0  2.447174  0
O  O45  1  0.13516232  0.89801172  0.95118169  1  0  -0.593044  0  2.166049  0  0  -0.506137  0  2.441268  0  0  -0.540826  0  2.431036  0  0  -0.309224  -0.482059  0  2.44764  0
O  O46  1  0.63514274  0.60198972  0.45117904  1  0  -0.592923  0  2.166054  0  0  -0.506059  0  2.441247  0  0  -0.540747  0  2.431007  0  0  -0.309146  -0.481987  0  2.447625  0
O  O47  1  0.86485209  0.10199870  0.04882018  1  0  -0.592988  0  2.165674  0  0  -0.506222  0  2.441039  0  0  -0.540903  0  2.430785  0  0  -0.309249  -0.482145  0  2.447415  0
O  O48  1  0.99464051  0.56390991  0.63396974  1  0  -0.266211  0  2.026875  0  0  -0.214957  0  2.273557  0  0  -0.228441  0  2.270788  0  0  -0.194122  -0.205423  0  2.275425  0
O  O49  1  0.50539145  0.06390103  0.86604299  1  0  -0.266305  0  2.026556  0  0  -0.215072  0  2.273249  0  0  -0.228558  0  2.270478  0  0  -0.19417  -0.205538  0  2.275116  0
O  O50  1  0.00535698  0.43608436  0.36602657  1  0  -0.266249  0  2.026933  0  0  -0.214948  0  2.273643  0  0  -0.228433  0  2.270876  0  0  -0.194113  -0.205419  0  2.275506  0
O  O51  1  0.49464535  0.93611311  0.13396026  1  0  -0.266209  0  2.02687  0  0  -0.214988  0  2.273574  0  0  -0.228477  0  2.2708  0  0  -0.194083  -0.205451  0  2.275443  0
