# generated using pymatgen
data_Zn2H12C9N6O5
_symmetry_space_group_name_H-M   'P 1'
_cell_length_a   9.22949774
_cell_length_b   9.76337603
_cell_length_c   18.05828646
_cell_angle_alpha   95.04090451
_cell_angle_beta   97.44464242
_cell_angle_gamma   109.60964285
_symmetry_Int_Tables_number   1
_chemical_formula_structural   Zn2H12C9N6O5
_chemical_formula_sum   'Zn8 H48 C36 N24 O20'
_cell_volume   1504.84732841
_cell_formula_units_Z   4
loop_
 _symmetry_equiv_pos_site_id
 _symmetry_equiv_pos_as_xyz
  1  'x, y, z'
loop_
 _atom_site_type_symbol
 _atom_site_label
 _atom_site_symmetry_multiplicity
 _atom_site_fract_x
 _atom_site_fract_y
 _atom_site_fract_z
 _atom_site_occupancy
 _atom_site_hle17_bader_spin_density
 _atom_site_hle17_ddec_charge
 _atom_site_hle17_ddec_spin_density
 _atom_site_hle17_ddec_sum_bond_order
 _atom_site_hle17_magmom
 _atom_site_hse06_10hf_bader_spin_density
 _atom_site_hse06_10hf_ddec_charge
 _atom_site_hse06_10hf_ddec_spin_density
 _atom_site_hse06_10hf_ddec_sum_bond_order
 _atom_site_hse06_10hf_magmom
 _atom_site_hse06_bader_spin_density
 _atom_site_hse06_ddec_charge
 _atom_site_hse06_ddec_spin_density
 _atom_site_hse06_ddec_sum_bond_order
 _atom_site_hse06_magmom
 _atom_site_pbe_bader_spin_density
 _atom_site_pbe_cm5_charge
 _atom_site_pbe_ddec_charge
 _atom_site_pbe_ddec_spin_density
 _atom_site_pbe_ddec_sum_bond_order
 _atom_site_pbe_magmom
Zn  Zn0  1  0.22109545  0.30719338  0.08579668  1  0  1.005826  0  1.90192  0  0  0.811068  0  2.385662  0  0  0.856274  0  2.33199  0  0  0.701888  0.779031  0  2.421823  0
Zn  Zn1  1  0.77890822  0.69280699  0.91420484  1  0  1.005822  0  1.901823  0  0  0.81104  0  2.38556  0  0  0.856241  0  2.331895  0  0  0.701871  0.779003  0  2.421715  0
Zn  Zn2  1  0.00551335  0.76542944  0.25008167  1  0  0.956186  0  1.934717  0  0  0.768784  0  2.386888  0  0  0.808936  0  2.343926  0  0  0.695147  0.739568  0  2.41741  0
Zn  Zn3  1  0.99448332  0.23456976  0.74991987  1  0  0.956142  0  1.93479  0  0  0.768731  0  2.386964  0  0  0.808883  0  2.344002  0  0  0.695145  0.739521  0  2.417484  0
Zn  Zn4  1  0.42487537  0.91729788  0.28974716  1  0  0.897386  0  1.976437  0  0  0.683726  0  2.456641  0  0  0.726126  0  2.411706  0  0  0.736981  0.653696  0  2.487119  0
Zn  Zn5  1  0.57512172  0.08270243  0.71025335  1  0  0.897439  0  1.976371  0  0  0.683773  0  2.456578  0  0  0.72618  0  2.411637  0  0  0.736983  0.653741  0  2.487052  0
Zn  Zn6  1  0.76483631  0.21973285  0.40800411  1  0  0.982733  0  1.898598  0  0  0.79154  0  2.365108  0  0  0.840181  0  2.311724  0  0  0.683999  0.757415  0  2.401534  0
Zn  Zn7  1  0.23516318  0.78027407  0.59199523  1  0  0.982755  0  1.898617  0  0  0.791577  0  2.365126  0  0  0.840222  0  2.311744  0  0  0.684048  0.757454  0  2.40155  0
H  H8  1  0.89789801  0.72561657  0.09181755  1  0  0.427934  0  0.873028  0  0  0.394621  0  0.940397  0  0  0.405813  0  0.924146  0  0  0.286544  0.386533  0  0.952148  0
H  H9  1  0.10210357  0.27438707  0.90818288  1  0  0.42797  0  0.872989  0  0  0.394664  0  0.940344  0  0  0.405854  0  0.924098  0  0  0.286556  0.386576  0  0.952096  0
H  H10  1  0.76337702  0.62025927  0.13087851  1  0  0.408834  0  0.9009  0  0  0.378835  0  0.964388  0  0  0.388768  0  0.95001  0  0  0.285602  0.371534  0  0.975045  0
H  H11  1  0.23662377  0.37974220  0.86912065  1  0  0.408803  0  0.900951  0  0  0.378795  0  0.964454  0  0  0.38873  0  0.950075  0  0  0.285567  0.371494  0  0.975112  0
H  H12  1  0.75757181  0.50058323  0.22927509  1  0  0.421018  0  0.857449  0  0  0.395175  0  0.918508  0  0  0.404602  0  0.904542  0  0  0.299151  0.388362  0  0.928672  0
H  H13  1  0.24242679  0.49941821  0.77072392  1  0  0.421035  0  0.857423  0  0  0.395172  0  0.918508  0  0  0.404606  0  0.904535  0  0  0.299159  0.38836  0  0.928669  0
H  H14  1  0.87022058  0.48610806  0.30175536  1  0  0.436685  0  0.859164  0  0  0.401998  0  0.927447  0  0  0.41369  0  0.91054  0  0  0.287859  0.393615  0  0.939557  0
H  H15  1  0.12977662  0.51389555  0.69824422  1  0  0.436694  0  0.859175  0  0  0.402007  0  0.927454  0  0  0.413701  0  0.910544  0  0  0.28786  0.393624  0  0.939565  0
H  H16  1  0.46728272  0.59496749  0.18932979  1  0  0.092892  0  0.979083  0  0  0.099105  0  1.046553  0  0  0.102223  0  1.042449  0  0  0.1293  0.096476  0  1.050555  0
H  H17  1  0.53271725  0.40503175  0.81067142  1  0  0.092898  0  0.979077  0  0  0.099112  0  1.046546  0  0  0.102229  0  1.042442  0  0  0.129303  0.096484  0  1.050546  0
H  H18  1  0.98057999  0.45769827  0.14544162  1  0  0.09693  0  0.956374  0  0  0.105971  0  1.020013  0  0  0.108428  0  1.016604  0  0  0.13611  0.104261  0  1.022409  0
H  H19  1  0.01942000  0.54230098  0.85455848  1  0  0.096973  0  0.956375  0  0  0.105988  0  1.020042  0  0  0.108445  0  1.016632  0  0  0.136111  0.104277  0  1.022438  0
H  H20  1  0.00161670  0.03722175  0.38136059  1  0  0.099771  0  0.943624  0  0  0.106748  0  1.009226  0  0  0.109183  0  1.006388  0  0  0.13733  0.104853  0  1.011301  0
H  H21  1  0.99837438  0.96277410  0.61864095  1  0  0.099754  0  0.943619  0  0  0.106709  0  1.009259  0  0  0.109143  0  1.00642  0  0  0.137322  0.104814  0  1.011332  0
H  H22  1  0.64712592  0.77253895  0.20699683  1  0  0.090357  0  0.954237  0  0  0.103183  0  1.012881  0  0  0.104786  0  1.010469  0  0  0.137616  0.101577  0  1.015393  0
H  H23  1  0.35287117  0.22746137  0.79300313  1  0  0.090283  0  0.954352  0  0  0.103168  0  1.012898  0  0  0.104772  0  1.010486  0  0  0.13762  0.101562  0  1.01541  0
H  H24  1  0.98001328  0.73890243  0.43742415  1  0  0.121493  0  0.913124  0  0  0.133423  0  0.9664  0  0  0.136113  0  0.96336  0  0  0.148709  0.131372  0  0.968717  0
H  H25  1  0.01998381  0.26109788  0.56257636  1  0  0.121497  0  0.913175  0  0  0.133456  0  0.966413  0  0  0.13614  0  0.963382  0  0  0.148728  0.131404  0  0.968732  0
H  H26  1  0.46893810  0.87200973  0.47098227  1  0  0.095403  0  0.919522  0  0  0.109151  0  0.9752  0  0  0.11081  0  0.973445  0  0  0.142404  0.107771  0  0.976627  0
H  H27  1  0.53105582  0.12799385  0.52901597  1  0  0.095334  0  0.919592  0  0  0.109089  0  0.975273  0  0  0.110747  0  0.973519  0  0  0.142366  0.107709  0  0.976699  0
H  H28  1  0.47268346  0.18464737  0.17841013  1  0  0.101073  0  0.917373  0  0  0.114707  0  0.971516  0  0  0.11665  0  0.969221  0  0  0.143732  0.113297  0  0.973198  0
H  H29  1  0.52731024  0.81534962  0.82158999  1  0  0.101091  0  0.917432  0  0  0.114778  0  0.971513  0  0  0.116719  0  0.96922  0  0  0.143772  0.113367  0  0.973195  0
H  H30  1  0.98314799  0.03811975  0.15230086  1  0  0.114109  0  0.928703  0  0  0.124726  0  0.985278  0  0  0.127401  0  0.982142  0  0  0.142249  0.122941  0  0.987321  0
H  H31  1  0.01684678  0.96187723  0.84770154  1  0  0.114095  0  0.928768  0  0  0.124738  0  0.985319  0  0  0.127414  0  0.982183  0  0  0.142245  0.122952  0  0.987365  0
H  H32  1  0.78509049  0.41915618  0.05484207  1  0  0.086531  0  0.957755  0  0  0.101792  0  1.019053  0  0  0.103641  0  1.018268  0  0  0.092554  0.10079  0  1.019241  0
H  H33  1  0.21491241  0.58084203  0.94515707  1  0  0.086568  0  0.957688  0  0  0.101815  0  1.019  0  0  0.103663  0  1.018214  0  0  0.092565  0.100811  0  1.019189  0
H  H34  1  0.66048585  0.41872174  0.97148026  1  0  0.095339  0  0.958649  0  0  0.108722  0  1.025009  0  0  0.11063  0  1.024873  0  0  0.094651  0.107335  0  1.025066  0
H  H35  1  0.33951923  0.58127648  0.02851959  1  0  0.095355  0  0.958633  0  0  0.108701  0  1.025037  0  0  0.110606  0  1.024905  0  0  0.094642  0.107315  0  1.025093  0
H  H36  1  0.52625296  0.15398006  0.95798800  1  0  0.069043  0  0.924406  0  0  0.088046  0  0.980947  0  0  0.089576  0  0.980476  0  0  0.090723  0.087206  0  0.980852  0
H  H37  1  0.47375541  0.84601820  0.04201263  1  0  0.069119  0  0.924406  0  0  0.088079  0  0.980949  0  0  0.089609  0  0.980477  0  0  0.090714  0.087241  0  0.980857  0
H  H38  1  0.62024895  0.14309354  0.04808119  1  0  0.063594  0  0.935212  0  0  0.080797  0  0.997141  0  0  0.082258  0  0.99649  0  0  0.08824  0.079672  0  0.99756  0
H  H39  1  0.37976122  0.85690364  0.95191951  1  0  0.063688  0  0.935168  0  0  0.080812  0  0.997149  0  0  0.082272  0  0.996499  0  0  0.088257  0.079686  0  0.997569  0
H  H40  1  0.73682132  0.05936353  0.94304242  1  0  0.105318  0  0.942051  0  0  0.120452  0  1.001469  0  0  0.121942  0  1.002142  0  0  0.100828  0.119183  0  1.001076  0
H  H41  1  0.26318896  0.94063696  0.05695679  1  0  0.105288  0  0.942035  0  0  0.120428  0  1.001454  0  0  0.121918  0  1.002123  0  0  0.100831  0.119161  0  1.001058  0
H  H42  1  0.79478431  0.23643624  0.91632512  1  0  0.103254  0  0.951643  0  0  0.114227  0  1.016769  0  0  0.115967  0  1.017991  0  0  0.094168  0.112775  0  1.016246  0
H  H43  1  0.20521563  0.76355977  0.08367149  1  0  0.103239  0  0.951691  0  0  0.11422  0  1.01681  0  0  0.115958  0  1.018032  0  0  0.094152  0.112769  0  1.016287  0
H  H44  1  0.19473302  0.56750027  0.36272105  1  0  0.101209  0  0.964181  0  0  0.111994  0  1.031169  0  0  0.11314  0  1.033325  0  0  0.097887  0.111159  0  1.029927  0
H  H45  1  0.80527304  0.43250671  0.63727986  1  0  0.10128  0  0.964144  0  0  0.11208  0  1.031126  0  0  0.113229  0  1.033286  0  0  0.097956  0.111245  0  1.029887  0
H  H46  1  0.16278215  0.42014299  0.29286603  1  0  0.095045  0  0.941454  0  0  0.111208  0  1.001229  0  0  0.112486  0  1.001941  0  0  0.095209  0.1101  0  1.000872  0
H  H47  1  0.83722052  0.57986067  0.70713447  1  0  0.095094  0  0.941494  0  0  0.11128  0  1.001255  0  0  0.112564  0  1.001964  0  0  0.095236  0.110175  0  1.000897  0
H  H48  1  0.43935558  0.52418374  0.36835305  1  0  0.062151  0  0.928131  0  0  0.079995  0  0.987436  0  0  0.081183  0  0.987174  0  0  0.086288  0.079397  0  0.987069  0
H  H49  1  0.56064580  0.47581333  0.63164815  1  0  0.062117  0  0.92816  0  0  0.079975  0  0.987443  0  0  0.081162  0  0.987184  0  0  0.086265  0.079376  0  0.987077  0
H  H50  1  0.36362924  0.46544862  0.44947286  1  0  0.087437  0  0.935309  0  0  0.103667  0  0.996612  0  0  0.105512  0  0.995781  0  0  0.094779  0.102313  0  0.996996  0
H  H51  1  0.63636884  0.53454841  0.55052811  1  0  0.087414  0  0.935318  0  0  0.103638  0  0.996636  0  0  0.1055  0  0.995783  0  0  0.094763  0.102284  0  0.997017  0
H  H52  1  0.26943396  0.20556128  0.39050381  1  0  0.106766  0  0.926813  0  0  0.120893  0  0.986701  0  0  0.123739  0  0.985124  0  0  0.09895  0.118818  0  0.987933  0
H  H53  1  0.73056820  0.79443798  0.60949755  1  0  0.106718  0  0.926894  0  0  0.120882  0  0.986735  0  0  0.123724  0  0.985163  0  0  0.098924  0.118794  0  0.98798  0
H  H54  1  0.31363675  0.25608565  0.30304582  1  0  0.090051  0  0.954531  0  0  0.104695  0  1.017108  0  0  0.105831  0  1.018567  0  0  0.092046  0.104016  0  1.016059  0
H  H55  1  0.68634928  0.74391127  0.69695266  1  0  0.090058  0  0.954567  0  0  0.1047  0  1.017141  0  0  0.105836  0  1.018601  0  0  0.092052  0.104019  0  1.016097  0
C  C56  1  0.35040789  0.59676024  0.18889330  1  0  0.202125  0  3.718509  0  0  0.147359  0  3.989921  0  0  0.159404  0  4.003768  0  0  0.141242  0.139782  0  3.98035  0
C  C57  1  0.64959209  0.40323901  0.81110736  1  0  0.202121  0  3.718507  0  0  0.147345  0  3.989937  0  0  0.159389  0  4.003784  0  0  0.141221  0.139766  0  3.980366  0
C  C58  1  0.10171668  0.52482377  0.16547736  1  0  0.211244  0  3.710782  0  0  0.154188  0  3.983207  0  0  0.167425  0  3.995223  0  0  0.145523  0.145496  0  3.974809  0
C  C59  1  0.89828402  0.47517440  0.83452219  1  0  0.211156  0  3.710813  0  0  0.154117  0  3.983243  0  0  0.167353  0  3.995259  0  0  0.145519  0.145425  0  3.974846  0
C  C60  1  0.88981833  0.98392830  0.34475556  1  0  0.216478  0  3.692391  0  0  0.157955  0  3.964862  0  0  0.170876  0  3.979126  0  0  0.147798  0.149531  0  3.955237  0
C  C61  1  0.11017396  0.01607085  0.65524567  1  0  0.216538  0  3.692152  0  0  0.15805  0  3.964634  0  0  0.170975  0  3.978894  0  0  0.147824  0.149635  0  3.955013  0
C  C62  1  0.70888428  0.84973270  0.25705110  1  0  0.224731  0  3.694559  0  0  0.167624  0  3.95462  0  0  0.181248  0  3.968878  0  0  0.148996  0.1583  0  3.945394  0
C  C63  1  0.29110992  0.15026868  0.74294927  1  0  0.224912  0  3.694555  0  0  0.167794  0  3.954573  0  0  0.181418  0  3.96883  0  0  0.149074  0.158478  0  3.94535  0
C  C64  1  0.09974146  0.77849642  0.42759700  1  0  0.221086  0  3.659586  0  0  0.163656  0  3.929745  0  0  0.17683  0  3.9425  0  0  0.155242  0.155344  0  3.920883  0
C  C65  1  0.90025495  0.22150499  0.57240186  1  0  0.221132  0  3.659682  0  0  0.163687  0  3.929844  0  0  0.176864  0  3.9426  0  0  0.155266  0.155374  0  3.920984  0
C  C66  1  0.34822719  0.84601817  0.44528782  1  0  0.214357  0  3.706239  0  0  0.155543  0  3.975716  0  0  0.168998  0  3.989502  0  0  0.151403  0.146891  0  3.966267  0
C  C67  1  0.65176782  0.15398542  0.55471105  1  0  0.214584  0  3.706133  0  0  0.155741  0  3.975628  0  0  0.169196  0  3.989417  0  0  0.151531  0.147091  0  3.966176  0
C  C68  1  0.35241086  0.12178300  0.18153894  1  0  0.206605  0  3.714415  0  0  0.146822  0  3.988061  0  0  0.160282  0  4.000607  0  0  0.150549  0.138287  0  3.979147  0
C  C69  1  0.64758246  0.87821290  0.81845999  1  0  0.206591  0  3.714495  0  0  0.146743  0  3.988145  0  0  0.160209  0  4.000688  0  0  0.150541  0.138205  0  3.979229  0
C  C70  1  0.10340653  0.04694765  0.16906838  1  0  0.222548  0  3.669696  0  0  0.164848  0  3.940895  0  0  0.177582  0  3.953873  0  0  0.151973  0.156844  0  3.931437  0
C  C71  1  0.89659162  0.95305265  0.83093442  1  0  0.222556  0  3.669736  0  0  0.164827  0  3.940933  0  0  0.177559  0  3.953912  0  0  0.151955  0.15682  0  3.931478  0
C  C72  1  0.55001749  0.39085344  0.06813184  1  0  0.713916  0  3.829621  0  0  0.664079  0  4.133591  0  0  0.697176  0  4.12714  0  0  0.213327  0.641722  0  4.13768  0
C  C73  1  0.44998814  0.60914038  0.93187170  1  0  0.714003  0  3.829574  0  0  0.664155  0  4.13354  0  0  0.697254  0  4.127088  0  0  0.213309  0.641799  0  4.137628  0
C  C74  1  0.66724940  0.36512291  0.02220765  1  0  -0.27074  0  3.675517  0  0  -0.30753  0  3.924323  0  0  -0.313938  0  3.934156  0  0  -0.172197  -0.303055  0  3.916835  0
C  C75  1  0.33275387  0.63487638  0.97779323  1  0  -0.270749  0  3.675552  0  0  -0.30753  0  3.924345  0  0  -0.313936  0  3.934175  0  0  -0.172205  -0.303057  0  3.916857  0
C  C76  1  0.63569630  0.20145577  0.99863670  1  0  -0.053524  0  3.693567  0  0  -0.097175  0  3.956064  0  0  -0.096994  0  3.969782  0  0  -0.164024  -0.096977  0  3.945766  0
C  C77  1  0.36431508  0.79854471  0.00136313  1  0  -0.053785  0  3.693749  0  0  -0.097288  0  3.956112  0  0  -0.097111  0  3.969827  0  0  -0.164038  -0.097095  0  3.94582  0
C  C78  1  0.76946462  0.17663048  0.96456753  1  0  -0.266711  0  3.665654  0  0  -0.300939  0  3.915536  0  0  -0.307612  0  3.925617  0  0  -0.169621  -0.296411  0  3.908712  0
C  C79  1  0.23054496  0.82337109  0.03543168  1  0  -0.266582  0  3.665659  0  0  -0.300873  0  3.91552  0  0  -0.307537  0  3.925585  0  0  -0.169588  -0.296348  0  3.908697  0
C  C80  1  0.91775542  0.21584480  0.02177889  1  0  0.6906  0  3.836989  0  0  0.647339  0  4.1285  0  0  0.679681  0  4.122893  0  0  0.204592  0.625363  0  4.131636  0
C  C81  1  0.08225730  0.78416231  0.97821694  1  0  0.690579  0  3.837372  0  0  0.647362  0  4.128837  0  0  0.679699  0  4.123231  0  0  0.204514  0.625391  0  4.131966  0
C  C82  1  0.04945299  0.36235209  0.38580382  1  0  0.696826  0  3.817069  0  0  0.650297  0  4.111168  0  0  0.683014  0  4.105634  0  0  0.205934  0.628058  0  4.114132  0
C  C83  1  0.95054743  0.63764829  0.61419415  1  0  0.696838  0  3.817183  0  0  0.650337  0  4.111264  0  0  0.683059  0  4.105734  0  0  0.20596  0.6281  0  4.11423  0
C  C84  1  0.18936598  0.45307505  0.35446963  1  0  -0.260874  0  3.681581  0  0  -0.29506  0  3.932927  0  0  -0.301481  0  3.943099  0  0  -0.16911  -0.290647  0  3.925625  0
C  C85  1  0.81063749  0.54693080  0.64553159  1  0  -0.261032  0  3.681668  0  0  -0.295288  0  3.933103  0  0  -0.301732  0  3.943306  0  0  -0.169231  -0.290882  0  3.925814  0
C  C86  1  0.34407804  0.44055774  0.38769983  1  0  -0.063882  0  3.707088  0  0  -0.108156  0  3.968961  0  0  -0.10765  0  3.981701  0  0  -0.169711  -0.107797  0  3.9586  0
C  C87  1  0.65592224  0.55943932  0.61230129  1  0  -0.063748  0  3.707032  0  0  -0.108015  0  3.968896  0  0  -0.107513  0  3.981645  0  0  -0.169628  -0.107652  0  3.958534  0
C  C88  1  0.35155441  0.28932831  0.36431536  1  0  -0.25673  0  3.683898  0  0  -0.29079  0  3.933768  0  0  -0.297385  0  3.943682  0  0  -0.168405  -0.286112  0  3.926479  0
C  C89  1  0.64844197  0.71067308  0.63568571  1  0  -0.256757  0  3.683998  0  0  -0.290818  0  3.933837  0  0  -0.297413  0  3.943763  0  0  -0.168423  -0.286132  0  3.926552  0
C  C90  1  0.51130136  0.27956780  0.38474919  1  0  0.683553  0  3.825679  0  0  0.640838  0  4.116105  0  0  0.672865  0  4.111488  0  0  0.19732  0.6188  0  4.118795  0
C  C91  1  0.48869677  0.72042928  0.61524791  1  0  0.683567  0  3.825469  0  0  0.640824  0  4.115926  0  0  0.672853  0  4.11131  0  0  0.197359  0.618788  0  4.118612  0
N  N92  1  0.31050649  0.70096972  0.22407955  1  0  -0.286196  0  3.17109  0  0  -0.224307  0  3.465391  0  0  -0.239556  0  3.481494  0  0  -0.247163  -0.213471  0  3.453474  0
N  N93  1  0.68949349  0.29902953  0.77592111  1  0  -0.286165  0  3.171147  0  0  -0.224272  0  3.465449  0  0  -0.239522  0  3.481551  0  0  -0.247133  -0.213436  0  3.453532  0
N  N94  1  0.15005381  0.65386511  0.20896184  1  0  -0.281163  0  3.215412  0  0  -0.219804  0  3.502859  0  0  -0.23438  0  3.518617  0  0  -0.247095  -0.209233  0  3.491891  0
N  N95  1  0.84994429  0.34613194  0.79103803  1  0  -0.281159  0  3.215512  0  0  -0.219792  0  3.502943  0  0  -0.234366  0  3.5187  0  0  -0.247105  -0.209221  0  3.491975  0
N  N96  1  0.22360790  0.48488759  0.15103575  1  0  -0.439519  0  3.302445  0  0  -0.354608  0  3.609812  0  0  -0.377118  0  3.618643  0  0  -0.366  -0.338682  0  3.603081  0
N  N97  1  0.77639209  0.51511166  0.84896436  1  0  -0.439497  0  3.302355  0  0  -0.354595  0  3.609724  0  0  -0.377106  0  3.618556  0  0  -0.366002  -0.33867  0  3.602992  0
N  N98  1  0.76621774  0.02217280  0.35201521  1  0  -0.276069  0  3.179065  0  0  -0.212953  0  3.465405  0  0  -0.228941  0  3.480311  0  0  -0.249786  -0.202528  0  3.45587  0
N  N99  1  0.23377726  0.97783078  0.64798476  1  0  -0.276184  0  3.179118  0  0  -0.213094  0  3.465505  0  0  -0.229082  0  3.480407  0  0  -0.249824  -0.202669  0  3.455969  0
N  N100  1  0.64836674  0.93453396  0.29543830  1  0  -0.283065  0  3.244045  0  0  -0.203901  0  3.538711  0  0  -0.221064  0  3.552533  0  0  -0.262255  -0.192602  0  3.52953  0
N  N101  1  0.35162745  0.06546742  0.70456207  1  0  -0.283124  0  3.244195  0  0  -0.204008  0  3.538956  0  0  -0.221173  0  3.552775  0  0  -0.262313  -0.192709  0  3.529773  0
N  N102  1  0.85903183  0.87624135  0.28621790  1  0  -0.401275  0  3.226831  0  0  -0.322184  0  3.509944  0  0  -0.343936  0  3.523801  0  0  -0.344734  -0.307461  0  3.500338  0
N  N103  1  0.14096195  0.12375891  0.71378349  1  0  -0.401245  0  3.22658  0  0  -0.322155  0  3.509688  0  0  -0.343908  0  3.523547  0  0  -0.344738  -0.307457  0  3.500103  0
N  N104  1  0.30269174  0.85337342  0.37325446  1  0  -0.266334  0  3.256066  0  0  -0.192831  0  3.555229  0  0  -0.208554  0  3.568153  0  0  -0.258555  -0.182489  0  3.546987  0
N  N105  1  0.69730317  0.14662688  0.62674424  1  0  -0.266508  0  3.25602  0  0  -0.192956  0  3.555145  0  0  -0.208682  0  3.568072  0  0  -0.258593  -0.182613  0  3.5469  0
N  N106  1  0.14261632  0.80915444  0.36151021  1  0  -0.277713  0  3.15541  0  0  -0.219288  0  3.444658  0  0  -0.234228  0  3.460165  0  0  -0.242222  -0.209439  0  3.435121  0
N  N107  1  0.85737969  0.19084588  0.63848857  1  0  -0.277674  0  3.155393  0  0  -0.219257  0  3.444623  0  0  -0.234197  0  3.46013  0  0  -0.242226  -0.209407  0  3.435083  0
N  N108  1  0.22508051  0.80063336  0.48156164  1  0  -0.410964  0  3.2806  0  0  -0.32792  0  3.581456  0  0  -0.35077  0  3.591462  0  0  -0.352372  -0.312875  0  3.574484  0
N  N109  1  0.77491749  0.19937244  0.51843810  1  0  -0.411086  0  3.280666  0  0  -0.328062  0  3.581575  0  0  -0.350909  0  3.591576  0  0  -0.352453  -0.313017  0  3.574606  0
N  N110  1  0.30893230  0.00773618  0.21926938  1  0  -0.264547  0  3.272668  0  0  -0.190528  0  3.572458  0  0  -0.206333  0  3.585732  0  0  -0.258213  -0.179674  0  3.563407  0
N  N111  1  0.69106320  0.99225975  0.78073026  1  0  -0.264663  0  3.272672  0  0  -0.190646  0  3.572483  0  0  -0.206455  0  3.58576  0  0  -0.258289  -0.179781  0  3.563419  0
N  N112  1  0.14952426  0.95980801  0.21136180  1  0  -0.267638  0  3.174314  0  0  -0.210166  0  3.462293  0  0  -0.224707  0  3.478905  0  0  -0.24087  -0.199919  0  3.451134  0
N  N113  1  0.85047202  0.04019010  0.78863910  1  0  -0.267507  0  3.174258  0  0  -0.210031  0  3.462228  0  0  -0.224572  0  3.478844  0  0  -0.240782  -0.199787  0  3.451066  0
N  N114  1  0.22674718  0.14976651  0.14888671  1  0  -0.436266  0  3.293235  0  0  -0.353919  0  3.605252  0  0  -0.376228  0  3.613552  0  0  -0.362248  -0.338208  0  3.598826  0
N  N115  1  0.77324800  0.85023158  0.85111466  1  0  -0.436298  0  3.293188  0  0  -0.353928  0  3.605197  0  0  -0.376236  0  3.613497  0  0  -0.362272  -0.338215  0  3.598771  0
O  O116  1  0.59612765  0.46629260  0.13330816  1  0  -0.674137  0  1.932028  0  0  -0.614363  0  2.150278  0  0  -0.63853  0  2.138503  0  0  -0.328588  -0.597783  0  2.159169  0
O  O117  1  0.40388158  0.53369906  0.86669553  1  0  -0.674248  0  1.932037  0  0  -0.614437  0  2.150263  0  0  -0.638605  0  2.138488  0  0  -0.328555  -0.597856  0  2.15915  0
O  O118  1  0.40644519  0.33064937  0.03656599  1  0  -0.64034  0  2.028532  0  0  -0.561544  0  2.297712  0  0  -0.589791  0  2.282369  0  0  -0.330069  -0.542896  0  2.307525  0
O  O119  1  0.59355892  0.66934331  0.96343960  1  0  -0.640362  0  2.028471  0  0  -0.561548  0  2.297626  0  0  -0.589787  0  2.28226  0  0  -0.33006  -0.542899  0  2.30743  0
O  O120  1  0.91277128  0.20991634  0.09023617  1  0  -0.617886  0  1.902695  0  0  -0.569844  0  2.117332  0  0  -0.592558  0  2.108157  0  0  -0.32176  -0.554259  0  2.123108  0
O  O121  1  0.08725175  0.79009522  0.90976502  1  0  -0.61788  0  1.903079  0  0  -0.569841  0  2.117681  0  0  -0.592555  0  2.108509  0  0  -0.321722  -0.554259  0  2.123453  0
O  O122  1  0.05025651  0.25456053  0.99612705  1  0  -0.674667  0  2.032144  0  0  -0.588704  0  2.287529  0  0  -0.61824  0  2.271943  0  0  -0.333825  -0.5687  0  2.297692  0
O  O123  1  0.94975550  0.74544766  0.00386933  1  0  -0.674667  0  2.032138  0  0  -0.588678  0  2.287456  0  0  -0.618214  0  2.271868  0  0  -0.333791  -0.568678  0  2.297619  0
O  O124  1  0.91398036  0.36791145  0.35713720  1  0  -0.674805  0  2.040496  0  0  -0.590975  0  2.290436  0  0  -0.621211  0  2.275252  0  0  -0.332136  -0.570076  0  2.30037  0
O  O125  1  0.08602123  0.63209221  0.64286158  1  0  -0.674796  0  2.040572  0  0  -0.590998  0  2.290525  0  0  -0.621236  0  2.275339  0  0  -0.332148  -0.570099  0  2.300457  0
O  O126  1  0.06025105  0.28330135  0.43564870  1  0  -0.615256  0  1.911418  0  0  -0.561478  0  2.130129  0  0  -0.585628  0  2.12123  0  0  -0.313242  -0.544656  0  2.135825  0
O  O127  1  0.93974843  0.71670555  0.56435231  1  0  -0.615276  0  1.911467  0  0  -0.561506  0  2.130183  0  0  -0.585656  0  2.121283  0  0  -0.31326  -0.544683  0  2.135877  0
O  O128  1  0.53104151  0.15652470  0.36184781  1  0  -0.710527  0  2.060139  0  0  -0.63379  0  2.345844  0  0  -0.66391  0  2.331391  0  0  -0.351939  -0.61187  0  2.35492  0
O  O129  1  0.46895633  0.84347458  0.63814827  1  0  -0.710523  0  2.06009  0  0  -0.633774  0  2.345785  0  0  -0.663895  0  2.33133  0  0  -0.35197  -0.611855  0  2.354863  0
O  O130  1  0.62318930  0.38409334  0.42286524  1  0  -0.58516  0  1.898434  0  0  -0.533014  0  2.116156  0  0  -0.556758  0  2.107493  0  0  -0.309406  -0.516573  0  2.121282  0
O  O131  1  0.37680884  0.61590374  0.57713076  1  0  -0.585177  0  1.898237  0  0  -0.533032  0  2.115977  0  0  -0.556774  0  2.107312  0  0  -0.309438  -0.516593  0  2.121102  0
O  O132  1  0.85564091  0.71244757  0.13977306  1  0  -0.837037  0  1.917013  0  0  -0.778614  0  2.118807  0  0  -0.798887  0  2.086193  0  0  -0.588149  -0.763777  0  2.142178  0
O  O133  1  0.14435919  0.28755498  0.86022611  1  0  -0.837031  0  1.917022  0  0  -0.778619  0  2.118838  0  0  -0.798891  0  2.086223  0  0  -0.588135  -0.763782  0  2.14221  0
O  O134  1  0.84069855  0.55671714  0.27132312  1  0  -0.82538  0  1.876182  0  0  -0.765372  0  2.069399  0  0  -0.784848  0  2.036497  0  0  -0.58114  -0.751272  0  2.092987  0
O  O135  1  0.15929676  0.44328426  0.72867566  1  0  -0.825412  0  1.876135  0  0  -0.765381  0  2.069379  0  0  -0.784868  0  2.036456  0  0  -0.58117  -0.751281  0  2.092959  0
