# generated using pymatgen
data_CdH24C21(N3O2)2
_symmetry_space_group_name_H-M   'P 1'
_cell_length_a   10.89719587
_cell_length_b   10.85816415
_cell_length_c   13.19667621
_cell_angle_alpha   71.93072851
_cell_angle_beta   88.15780424
_cell_angle_gamma   64.51452052
_symmetry_Int_Tables_number   1
_chemical_formula_structural   CdH24C21(N3O2)2
_chemical_formula_sum   'Cd2 H48 C42 N12 O8'
_cell_volume   1330.65088359
_cell_formula_units_Z   2
loop_
 _symmetry_equiv_pos_site_id
 _symmetry_equiv_pos_as_xyz
  1  'x, y, z'
loop_
 _atom_site_type_symbol
 _atom_site_label
 _atom_site_symmetry_multiplicity
 _atom_site_fract_x
 _atom_site_fract_y
 _atom_site_fract_z
 _atom_site_occupancy
 _atom_site_pbe_bader_charge
 _atom_site_pbe_bader_spin_density
 _atom_site_pbe_cm5_charge
 _atom_site_pbe_ddec_charge
 _atom_site_pbe_ddec_spin_density
 _atom_site_pbe_ddec_sum_bond_order
 _atom_site_pbe_magmom
Cd  Cd0  1  0.10161709  0.40011555  0.17144436  1  1.193697  0  0.747785  0.841567  0  2.103278  0
Cd  Cd1  1  0.89838675  0.59988410  0.82855952  1  1.193591  0  0.747811  0.841591  0  2.103419  0
H  H2  1  0.82309697  0.95111423  0.10470333  1  0.102421  0  0.102223  0.104492  0  1.027349  0
H  H3  1  0.17689584  0.04889199  0.89529628  1  0.102471  0  0.102227  0.104475  0  1.027307  0
H  H4  1  0.21341321  0.79453508  0.98577006  1  0.087243  0  0.105717  0.112537  0  0.991292  0
H  H5  1  0.78657783  0.20547116  0.01423265  1  0.087138  0  0.105699  0.112525  0  0.991129  0
H  H6  1  0.28412400  0.19998025  0.89198101  1  0.094571  0  0.096826  0.098648  0  1.044336  0
H  H7  1  0.71588317  0.80002259  0.10802341  1  0.094601  0  0.096788  0.098619  0  1.044359  0
H  H8  1  0.55288697  0.98230206  0.18760348  1  0.117161  0  0.09518  0.101804  0  1.039718  0
H  H9  1  0.44711266  0.01768581  0.81240824  1  0.117264  0  0.09521  0.101846  0  1.039711  0
H  H10  1  0.20322669  0.19461087  0.50554668  1  0.050906  0  0.093287  0.064367  0  1.017135  0
H  H11  1  0.79676013  0.80539004  0.49445838  1  0.051021  0  0.093297  0.064332  0  1.017115  0
H  H12  1  0.28846127  0.14324438  0.39788438  1  0.071126  0  0.109506  0.090193  0  0.971731  0
H  H13  1  0.71153899  0.85675317  0.60212552  1  0.071409  0  0.10955  0.090219  0  0.971773  0
H  H14  1  0.10010427  0.06053111  0.46095102  1  0.015495  0  0.09002  0.060099  0  1.015082  0
H  H15  1  0.89989476  0.93946643  0.53904681  1  0.015603  0  0.089995  0.060074  0  1.015152  0
H  H16  1  0.98109918  0.24414460  0.41246028  1  0.054155  0  0.102467  0.077326  0  1.027367  0
H  H17  1  0.01890031  0.75585186  0.58753857  1  0.054158  0  0.102444  0.077286  0  1.027406  0
H  H18  1  0.73015853  0.36782302  0.19291175  1  0.042132  0  0.100818  0.072925  0  0.957467  0
H  H19  1  0.26984376  0.63217341  0.80708850  1  0.042106  0  0.100803  0.072939  0  0.957438  0
H  H20  1  0.82242751  0.39621540  0.28469073  1  0.047757  0  0.095277  0.060579  0  1.025548  0
H  H21  1  0.17757155  0.60377784  0.71531202  1  0.047875  0  0.095223  0.060487  0  1.025525  0
H  H22  1  0.88559502  0.13343485  0.31359383  1  0.013932  0  0.090504  0.061431  0  0.987747  0
H  H23  1  0.11441265  0.86655936  0.68640146  1  0.01409  0  0.090486  0.0614  0  0.987811  0
H  H24  1  0.93758052  0.15599703  0.18295281  1  0.057355  0  0.106462  0.086185  0  1.012999  0
H  H25  1  0.06242649  0.84400795  0.81704347  1  0.057644  0  0.106452  0.086163  0  1.013017  0
H  H26  1  0.27613737  0.03924652  0.28246382  1  0.070612  0  0.108091  0.099389  0  1.012753  0
H  H27  1  0.72386699  0.96075635  0.71753919  1  0.070714  0  0.108094  0.099383  0  1.012777  0
H  H28  1  0.16148218  0.04410706  0.18852892  1  0.078516  0  0.11314  0.107356  0  0.973598  0
H  H29  1  0.83852713  0.95589253  0.81147171  1  0.078493  0  0.113133  0.10732  0  0.973538  0
H  H30  1  0.04469263  0.87837353  0.24704247  1  0.103349  0  0.103744  0.103646  0  1.041826  0
H  H31  1  0.95530799  0.12163582  0.75295294  1  0.103241  0  0.103736  0.103597  0  1.041877  0
H  H32  1  0.07107887  0.64132532  0.36523489  1  0.116466  0  0.110668  0.122949  0  1.035375  0
H  H33  1  0.92892102  0.35867651  0.63475647  1  0.116467  0  0.110688  0.123009  0  1.03531  0
H  H34  1  0.36593435  0.62783696  0.58393780  1  0.085461  0  0.110583  0.11562  0  0.99336  0
H  H35  1  0.63405926  0.37216280  0.41606272  1  0.08553  0  0.110559  0.115552  0  0.993449  0
H  H36  1  0.34188497  0.86703582  0.46171004  1  0.055574  0  0.10925  0.112385  0  0.985202  0
H  H37  1  0.65811549  0.13295848  0.53829237  1  0.055541  0  0.109247  0.112422  0  0.985179  0
H  H38  1  0.45787189  0.35519780  0.53575307  1  0.132547  0  0.127219  0.092465  0  1.04544  0
H  H39  1  0.54213393  0.64480502  0.46423473  1  0.13262  0  0.127189  0.092469  0  1.045594  0
H  H40  1  0.16652464  0.24807014  0.70688471  1  0.196429  0  0.133599  0.110963  0  1.015049  0
H  H41  1  0.83348770  0.75192188  0.29311474  1  0.196604  0  0.133613  0.111007  0  1.015075  0
H  H42  1  0.22333900  0.39226703  0.35919690  1  0.411097  0  0.298939  0.280538  0  0.93765  0
H  H43  1  0.77665857  0.60773270  0.64081407  1  0.411081  0  0.298949  0.280544  0  0.937572  0
H  H44  1  0.06046404  0.42933128  0.37513564  1  0.465225  0  0.27961  0.253865  0  1.038116  0
H  H45  1  0.93953426  0.57066628  0.62486979  1  0.465264  0  0.279639  0.253942  0  1.038017  0
H  H46  1  0.82275138  0.54655847  0.10799637  1  0.456728  0  0.292078  0.288985  0  0.963718  0
H  H47  1  0.17724756  0.45344231  0.89201350  1  0.456521  0  0.292089  0.289072  0  0.963588  0
H  H48  1  0.87992934  0.41076351  0.06162854  1  0.477722  0  0.283205  0.287268  0  1.003553  0
H  H49  1  0.12007192  0.58924477  0.93837471  1  0.477722  0  0.283208  0.287276  0  1.003492  0
C  C50  1  0.04195640  0.70405154  0.10738346  1  1.579671  0  0.195055  0.565581  0  4.233447  0
C  C51  1  0.95803994  0.29595462  0.89260994  1  1.57997  0  0.194963  0.565639  0  4.233922  0
C  C52  1  0.02031190  0.85663190  0.05083877  1  0.001106  0  -0.016282  -0.029366  0  3.969221  0
C  C53  1  0.97968218  0.14337107  0.94915936  1  0.000457  0  -0.016358  -0.029547  0  3.969194  0
C  C54  1  0.90060794  0.97314656  0.05904956  1  -0.081814  0  -0.086609  -0.102164  0  3.983751  0
C  C55  1  0.09938077  0.02686293  0.94094937  1  -0.081703  0  -0.086567  -0.102016  0  3.983568  0
C  C56  1  0.11969486  0.88503971  0.99125711  1  -0.079646  0  -0.087747  -0.108581  0  3.987473  0
C  C57  1  0.88029792  0.11496436  0.00874307  1  -0.07935  0  -0.08772  -0.108466  0  3.987336  0
C  C58  1  0.31161713  0.21054196  0.09171240  1  1.550557  0  0.186979  0.550558  0  4.23758  0
C  C59  1  0.68837791  0.78945886  0.90828929  1  1.551032  0  0.186941  0.550396  0  4.237484  0
C  C60  1  0.41018947  0.10320799  0.04379790  1  -0.033846  0  -0.019803  -0.022298  0  3.967301  0
C  C61  1  0.58981461  0.89678522  0.95622056  1  -0.034376  0  -0.019832  -0.022117  0  3.967148  0
C  C62  1  0.37970717  0.11255059  0.93831917  1  -0.098476  0  -0.093315  -0.109604  0  3.986838  0
C  C63  1  0.62030138  0.88743501  0.06168214  1  -0.098344  0  -0.093218  -0.109538  0  3.986616  0
C  C64  1  0.53125500  0.98977762  0.10527124  1  -0.034366  0  -0.092463  -0.103559  0  3.975032  0
C  C65  1  0.46873742  0.01022324  0.89473586  1  -0.03422  0  -0.092503  -0.103665  0  3.975212  0
C  C66  1  0.18946397  0.21040175  0.41946233  1  0.270925  0  -0.07776  -0.005061  0  3.930633  0
C  C67  1  0.81053075  0.78959801  0.58054572  1  0.27066  0  -0.077806  -0.005011  0  3.930665  0
C  C68  1  0.08020515  0.16550445  0.39982262  1  0.298834  0  -0.074818  -0.091901  0  3.931094  0
C  C69  1  0.91979306  0.83449740  0.60017563  1  0.298651  0  -0.074833  -0.091913  0  3.931099  0
C  C70  1  0.83231577  0.35464981  0.21724602  1  0.258604  0  -0.0726  0.009893  0  3.940599  0
C  C71  1  0.16768626  0.64534986  0.78275870  1  0.258446  0  -0.072541  0.009937  0  3.940571  0
C  C72  1  0.93025875  0.19312966  0.25247421  1  0.300671  0  -0.070182  -0.09304  0  3.927909  0
C  C73  1  0.06974572  0.80686782  0.74751961  1  0.300253  0  -0.070112  -0.092952  0  3.927923  0
C  C74  1  0.17889648  0.03409712  0.27288710  1  0.277076  0  -0.067923  -0.136591  0  3.926553  0
C  C75  1  0.82110952  0.96590357  0.72710959  1  0.277048  0  -0.067965  -0.136681  0  3.926542  0
C  C76  1  0.19079490  0.89042686  0.34619826  1  -0.00592  0  -0.005026  0.103991  0  3.935018  0
C  C77  1  0.80920776  0.10957064  0.65379715  1  -0.005865  0  -0.005006  0.104021  0  3.934954  0
C  C78  1  0.11370623  0.82595797  0.32154017  1  -0.05265  0  -0.081062  -0.10016  0  3.927093  0
C  C79  1  0.88629746  0.17404597  0.67845350  1  -0.052456  0  -0.081063  -0.100051  0  3.926971  0
C  C80  1  0.12839580  0.69146192  0.38809797  1  -0.013451  0  -0.085311  -0.150015  0  3.963783  0
C  C81  1  0.87160647  0.30853881  0.61189736  1  -0.013438  0  -0.085364  -0.150224  0  3.963722  0
C  C82  1  0.22113362  0.62049032  0.48123075  1  0.271598  0  0.084478  0.124989  0  4.072243  0
C  C83  1  0.77886212  0.37950833  0.51876390  1  0.272264  0  0.084548  0.125183  0  4.072159  0
C  C84  1  0.29644107  0.68399571  0.50944996  1  -0.085223  0  -0.093818  -0.179109  0  4.037469  0
C  C85  1  0.70355389  0.31600725  0.49054662  1  -0.085629  0  -0.093777  -0.178999  0  4.037586  0
C  C86  1  0.28091420  0.81829133  0.44160093  1  -0.029836  0  -0.087207  -0.122769  0  3.983715  0
C  C87  1  0.71908900  0.18170509  0.55839853  1  -0.030267  0  -0.087198  -0.122866  0  3.983858  0
C  C88  1  0.36529453  0.35631880  0.56909817  1  0.976781  0  0.145507  0.075097  0  3.978542  0
C  C89  1  0.63470172  0.64368522  0.43089353  1  0.976711  0  0.145509  0.075063  0  3.978599  0
C  C90  1  0.21588962  0.30540236  0.65235195  1  0.925229  0  0.142134  0.139939  0  3.981244  0
C  C91  1  0.78412897  0.69458528  0.34764307  1  0.92567  0  0.142076  0.139939  0  3.981296  0
N  N92  1  0.14850064  0.36165565  0.35253509  1  -1.149015  0  -0.629553  -0.558437  0  3.387791  0
N  N93  1  0.85149597  0.63834839  0.64747099  1  -1.14908  0  -0.629578  -0.558533  0  3.387769  0
N  N94  1  0.06861436  0.16257924  0.29049165  1  -1.023483  0  -0.335836  -0.116359  0  3.480718  0
N  N95  1  0.93138991  0.83742148  0.70950966  1  -1.023471  0  -0.33581  -0.116216  0  3.48055  0
N  N96  1  0.88194138  0.43721014  0.13026472  1  -1.1552  0  -0.636947  -0.56786  0  3.355714  0
N  N97  1  0.11805807  0.56279816  0.86974012  1  -1.154939  0  -0.636938  -0.567945  0  3.35562  0
N  N98  1  0.24557023  0.47858346  0.54692645  1  -0.855825  0  -0.134143  0.078474  0  3.8399  0
N  N99  1  0.75443829  0.52140859  0.45306786  1  -0.855677  0  -0.134129  0.078451  0  3.839676  0
N  N100  1  0.14755784  0.44712699  0.60013972  1  -0.710412  0  -0.219414  -0.25714  0  3.132754  0
N  N101  1  0.85244484  0.55287051  0.39985645  1  -0.710749  0  -0.219441  -0.257218  0  3.133137  0
N  N102  1  0.34991901  0.24478416  0.63499669  1  -1.182446  0  -0.339606  -0.330697  0  3.245154  0
N  N103  1  0.65009001  0.75521326  0.36499466  1  -1.182886  0  -0.339589  -0.330712  0  3.245148  0
O  O104  1  0.97635449  0.67956169  0.18551064  1  -1.196231  0  -0.328408  -0.573568  0  2.193852  0
O  O105  1  0.02363015  0.32043922  0.81448088  1  -1.196241  0  -0.32828  -0.573507  0  2.194334  0
O  O106  1  0.12922115  0.60443701  0.07353345  1  -1.172202  0  -0.335444  -0.562172  0  2.23158  0
O  O107  1  0.87078409  0.39556584  0.92646801  1  -1.17227  0  -0.335445  -0.562218  0  2.231669  0
O  O108  1  0.19120548  0.29306142  0.03999386  1  -1.170953  0  -0.337729  -0.561151  0  2.218623  0
O  O109  1  0.80879306  0.70693290  0.96000560  1  -1.170864  0  -0.337725  -0.561123  0  2.218667  0
O  O110  1  0.34653029  0.21449731  0.18110118  1  -1.177942  0  -0.351375  -0.57461  0  2.119331  0
O  O111  1  0.65345930  0.78551216  0.81889620  1  -1.1779  0  -0.351336  -0.574555  0  2.119249  0
