# generated using pymatgen
data_Bi2H18C22S(N3O7)2
_symmetry_space_group_name_H-M   'P 1'
_cell_length_a   8.04235411
_cell_length_b   10.00264666
_cell_length_c   18.89200000
_cell_angle_alpha   77.76137277
_cell_angle_beta   78.61595437
_cell_angle_gamma   76.14287549
_symmetry_Int_Tables_number   1
_chemical_formula_structural   Bi2H18C22S(N3O7)2
_chemical_formula_sum   'Bi4 H36 C44 S2 N12 O28'
_cell_volume   1424.67925960
_cell_formula_units_Z   2
loop_
 _symmetry_equiv_pos_site_id
 _symmetry_equiv_pos_as_xyz
  1  'x, y, z'
loop_
 _atom_site_type_symbol
 _atom_site_label
 _atom_site_symmetry_multiplicity
 _atom_site_fract_x
 _atom_site_fract_y
 _atom_site_fract_z
 _atom_site_occupancy
 _atom_site_hle17_bader_spin_density
 _atom_site_hle17_ddec_charge
 _atom_site_hle17_ddec_spin_density
 _atom_site_hle17_ddec_sum_bond_order
 _atom_site_hle17_magmom
 _atom_site_hse06_10hf_bader_spin_density
 _atom_site_hse06_10hf_ddec_charge
 _atom_site_hse06_10hf_ddec_spin_density
 _atom_site_hse06_10hf_ddec_sum_bond_order
 _atom_site_hse06_10hf_magmom
 _atom_site_hse06_bader_spin_density
 _atom_site_hse06_ddec_charge
 _atom_site_hse06_ddec_spin_density
 _atom_site_hse06_ddec_sum_bond_order
 _atom_site_hse06_magmom
 _atom_site_pbe_bader_charge
 _atom_site_pbe_bader_spin_density
 _atom_site_pbe_cm5_charge
 _atom_site_pbe_ddec_charge
 _atom_site_pbe_ddec_spin_density
 _atom_site_pbe_ddec_sum_bond_order
 _atom_site_pbe_magmom
Bi  Bi0  1  0.27515427  0.03165810  0.74170880  1  0  1.481088  0  2.215094  0  0  1.271202  0  2.673561  0  0  1.340958  0  2.633089  0  1.802646  0  0.803508  1.221434  0  2.70206  0
Bi  Bi1  1  0.72484086  0.96833889  0.25829020  1  0  1.481009  0  2.215162  0  0  1.271127  0  2.673645  0  0  1.340885  0  2.633173  0  1.802669  0  0.8035  1.221362  0  2.702148  0
Bi  Bi2  1  0.74119808  0.84206300  0.81726591  1  0  1.68244  0  2.119541  0  0  1.46443  0  2.580035  0  0  1.54449  0  2.528756  0  1.981114  0  0.881568  1.408301  0  2.614732  0
Bi  Bi3  1  0.25880292  0.15793085  0.18273560  1  0  1.682464  0  2.119463  0  0  1.464478  0  2.57997  0  0  1.544541  0  2.528688  0  1.98104  0  0.881581  1.408345  0  2.614668  0
H  H4  1  0.19082761  0.27576451  0.46569411  1  0  0.111595  0  0.973723  0  0  0.118949  0  1.03765  0  0  0.121607  0  1.037855  0  0.120541  0  0.109258  0.117061  0  1.037607  0
H  H5  1  0.80917026  0.72423666  0.53430896  1  0  0.111586  0  0.973703  0  0  0.118934  0  1.037636  0  0  0.121592  0  1.037841  0  0.120417  0  0.109249  0.117046  0  1.037592  0
H  H6  1  0.50956248  0.24734948  0.41076346  1  0  0.115036  0  0.951097  0  0  0.122952  0  1.0126  0  0  0.126763  0  1.009718  0  0.155465  0  0.111061  0.120158  0  1.014734  0
H  H7  1  0.49043265  0.75264750  0.58923924  1  0  0.115015  0  0.951124  0  0  0.122905  0  1.012683  0  0  0.126715  0  1.009801  0  0.15535  0  0.111031  0.120112  0  1.014817  0
H  H8  1  0.73205296  0.12079027  0.49184523  1  0  0.13535  0  0.917377  0  0  0.143759  0  0.975667  0  0  0.147986  0  0.973102  0  0.164508  0  0.122904  0.140738  0  0.977619  0
H  H9  1  0.26794278  0.87919940  0.50815454  1  0  0.135416  0  0.917095  0  0  0.143776  0  0.975442  0  0  0.148002  0  0.972881  0  0.164492  0  0.122913  0.140756  0  0.977393  0
H  H10  1  0.23541758  0.64152163  0.59749623  1  0  0.121394  0  0.928292  0  0  0.133159  0  0.983081  0  0  0.136407  0  0.981689  0  0.091975  0  0.120265  0.13082  0  0.984219  0
H  H11  1  0.76459030  0.35847013  0.40251023  1  0  0.121419  0  0.928199  0  0  0.133172  0  0.983007  0  0  0.136409  0  0.98163  0  0.091553  0  0.120279  0.130832  0  0.984147  0
H  H12  1  0.07103211  0.47731373  0.57065986  1  0  0.102152  0  0.941169  0  0  0.113676  0  0.997052  0  0  0.116116  0  0.996146  0  0.121559  0  0.113136  0.112002  0  0.997714  0
H  H13  1  0.92897924  0.52268431  0.42934137  1  0  0.102181  0  0.941108  0  0  0.113661  0  0.997031  0  0  0.116099  0  0.996125  0  0.121403  0  0.113146  0.111987  0  0.997693  0
H  H14  1  0.77802704  0.46170475  0.64347527  1  0  0.130559  0  0.931934  0  0  0.136859  0  0.993199  0  0  0.141933  0  0.989183  0  0.136207  0  0.116056  0.133315  0  0.996029  0
H  H15  1  0.22197690  0.53829747  0.35652081  1  0  0.130563  0  0.931874  0  0  0.136911  0  0.993111  0  0  0.141987  0  0.989091  0  0.136148  0  0.11605  0.133368  0  0.99594  0
H  H16  1  0.67057520  0.47224839  0.07931457  1  0  0.124707  0  0.929991  0  0  0.133005  0  0.989964  0  0  0.137665  0  0.986396  0  0.149477  0  0.116107  0.12974  0  0.992538  0
H  H17  1  0.32942548  0.52775174  0.92068361  1  0  0.124656  0  0.930076  0  0  0.132948  0  0.990048  0  0  0.137611  0  0.986479  0  0.149434  0  0.116088  0.129683  0  0.992622  0
H  H18  1  0.42030465  0.62389279  0.14730853  1  0  0.104363  0  0.943326  0  0  0.114241  0  1.002152  0  0  0.117281  0  1.000438  0  0.107085  0  0.110708  0.111997  0  1.003537  0
H  H19  1  0.57970002  0.37611152  0.85268991  1  0  0.104291  0  0.943437  0  0  0.114164  0  1.002249  0  0  0.117207  0  1.000531  0  0.107036  0  0.110671  0.111918  0  1.003633  0
H  H20  1  0.27889419  0.85302796  0.07897707  1  0  0.112586  0  0.963989  0  0  0.122509  0  1.026484  0  0  0.125856  0  1.024647  0  0.097159  0  0.113349  0.120084  0  1.027912  0
H  H21  1  0.72111556  0.14697634  0.92102200  1  0  0.112579  0  0.963991  0  0  0.122462  0  1.026534  0  0  0.125817  0  1.024688  0  0.097024  0  0.113325  0.120039  0  1.027958  0
H  H22  1  0.85678252  0.92651248  0.96049747  1  0  0.426488  0  0.879209  0  0  0.390203  0  0.951906  0  0  0.401861  0  0.934981  0  0.638724  0  0.284986  0.381998  0  0.963808  0
H  H23  1  0.14321942  0.07348765  0.03950060  1  0  0.426524  0  0.879165  0  0  0.39023  0  0.95188  0  0  0.40189  0  0.934952  0  0.638686  0  0.285  0.382025  0  0.963783  0
H  H24  1  0.99334239  0.80883773  0.92501829  1  0  0.425289  0  0.821492  0  0  0.405415  0  0.880079  0  0  0.414512  0  0.869797  0  0.615489  0  0.313725  0.398945  0  0.88741  0
H  H25  1  0.00665782  0.19115926  0.07498081  1  0  0.425317  0  0.821506  0  0  0.405446  0  0.880085  0  0  0.414543  0  0.869802  0  0.615506  0  0.313731  0.398975  0  0.887417  0
H  H26  1  0.83943389  0.14467211  0.73519483  1  0  0.425637  0  0.87373  0  0  0.391061  0  0.943015  0  0  0.403536  0  0.92471  0  0.642259  0  0.289871  0.38225  0  0.955906  0
H  H27  1  0.16056905  0.85532906  0.26480569  1  0  0.425559  0  0.873822  0  0  0.390988  0  0.943102  0  0  0.403461  0  0.924798  0  0.642263  0  0.289857  0.382178  0  0.955991  0
H  H28  1  0.63997683  0.18366737  0.76906841  1  0  0.395601  0  0.893602  0  0  0.363968  0  0.971473  0  0  0.373545  0  0.957585  0  0.612154  0  0.277274  0.357299  0  0.981042  0
H  H29  1  0.36002584  0.81633485  0.23093043  1  0  0.395556  0  0.893605  0  0  0.363949  0  0.971493  0  0  0.373526  0  0.957606  0  0.612143  0  0.277281  0.35728  0  0.981062  0
H  H30  1  0.10418507  0.54195977  0.83562315  1  0  0.342643  0  0.921404  0  0  0.320747  0  0.987679  0  0  0.330598  0  0.97883  0  0.529236  0  0.299841  0.313793  0  0.993826  0
H  H31  1  0.89581580  0.45804453  0.16437772  1  0  0.342689  0  0.921389  0  0  0.320802  0  0.987646  0  0  0.330654  0  0.978795  0  0.529474  0  0.299867  0.313848  0  0.993795  0
H  H32  1  0.31547378  0.52814693  0.77798455  1  0  0.350772  0  0.925556  0  0  0.328988  0  0.990007  0  0  0.338938  0  0.981103  0  0.567252  0  0.294235  0.321953  0  0.996381  0
H  H33  1  0.68452329  0.47185738  0.22201717  1  0  0.350788  0  0.925535  0  0  0.329001  0  0.989986  0  0  0.33895  0  0.981081  0  0.567189  0  0.294257  0.321965  0  0.996362  0
H  H34  1  0.00225260  0.34804254  0.88242142  1  0  0.281688  0  0.943717  0  0  0.263967  0  1.007196  0  0  0.273109  0  0.99994  0  0.510119  0  0.305711  0.257532  0  1.01229  0
H  H35  1  0.99774626  0.65195967  0.11757933  1  0  0.281641  0  0.943693  0  0  0.263937  0  1.007174  0  0  0.273082  0  0.999912  0  0.510143  0  0.30567  0.257501  0  1.012268  0
H  H36  1  0.93475131  0.16474109  0.82860821  1  0  0.298176  0  0.921226  0  0  0.284027  0  0.982881  0  0  0.290827  0  0.977461  0  0.478821  0  0.300071  0.279129  0  0.98684  0
H  H37  1  0.06525056  0.83526426  0.17139140  1  0  0.298083  0  0.92129  0  0  0.283945  0  0.982946  0  0  0.290744  0  0.977527  0  0.478775  0  0.300049  0.279047  0  0.986906  0
H  H38  1  0.08558816  0.10472651  0.88639173  1  0  0.295031  0  0.934149  0  0  0.276042  0  1.00358  0  0  0.284  0  0.996449  0  0.507471  0  0.296785  0.270357  0  1.008673  0
H  H39  1  0.91441398  0.89527780  0.11360798  1  0  0.294989  0  0.934119  0  0  0.276016  0  1.003538  0  0  0.283974  0  0.996408  0  0.507445  0  0.296804  0.270332  0  1.00863  0
C  C40  1  0.20163783  0.35967034  0.79630207  1  0  0.507343  0  3.819259  0  0  0.456011  0  4.131673  0  0  0.484388  0  4.136804  0  1.029783  0  0.255051  0.436979  0  4.127498  0
C  C41  1  0.79836050  0.64033396  0.20369848  1  0  0.507307  0  3.819134  0  0  0.455901  0  4.131651  0  0  0.484276  0  4.136782  0  1.030044  0  0.255074  0.436869  0  4.127472  0
C  C42  1  0.06082103  0.19715403  0.61032477  1  0  0.616655  0  3.909949  0  0  0.55919  0  4.219992  0  0  0.593277  0  4.211546  0  1.620354  0  0.214229  0.536054  0  4.225398  0
C  C43  1  0.93916896  0.80284819  0.38967513  1  0  0.616728  0  3.909805  0  0  0.55929  0  4.219828  0  0  0.593374  0  4.211374  0  1.619818  0  0.214265  0.536152  0  4.225225  0
C  C44  1  0.24727482  0.17405002  0.57237783  1  0  0.103291  0  3.7311  0  0  0.102633  0  3.973802  0  0  0.104227  0  3.992844  0  0.488339  0  0.121685  0.101394  0  3.961046  0
C  C45  1  0.75272104  0.82594906  0.42762511  1  0  0.103247  0  3.731063  0  0  0.102528  0  3.973808  0  0  0.104137  0  3.992823  0  0.488641  0  0.121602  0.101292  0  3.96105  0
C  C46  1  0.29323208  0.22489159  0.49821530  1  0  -0.088896  0  3.674406  0  0  -0.111527  0  3.921343  0  0  -0.1151  0  3.941263  0  0.059998  0  -0.065619  -0.10924  0  3.908077  0
C  C47  1  0.70676378  0.77510749  0.50178711  1  0  -0.088868  0  3.674379  0  0  -0.111451  0  3.921316  0  0  -0.115026  0  3.941231  0  0.060365  0  -0.065552  -0.109165  0  3.908051  0
C  C48  1  0.46865073  0.20820995  0.46844376  1  0  -0.004748  0  3.668914  0  0  -0.023837  0  3.926101  0  0  -0.022109  0  3.943007  0  -0.129271  0  -0.060698  -0.024859  0  3.914974  0
C  C49  1  0.53134647  0.79178390  0.53155913  1  0  -0.004619  0  3.668931  0  0  -0.023737  0  3.926139  0  0  -0.022007  0  3.943044  0  -0.129222  0  -0.060641  -0.024757  0  3.915011  0
C  C50  1  0.59374257  0.13764232  0.51269668  1  0  -0.078845  0  3.642998  0  0  -0.106121  0  3.898036  0  0  -0.10903  0  3.915943  0  0.063322  0  -0.059026  -0.104325  0  3.886299  0
C  C51  1  0.40625970  0.86235153  0.48730260  1  0  -0.07894  0  3.642842  0  0  -0.106144  0  3.89791  0  0  -0.109052  0  3.915819  0  0.063295  0  -0.059051  -0.104347  0  3.886167  0
C  C52  1  0.53852860  0.08546255  0.58602299  1  0  0.106968  0  3.712015  0  0  0.107339  0  3.954129  0  0  0.109218  0  3.972615  0  0.422011  0  0.120572  0.105939  0  3.94172  0
C  C53  1  0.46147134  0.91453549  0.41397708  1  0  0.106888  0  3.712097  0  0  0.107227  0  3.954186  0  0  0.109102  0  3.972675  0  0.422004  0  0.120555  0.10583  0  3.941777  0
C  C54  1  0.66403696  0.00248719  0.63756567  1  0  0.614668  0  3.89519  0  0  0.560369  0  4.202218  0  0  0.594483  0  4.193999  0  1.595878  0  0.211692  0.537121  0  4.207073  0
C  C55  1  0.33595671  0.99750562  0.36243657  1  0  0.614954  0  3.895462  0  0  0.560714  0  4.202384  0  0  0.594831  0  4.194164  0  1.595897  0  0.211773  0.537464  0  4.207244  0
C  C56  1  0.11996451  0.80755597  0.70544802  1  0  0.628378  0  3.898606  0  0  0.571127  0  4.201683  0  0  0.606867  0  4.19251  0  1.601099  0  0.219011  0.546687  0  4.207298  0
C  C57  1  0.88003877  0.19243892  0.29455529  1  0  0.628282  0  3.898834  0  0  0.571029  0  4.201992  0  0  0.606771  0  4.192819  0  1.600495  0  0.219034  0.54659  0  4.2076  0
C  C58  1  0.03358027  0.70844054  0.68356752  1  0  0.127392  0  3.737248  0  0  0.12632  0  3.985482  0  0  0.128735  0  4.001916  0  0.560904  0  0.127821  0.124545  0  3.974683  0
C  C59  1  0.96642528  0.29155540  0.31643284  1  0  0.127482  0  3.737229  0  0  0.126269  0  3.985672  0  0  0.128682  0  4.002103  0  0.560914  0  0.127805  0.124494  0  3.974874  0
C  C60  1  0.10832842  0.63074589  0.62793264  1  0  -0.070857  0  3.633603  0  0  -0.098135  0  3.885809  0  0  -0.100221  0  3.9019  0  -0.028326  0  -0.0563  -0.096946  0  3.875343  0
C  C61  1  0.89168301  0.36924692  0.37207023  1  0  -0.070862  0  3.633531  0  0  -0.098075  0  3.885751  0  0  -0.100149  0  3.901842  0  -0.028387  0  -0.056283  -0.096886  0  3.875287  0
C  C62  1  0.01682062  0.53996291  0.61356035  1  0  0.003794  0  3.680101  0  0  -0.015546  0  3.93906  0  0  -0.013215  0  3.955516  0  -0.030776  0  -0.056623  -0.017208  0  3.928351  0
C  C63  1  0.98319047  0.46003617  0.38643814  1  0  0.003769  0  3.68028  0  0  -0.015513  0  3.939229  0  0  -0.013179  0  3.955677  0  -0.029871  0  -0.056615  -0.017173  0  3.928515  0
C  C64  1  0.85288647  0.53132936  0.65354586  1  0  -0.086677  0  3.640094  0  0  -0.11186  0  3.89145  0  0  -0.114863  0  3.908689  0  0.01329  0  -0.063108  -0.109953  0  3.880248  0
C  C65  1  0.14712054  0.46867077  0.34645126  1  0  -0.086546  0  3.640316  0  0  -0.111823  0  3.891692  0  0  -0.114823  0  3.908926  0  0.013362  0  -0.063051  -0.109916  0  3.880487  0
C  C66  1  0.78540708  0.61548088  0.70715556  1  0  0.108187  0  3.734657  0  0  0.107755  0  3.979875  0  0  0.109031  0  3.999263  0  0.476002  0  0.119616  0.106789  0  3.966833  0
C  C67  1  0.21459459  0.38452029  0.29284189  1  0  0.108029  0  3.734889  0  0  0.107639  0  3.980082  0  0  0.108912  0  3.999473  0  0.475815  0  0.119586  0.106683  0  3.967027  0
C  C68  1  0.60613316  0.62073126  0.75105948  1  0  0.614236  0  3.924144  0  0  0.560727  0  4.232749  0  0  0.595296  0  4.22341  0  1.63213  0  0.210663  0.537186  0  4.238278  0
C  C69  1  0.39386517  0.37927304  0.24893737  1  0  0.614091  0  3.924263  0  0  0.560557  0  4.232897  0  0  0.595126  0  4.223562  0  1.632171  0  0.210563  0.537011  0  4.238432  0
C  C70  1  0.83176722  0.54931680  0.93763833  1  0  0.624057  0  3.899892  0  0  0.567916  0  4.209086  0  0  0.602134  0  4.200323  0  1.588459  0  0.216785  0.544784  0  4.214149  0
C  C71  1  0.16822885  0.45068646  0.06235883  1  0  0.624162  0  3.899457  0  0  0.568069  0  4.208721  0  0  0.60229  0  4.199955  0  1.588522  0  0.21693  0.544936  0  4.213784  0
C  C72  1  0.67448773  0.62749132  0.98106253  1  0  0.105304  0  3.743372  0  0  0.106263  0  3.98898  0  0  0.107401  0  4.007829  0  0.456983  0  0.118578  0.105273  0  3.976827  0
C  C73  1  0.32551721  0.37251194  0.01893442  1  0  0.105661  0  3.743013  0  0  0.106388  0  3.988916  0  0  0.107527  0  4.007762  0  0.457113  0  0.118615  0.105398  0  3.976762  0
C  C74  1  0.60979473  0.57521432  0.05320174  1  0  -0.078978  0  3.648906  0  0  -0.108465  0  3.906673  0  0  -0.110908  0  3.924282  0  0.037674  0  -0.064281  -0.106793  0  3.895428  0
C  C75  1  0.39020487  0.42478999  0.94679554  1  0  -0.079141  0  3.649111  0  0  -0.108561  0  3.90696  0  0  -0.111001  0  3.924557  0  0.037428  0  -0.064333  -0.10689  0  3.895715  0
C  C76  1  0.46885447  0.65862459  0.08990566  1  0  0.011262  0  3.658957  0  0  -0.007654  0  3.916974  0  0  -0.006095  0  3.934033  0  -0.002589  0  -0.059466  -0.008773  0  3.905777  0
C  C77  1  0.53114640  0.34137972  0.91009098  1  0  0.011405  0  3.65897  0  0  -0.007473  0  3.916924  0  0  -0.005918  0  3.933991  0  -0.002537  0  -0.059398  -0.008589  0  3.905728  0
C  C78  1  0.39034114  0.78643106  0.05225503  1  0  -0.078388  0  3.654668  0  0  -0.105444  0  3.905797  0  0  -0.107194  0  3.923187  0  0.028356  0  -0.065813  -0.104116  0  3.894238  0
C  C79  1  0.60965926  0.21357011  0.94774147  1  0  -0.078382  0  3.654491  0  0  -0.105426  0  3.905611  0  0  -0.107183  0  3.923001  0  0.028636  0  -0.065809  -0.104097  0  3.89405  0
C  C80  1  0.45639664  0.82787796  0.97880474  1  0  0.095314  0  3.744623  0  0  0.097329  0  3.991242  0  0  0.097921  0  4.010138  0  0.465535  0  0.11367  0.09663  0  3.978948  0
C  C81  1  0.54359970  0.17212425  0.02119251  1  0  0.095164  0  3.744543  0  0  0.09722  0  3.991087  0  0  0.097807  0  4.009988  0  0.465638  0  0.11363  0.096522  0  3.978793  0
C  C82  1  0.36850587  0.95594371  0.93081991  1  0  0.63491  0  3.900532  0  0  0.57594  0  4.20878  0  0  0.610387  0  4.200921  0  1.603927  0  0.218177  0.552415  0  4.213959  0
C  C83  1  0.63148839  0.04406164  0.06917769  1  0  0.634996  0  3.900525  0  0  0.57604  0  4.208734  0  0  0.610489  0  4.200872  0  1.603707  0  0.218252  0.552512  0  4.213916  0
S  S84  1  0.35616983  0.28164532  0.73205025  1  0  -0.395831  0  2.022145  0  0  -0.369912  0  2.346746  0  0  -0.386417  0  2.339179  0  -0.230692  0  -0.116126  -0.358252  0  2.35166  0
S  S85  1  0.64382476  0.71835376  0.26795068  1  0  -0.395823  0  2.022081  0  0  -0.369884  0  2.346748  0  0  -0.386388  0  2.33918  0  -0.23078  0  -0.116131  -0.358226  0  2.351662  0
N  N86  1  0.36933856  0.10629577  0.61382065  1  0  -0.337487  0  3.36313  0  0  -0.261498  0  3.585127  0  0  -0.279751  0  3.610813  0  -1.277505  0  -0.294501  -0.248957  0  3.56762  0
N  N87  1  0.63066084  0.89370435  0.38618135  1  0  -0.33749  0  3.3631  0  0  -0.261448  0  3.585063  0  0  -0.279706  0  3.610746  0  -1.277579  0  -0.294499  -0.248907  0  3.567554  0
N  N88  1  0.87675638  0.69888069  0.72166425  1  0  -0.349737  0  3.341264  0  0  -0.284531  0  3.573335  0  0  -0.302341  0  3.597467  0  -1.250392  0  -0.293967  -0.272338  0  3.556885  0
N  N89  1  0.12324530  0.30112048  0.27833585  1  0  -0.349808  0  3.341385  0  0  -0.284544  0  3.573458  0  0  -0.302354  0  3.597593  0  -1.2503  0  -0.294033  -0.272355  0  3.557007  0
N  N90  1  0.59889936  0.75099356  0.94571623  1  0  -0.348537  0  3.303469  0  0  -0.285423  0  3.532854  0  0  -0.302206  0  3.556605  0  -1.244034  0  -0.288328  -0.273896  0  3.516807  0
N  N91  1  0.40109644  0.24901075  0.05428137  1  0  -0.348639  0  3.303298  0  0  -0.285441  0  3.532724  0  0  -0.30222  0  3.556471  0  -1.244051  0  -0.288317  -0.273916  0  3.516679  0
N  N92  1  0.20783013  0.48672302  0.80458801  1  0  -0.655963  0  3.131922  0  0  -0.614019  0  3.377881  0  0  -0.636628  0  3.372039  0  -1.358184  0  -0.564308  -0.598761  0  3.381903  0
N  N93  1  0.79217101  0.51328024  0.19541402  1  0  -0.656006  0  3.131901  0  0  -0.614011  0  3.377833  0  0  -0.636613  0  3.371989  0  -1.358357  0  -0.56434  -0.598752  0  3.381854  0
N  N94  1  0.07058300  0.30266569  0.83728257  1  0  -0.250675  0  3.337705  0  0  -0.200439  0  3.588235  0  0  -0.217205  0  3.598749  0  -0.867409  0  -0.327324  -0.189234  0  3.580826  0
N  N95  1  0.92941633  0.69733966  0.16271778  1  0  -0.250598  0  3.3376  0  0  -0.200377  0  3.58821  0  0  -0.21714  0  3.598718  0  -0.8675  0  -0.327298  -0.189169  0  3.580796  0
N  N96  1  0.05719504  0.16560779  0.83701314  1  0  -0.501135  0  3.11422  0  0  -0.466484  0  3.354906  0  0  -0.481758  0  3.356843  0  -0.847966  0  -0.49414  -0.455581  0  3.353453  0
N  N97  1  0.94280736  0.83439547  0.16298614  1  0  -0.500963  0  3.114238  0  0  -0.466325  0  3.354947  0  0  -0.481597  0  3.356887  0  -0.847966  0  -0.494104  -0.455422  0  3.353491  0
O  O98  1  0.91695236  0.89908438  0.91240848  1  0  -0.830132  0  1.810288  0  0  -0.777495  0  1.995345  0  0  -0.799689  0  1.969298  0  -1.235344  0  -0.569179  -0.761835  0  2.013367  0
O  O99  1  0.08304885  0.10091366  0.08759095  1  0  -0.83017  0  1.81024  0  0  -0.777537  0  1.995297  0  0  -0.799731  0  1.969244  0  -1.235376  0  -0.569189  -0.761879  0  2.013318  0
O  O100  1  0.75418669  0.13264807  0.78118097  1  0  -0.830247  0  1.858181  0  0  -0.774638  0  2.038233  0  0  -0.796531  0  2.007914  0  -1.262028  0  -0.56948  -0.75915  0  2.058942  0
O  O101  1  0.24581331  0.86734473  0.21881862  1  0  -0.830115  0  1.858247  0  0  -0.774543  0  2.038275  0  0  -0.796433  0  2.00796  0  -1.261997  0  -0.569478  -0.759042  0  2.058963  0
O  O102  1  0.03976950  0.14850901  0.68082364  1  0  -0.646796  0  2.086218  0  0  -0.566161  0  2.32371  0  0  -0.598799  0  2.317011  0  -1.167632  0  -0.293384  -0.54355  0  2.328257  0
O  O103  1  0.96022376  0.85149529  0.31917946  1  0  -0.646681  0  2.086239  0  0  -0.566024  0  2.323652  0  0  -0.598688  0  2.317019  0  -1.167581  0  -0.293327  -0.543449  0  2.328279  0
O  O104  1  0.94349497  0.26251204  0.57516002  1  0  -0.545714  0  1.878849  0  0  -0.508755  0  2.089995  0  0  -0.529887  0  2.082468  0  -1.14299  0  -0.304014  -0.49419  0  2.094812  0
O  O105  1  0.05650404  0.73747972  0.42484242  1  0  -0.545922  0  1.878696  0  0  -0.50896  0  2.089817  0  0  -0.530092  0  2.082288  0  -1.142919  0  -0.304129  -0.49439  0  2.094637  0
O  O106  1  0.59078410  0.96983183  0.70585164  1  0  -0.701583  0  2.108847  0  0  -0.616688  0  2.353301  0  0  -0.652562  0  2.34832  0  -1.174852  0  -0.299052  -0.591405  0  2.356044  0
O  O107  1  0.40921303  0.03016725  0.29415066  1  0  -0.701704  0  2.108867  0  0  -0.616859  0  2.353365  0  0  -0.652706  0  2.348307  0  -1.174804  0  -0.299062  -0.591575  0  2.356111  0
O  O108  1  0.81980079  0.97031902  0.61398619  1  0  -0.520858  0  1.906551  0  0  -0.486323  0  2.120854  0  0  -0.507364  0  2.115291  0  -1.133289  0  -0.291133  -0.471533  0  2.124193  0
O  O109  1  0.18020323  0.02965810  0.38601271  1  0  -0.520952  0  1.906813  0  0  -0.486449  0  2.121128  0  0  -0.507485  0  2.115553  0  -1.133307  0  -0.291149  -0.471659  0  2.124472  0
O  O110  1  0.04799629  0.85629508  0.76457509  1  0  -0.659609  0  2.032049  0  0  -0.584523  0  2.26932  0  0  -0.617544  0  2.262993  0  -1.177152  0  -0.295769  -0.561224  0  2.272819  0
O  O111  1  0.95200137  0.14370191  0.23542846  1  0  -0.659619  0  2.03221  0  0  -0.58449  0  2.26944  0  0  -0.61751  0  2.263115  0  -1.177064  0  -0.29579  -0.561188  0  2.272937  0
O  O112  1  0.25600921  0.83838501  0.66662143  1  0  -0.581326  0  1.964937  0  0  -0.531274  0  2.19897  0  0  -0.559026  0  2.193569  0  -1.157432  0  -0.284933  -0.511686  0  2.201964  0
O  O113  1  0.74399173  0.16161407  0.33338267  1  0  -0.581241  0  1.96495  0  0  -0.531208  0  2.199034  0  0  -0.558961  0  2.193636  0  -1.157112  0  -0.284942  -0.511618  0  2.202025  0
O  O114  1  0.56124250  0.69628373  0.80196831  1  0  -0.639395  0  2.001292  0  0  -0.582292  0  2.246864  0  0  -0.612306  0  2.238979  0  -1.165146  0  -0.305338  -0.561293  0  2.251593  0
O  O115  1  0.43875402  0.30372267  0.19802634  1  0  -0.639285  0  2.001188  0  0  -0.582175  0  2.246762  0  0  -0.612187  0  2.238876  0  -1.165214  0  -0.305288  -0.561173  0  2.251489  0
O  O116  1  0.51319882  0.55117356  0.73494457  1  0  -0.572357  0  1.989073  0  0  -0.528845  0  2.217908  0  0  -0.551994  0  2.209241  0  -1.169155  0  -0.300485  -0.512578  0  2.22273  0
O  O117  1  0.48680619  0.44882447  0.26505136  1  0  -0.572292  0  1.989196  0  0  -0.528759  0  2.218022  0  0  -0.551916  0  2.209372  0  -1.169213  0  -0.300437  -0.512488  0  2.222844  0
O  O118  1  0.89799259  0.62127282  0.87798272  1  0  -0.65759  0  2.079006  0  0  -0.587785  0  2.314655  0  0  -0.618969  0  2.307978  0  -1.178641  0  -0.295381  -0.565776  0  2.318004  0
O  O119  1  0.10200400  0.37872835  0.12201516  1  0  -0.657697  0  2.078874  0  0  -0.587931  0  2.314551  0  0  -0.619137  0  2.307906  0  -1.178518  0  -0.295514  -0.565921  0  2.317899  0
O  O120  1  0.88869295  0.42235298  0.95996460  1  0  -0.574395  0  1.907623  0  0  -0.533415  0  2.123214  0  0  -0.5561  0  2.115327  0  -1.167855  0  -0.310781  -0.517417  0  2.127927  0
O  O121  1  0.11130258  0.57765237  0.04003554  1  0  -0.574486  0  1.907554  0  0  -0.533473  0  2.123112  0  0  -0.55616  0  2.11523  0  -1.167986  0  -0.310813  -0.517475  0  2.127826  0
O  O122  1  0.43535441  0.97593951  0.86292838  1  0  -0.679578  0  2.070745  0  0  -0.606715  0  2.31644  0  0  -0.63977  0  2.311514  0  -1.18982  0  -0.296491  -0.583743  0  2.319411  0
O  O123  1  0.56463525  0.02406898  0.13706979  1  0  -0.679559  0  2.070719  0  0  -0.60676  0  2.316562  0  0  -0.639824  0  2.31164  0  -1.189763  0  -0.296497  -0.583783  0  2.31953  0
O  O124  1  0.23297891  0.03208256  0.95862393  1  0  -0.598063  0  1.996475  0  0  -0.542291  0  2.219672  0  0  -0.565794  0  2.208827  0  -1.184752  0  -0.302933  -0.526105  0  2.227124  0
O  O125  1  0.76701815  0.96792174  0.04137673  1  0  -0.598035  0  1.996412  0  0  -0.542306  0  2.219629  0  0  -0.565804  0  2.208776  0  -1.184726  0  -0.302955  -0.526126  0  2.227094  0
