# generated using pymatgen
data_PrH22C24N15O8
_symmetry_space_group_name_H-M   'P 1'
_cell_length_a   10.69448344
_cell_length_b   12.00473536
_cell_length_c   13.63000000
_cell_angle_alpha   94.29352533
_cell_angle_beta   101.41147659
_cell_angle_gamma   113.40903038
_symmetry_Int_Tables_number   1
_chemical_formula_structural   PrH22C24N15O8
_chemical_formula_sum   'Pr2 H44 C48 N30 O16'
_cell_volume   1551.02733612
_cell_formula_units_Z   2
loop_
 _symmetry_equiv_pos_site_id
 _symmetry_equiv_pos_as_xyz
  1  'x, y, z'
loop_
 _atom_site_type_symbol
 _atom_site_label
 _atom_site_symmetry_multiplicity
 _atom_site_fract_x
 _atom_site_fract_y
 _atom_site_fract_z
 _atom_site_occupancy
 _atom_site_hle17_bader_spin_density
 _atom_site_hle17_ddec_charge
 _atom_site_hle17_ddec_spin_density
 _atom_site_hle17_ddec_sum_bond_order
 _atom_site_hle17_magmom
 _atom_site_hse06_10hf_bader_spin_density
 _atom_site_hse06_10hf_ddec_charge
 _atom_site_hse06_10hf_ddec_spin_density
 _atom_site_hse06_10hf_ddec_sum_bond_order
 _atom_site_hse06_10hf_magmom
 _atom_site_hse06_bader_spin_density
 _atom_site_hse06_ddec_charge
 _atom_site_hse06_ddec_spin_density
 _atom_site_hse06_ddec_sum_bond_order
 _atom_site_hse06_magmom
 _atom_site_pbe_bader_charge
 _atom_site_pbe_bader_spin_density
 _atom_site_pbe_cm5_charge
 _atom_site_pbe_ddec_charge
 _atom_site_pbe_ddec_spin_density
 _atom_site_pbe_ddec_sum_bond_order
 _atom_site_pbe_magmom
Pr  Pr0  1  0.94824547  0.11541822  0.40975166  1  0  2.289363  0  1.632728  0  0  2.119671  0  2.098993  0  0  2.209503  0  1.961664  0  2.25853  0  1.474423  2.088024  0  2.133232  0
Pr  Pr1  1  0.05175466  0.88458345  0.59024994  1  0  2.289393  0  1.632731  0  0  2.119711  0  2.098984  0  0  2.209543  0  1.961666  0  2.258495  0  1.474442  2.088064  0  2.133222  0
H  H2  1  0.04791060  0.12869673  0.18216448  1  0  0.097553  0  0.958971  0  0  0.101293  0  1.026818  0  0  0.104328  0  1.024221  0  0.14183  0  0.121885  0.09903  0  1.028882  0
H  H3  1  0.95208812  0.87130402  0.81783537  1  0  0.097569  0  0.958917  0  0  0.101302  0  1.026762  0  0  0.104339  0  1.024163  0  0.141734  0  0.121887  0.09904  0  1.028825  0
H  H4  1  0.64041188  0.95740615  0.21224438  1  0  0.082954  0  0.94632  0  0  0.08714  0  1.014625  0  0  0.089265  0  1.013329  0  0.091431  0  0.119068  0.085468  0  1.015911  0
H  H5  1  0.35958787  0.04259276  0.78775551  1  0  0.082963  0  0.946298  0  0  0.087148  0  1.014607  0  0  0.089272  0  1.013312  0  0.091438  0  0.119076  0.085475  0  1.015895  0
H  H6  1  0.01154601  0.36594489  0.51603247  1  0  0.433058  0  0.866977  0  0  0.402266  0  0.929277  0  0  0.414133  0  0.912258  0  0.640308  0  0.292579  0.393772  0  0.94157  0
H  H7  1  0.98845647  0.63405771  0.48396882  1  0  0.433082  0  0.866951  0  0  0.402319  0  0.929207  0  0  0.414186  0  0.912189  0  0.640205  0  0.29261  0.393825  0  0.941501  0
H  H8  1  0.99058129  0.28946862  0.60943233  1  0  0.400898  0  0.90956  0  0  0.358651  0  0.992258  0  0  0.370384  0  0.975564  0  0.627353  0  0.283917  0.35043  0  1.004008  0
H  H9  1  0.00941884  0.71053306  0.39056854  1  0  0.400902  0  0.909555  0  0  0.358654  0  0.992258  0  0  0.370386  0  0.975564  0  0.627259  0  0.283921  0.350433  0  1.004006  0
H  H10  1  0.62377209  0.11420221  0.34960199  1  0  0.418708  0  0.882432  0  0  0.377336  0  0.962566  0  0  0.388487  0  0.946177  0  0.649719  0  0.297736  0.369524  0  0.974112  0
H  H11  1  0.37622906  0.88579763  0.65039745  1  0  0.418702  0  0.882454  0  0  0.377331  0  0.962586  0  0  0.388482  0  0.946198  0  0.649707  0  0.297737  0.369519  0  0.974132  0
H  H12  1  0.23374071  0.57047948  0.31704760  1  0  0.118403  0  0.944799  0  0  0.127096  0  1.011944  0  0  0.129418  0  1.009798  0  0.090626  0  0.123978  0.125466  0  1.013524  0
H  H13  1  0.76626234  0.42952035  0.68295360  1  0  0.118417  0  0.944765  0  0  0.127086  0  1.011951  0  0  0.129399  0  1.009819  0  0.090549  0  0.123965  0.125453  0  1.013532  0
H  H14  1  0.32991520  0.49099910  0.37535552  1  0  0.119473  0  0.912683  0  0  0.13441  0  0.968936  0  0  0.136415  0  0.967212  0  0.100974  0  0.131602  0.132686  0  0.970798  0
H  H15  1  0.67008506  0.50899889  0.62464439  1  0  0.119434  0  0.912609  0  0  0.13438  0  0.96886  0  0  0.136389  0  0.967132  0  0.101002  0  0.131604  0.132654  0  0.970722  0
H  H16  1  0.00890242  0.44203332  0.95455049  1  0  0.101375  0  0.982863  0  0  0.108752  0  1.051537  0  0  0.112121  0  1.049514  0  0.082927  0  0.104366  0.106343  0  1.05312  0
H  H17  1  0.99110012  0.55796743  0.04545069  1  0  0.101349  0  0.982816  0  0  0.108712  0  1.051542  0  0  0.112081  0  1.049519  0  0.083135  0  0.104365  0.106303  0  1.053125  0
H  H18  1  0.94082971  0.40711528  0.76754040  1  0  0.069635  0  0.950258  0  0  0.077374  0  1.01656  0  0  0.0794  0  1.014733  0  0.086355  0  0.111184  0.075876  0  1.017909  0
H  H19  1  0.05917093  0.59288548  0.23246048  1  0  0.0696  0  0.950275  0  0  0.077337  0  1.016578  0  0  0.079362  0  1.014753  0  0.086338  0  0.111171  0.075839  0  1.017927  0
H  H20  1  0.15102398  0.18509771  0.74646252  1  0  0.075651  0  0.970155  0  0  0.081448  0  1.038772  0  0  0.083681  0  1.037933  0  0.110168  0  0.115194  0.079713  0  1.039705  0
H  H21  1  0.84897437  0.81490028  0.25353709  1  0  0.075619  0  0.97019  0  0  0.081442  0  1.038776  0  0  0.083666  0  1.037964  0  0.110189  0  0.115195  0.079709  0  1.039708  0
H  H22  1  0.23837211  0.21892318  0.93410186  1  0  0.107637  0  0.968084  0  0  0.114282  0  1.036056  0  0  0.117042  0  1.03625  0  0.107628  0  0.105272  0.112346  0  1.035995  0
H  H23  1  0.76162440  0.78107297  0.06589808  1  0  0.107636  0  0.96812  0  0  0.114276  0  1.036088  0  0  0.117037  0  1.036279  0  0.107642  0  0.105268  0.112338  0  1.036032  0
H  H24  1  0.78367263  0.13728898  0.64662690  1  0  0.140238  0  0.911833  0  0  0.14913  0  0.974236  0  0  0.151566  0  0.972374  0  0.125598  0  0.135656  0.147458  0  0.975425  0
H  H25  1  0.21632522  0.86270993  0.35337269  1  0  0.140243  0  0.911829  0  0  0.14915  0  0.974197  0  0  0.151586  0  0.972335  0  0.125574  0  0.135647  0.147475  0  0.975386  0
H  H26  1  0.64629125  0.99578432  0.57681171  1  0  0.138713  0  0.884539  0  0  0.154504  0  0.934492  0  0  0.157154  0  0.932195  0  0.132277  0  0.141946  0.152478  0  0.936382  0
H  H27  1  0.35370557  0.00421644  0.42318785  1  0  0.138763  0  0.884526  0  0  0.154534  0  0.934486  0  0  0.157184  0  0.932193  0  0.132312  0  0.141963  0.152506  0  0.936376  0
H  H28  1  0.54041006  0.91978247  0.02435793  1  0  0.113465  0  0.960479  0  0  0.121008  0  1.025305  0  0  0.123773  0  1.025482  0  0.117657  0  0.108919  0.119082  0  1.025228  0
H  H29  1  0.45958969  0.08021644  0.97564269  1  0  0.113459  0  0.960396  0  0  0.120996  0  1.025246  0  0  0.123761  0  1.025422  0  0.117633  0  0.108897  0.119068  0  1.025167  0
H  H30  1  0.96545231  0.09678740  0.99290238  1  0  0.109625  0  0.968384  0  0  0.116859  0  1.034203  0  0  0.119589  0  1.034486  0  0.107465  0  0.106933  0.114927  0  1.034093  0
H  H31  1  0.03454648  0.90321151  0.00709736  1  0  0.109667  0  0.968294  0  0  0.116916  0  1.034088  0  0  0.119646  0  1.034374  0  0.107426  0  0.106969  0.114981  0  1.033986  0
H  H32  1  0.61467784  0.60704007  0.34064627  1  0  0.141625  0  0.892431  0  0  0.157176  0  0.944459  0  0  0.159958  0  0.942187  0  0.108893  0  0.139893  0.15524  0  0.946133  0
H  H33  1  0.38532470  0.39296068  0.65935270  1  0  0.141645  0  0.892459  0  0  0.157187  0  0.944503  0  0  0.159969  0  0.942231  0  0.108891  0  0.1399  0.155252  0  0.946178  0
H  H34  1  0.53793593  0.66928897  0.42216825  1  0  0.128805  0  0.896842  0  0  0.145327  0  0.947705  0  0  0.147376  0  0.946181  0  0.102372  0  0.13541  0.143679  0  0.949229  0
H  H35  1  0.46206522  0.33071086  0.57783119  1  0  0.128842  0  0.896794  0  0  0.14536  0  0.947666  0  0  0.147407  0  0.946143  0  0.102341  0  0.135417  0.143714  0  0.949192  0
H  H36  1  0.20194460  0.74308540  0.00857660  1  0  0.101347  0  0.973109  0  0  0.108853  0  1.040057  0  0  0.111567  0  1.040284  0  0.086067  0  0.10045  0.10691  0  1.04007  0
H  H37  1  0.79805603  0.25691535  0.99142355  1  0  0.101339  0  0.973114  0  0  0.10883  0  1.040074  0  0  0.111543  0  1.040301  0  0.086129  0  0.100442  0.106887  0  1.040088  0
H  H38  1  0.13300738  0.70608631  0.81817968  1  0  0.077403  0  0.961596  0  0  0.081566  0  1.030634  0  0  0.084371  0  1.029182  0  0.121228  0  0.106802  0.079627  0  1.031459  0
H  H39  1  0.86699319  0.29391628  0.18181985  1  0  0.077389  0  0.961561  0  0  0.081538  0  1.03062  0  0  0.08434  0  1.02917  0  0.12124  0  0.106792  0.079599  0  1.031446  0
H  H40  1  0.42899916  0.56994610  0.80126376  1  0  0.063829  0  0.949132  0  0  0.066146  0  1.02171  0  0  0.068945  0  1.0188  0  0.087562  0  0.102834  0.064168  0  1.023746  0
H  H41  1  0.57099817  0.43005374  0.19873508  1  0  0.063857  0  0.949096  0  0  0.066163  0  1.021686  0  0  0.068962  0  1.018777  0  0.087607  0  0.102833  0.064185  0  1.023723  0
H  H42  1  0.51196098  0.60252884  0.98930750  1  0  0.106271  0  0.959915  0  0  0.114663  0  1.025908  0  0  0.117857  0  1.024703  0  0.10262  0  0.104199  0.112351  0  1.02692  0
H  H43  1  0.48803871  0.39747191  0.01069030  1  0  0.106303  0  0.959929  0  0  0.114709  0  1.025892  0  0  0.117896  0  1.024709  0  0.102557  0  0.104228  0.11241  0  1.026886  0
H  H44  1  0.75086886  0.21963437  0.43368096  1  0  0.449879  0  0.812671  0  0  0.428966  0  0.863521  0  0  0.438812  0  0.84892  0  0.676292  0  0.323166  0.42176  0  0.874366  0
H  H45  1  0.24913083  0.78036639  0.56631758  1  0  0.449802  0  0.812553  0  0  0.428889  0  0.863582  0  0  0.438736  0  0.848978  0  0.676436  0  0.323119  0.421683  0  0.874427  0
C  C46  1  0.93641238  0.08328872  0.14424290  1  0  0.141161  0  3.705573  0  0  0.111566  0  3.967513  0  0  0.118371  0  3.986008  0  0.455731  0  0.051883  0.106992  0  3.956432  0
C  C47  1  0.06358730  0.91671204  0.85575710  1  0  0.141185  0  3.70557  0  0  0.111607  0  3.967498  0  0  0.118411  0  3.985988  0  0.455807  0  0.051883  0.107032  0  3.956418  0
C  C48  1  0.70900575  0.98740118  0.16101905  1  0  0.141327  0  3.721391  0  0  0.112887  0  3.984776  0  0  0.119697  0  4.004211  0  0.45086  0  0.05357  0.108158  0  3.973537  0
C  C49  1  0.29099495  0.01259773  0.83898172  1  0  0.141349  0  3.721443  0  0  0.112915  0  3.984815  0  0  0.119724  0  4.004249  0  0.45081  0  0.053575  0.108185  0  3.973577  0
C  C50  1  0.11331706  0.40806966  0.37504944  1  0  0.71201  0  3.880584  0  0  0.667632  0  4.180812  0  0  0.699783  0  4.176236  0  1.662051  0  0.222881  0.645538  0  4.184952  0
C  C51  1  0.88668504  0.59193017  0.62495235  1  0  0.711973  0  3.880632  0  0  0.667618  0  4.180813  0  0  0.699774  0  4.176232  0  1.662034  0  0.22288  0.645521  0  4.184955  0
C  C52  1  0.23103466  0.47935024  0.32404334  1  0  -0.214791  0  3.609504  0  0  -0.276871  0  3.868829  0  0  -0.277379  0  3.873132  0  0.291539  0  -0.045592  -0.276471  0  3.866317  0
C  C53  1  0.76896744  0.52064960  0.67595771  1  0  -0.214781  0  3.609483  0  0  -0.276849  0  3.86877  0  0  -0.27736  0  3.873088  0  0.291607  0  -0.045594  -0.276441  0  3.866247  0
C  C54  1  0.18215255  0.35618269  0.07156512  1  0  0.237731  0  3.784802  0  0  0.220376  0  4.058446  0  0  0.227247  0  4.074279  0  0.902051  0  0.219452  0.215601  0  4.047769  0
C  C55  1  0.81784764  0.64381715  0.92843564  1  0  0.237792  0  3.784873  0  0  0.220411  0  4.058524  0  0  0.227283  0  4.074358  0  0.902038  0  0.219486  0.21564  0  4.047841  0
C  C56  1  0.13121724  0.33401529  0.96100245  1  0  0.047666  0  3.796831  0  0  0.064907  0  4.022944  0  0  0.067141  0  4.045022  0  0.018465  0  0.011759  0.063659  0  4.008091  0
C  C57  1  0.86878251  0.66598362  0.03899817  1  0  0.047579  0  3.796763  0  0  0.06486  0  4.022831  0  0  0.067094  0  4.044908  0  0.01845  0  0.011703  0.063611  0  4.007978  0
C  C58  1  0.04433358  0.38527215  0.91199189  1  0  -0.13661  0  3.704265  0  0  -0.159749  0  3.955457  0  0  -0.166247  0  3.977157  0  -0.047829  0  -0.078755  -0.155493  0  3.94089  0
C  C59  1  0.95566896  0.61472860  0.08801002  1  0  -0.136531  0  3.704091  0  0  -0.159695  0  3.955285  0  0  -0.166193  0  3.976986  0  -0.047823  0  -0.078702  -0.155438  0  3.940719  0
C  C60  1  0.00486219  0.36461004  0.80645123  1  0  0.137173  0  3.724183  0  0  0.106937  0  3.98671  0  0  0.112901  0  4.004216  0  0.52261  0  0.048688  0.103048  0  3.974695  0
C  C61  1  0.99513896  0.63538980  0.19355040  1  0  0.137232  0  3.724141  0  0  0.107  0  3.986671  0  0  0.112963  0  4.004177  0  0.522616  0  0.048717  0.103111  0  3.974654  0
C  C62  1  0.12310257  0.24325085  0.79487153  1  0  0.130478  0  3.704495  0  0  0.099879  0  3.967939  0  0  0.105683  0  3.984906  0  0.499971  0  0.045046  0.096143  0  3.956213  0
C  C63  1  0.87689909  0.75674807  0.20512939  1  0  0.130507  0  3.704469  0  0  0.099884  0  3.96792  0  0  0.105684  0  3.984885  0  0.500123  0  0.045054  0.096148  0  3.956191  0
C  C64  1  0.17071813  0.26082318  0.89989830  1  0  -0.145507  0  3.698583  0  0  -0.167992  0  3.950444  0  0  -0.174293  0  3.970882  0  -0.014655  0  -0.081837  -0.163891  0  3.936632  0
C  C65  1  0.82927978  0.73917389  0.10010118  1  0  -0.145482  0  3.698609  0  0  -0.167961  0  3.950451  0  0  -0.17426  0  3.970887  0  -0.014645  0  -0.081807  -0.163861  0  3.936636  0
C  C66  1  0.84751095  0.98862365  0.62897120  1  0  0.716936  0  3.863308  0  0  0.67172  0  4.161681  0  0  0.703995  0  4.158829  0  1.618624  0  0.222168  0.649489  0  4.166561  0
C  C67  1  0.15248403  0.01137526  0.37102795  1  0  0.71704  0  3.863203  0  0  0.67178  0  4.161633  0  0  0.70406  0  4.158785  0  1.618741  0  0.222246  0.649547  0  4.166511  0
C  C68  1  0.73809279  0.03696040  0.64216877  1  0  -0.19739  0  3.56505  0  0  -0.255228  0  3.81674  0  0  -0.25607  0  3.820728  0  0.27925  0  -0.026961  -0.254321  0  3.813572  0
C  C69  1  0.26190410  0.96303851  0.35783068  1  0  -0.197451  0  3.564976  0  0  -0.25525  0  3.816637  0  0  -0.25609  0  3.820612  0  0.279293  0  -0.026955  -0.254351  0  3.813499  0
C  C70  1  0.69493432  0.99197782  0.88428015  1  0  0.241999  0  3.782276  0  0  0.223671  0  4.061914  0  0  0.230028  0  4.075448  0  0.930039  0  0.227778  0.219215  0  4.052742  0
C  C71  1  0.30506308  0.00802017  0.11571931  1  0  0.241955  0  3.782253  0  0  0.223643  0  4.061877  0  0  0.229998  0  4.075414  0  0.929957  0  0.227772  0.219187  0  4.052703  0
C  C72  1  0.74574312  0.00628643  0.99377622  1  0  0.065084  0  3.786845  0  0  0.080276  0  4.012062  0  0  0.084226  0  4.03207  0  -0.006297  0  0.018911  0.077965  0  3.998283  0
C  C73  1  0.25425523  0.99371156  0.00622413  1  0  0.065108  0  3.786804  0  0  0.08027  0  4.012064  0  0  0.084219  0  4.032071  0  -0.006288  0  0.018956  0.077959  0  3.998284  0
C  C74  1  0.65345029  0.96587312  0.05652818  1  0  -0.142254  0  3.681867  0  0  -0.162977  0  3.930264  0  0  -0.170196  0  3.950651  0  0.047428  0  -0.0779  -0.158304  0  3.916314  0
C  C75  1  0.34654902  0.03412487  0.94347084  1  0  -0.14223  0  3.681798  0  0  -0.162945  0  3.930201  0  0  -0.170162  0  3.950589  0  0.047464  0  -0.077887  -0.158266  0  3.916246  0
C  C76  1  0.89043795  0.06503560  0.03933430  1  0  -0.151401  0  3.690515  0  0  -0.168917  0  3.9339  0  0  -0.176436  0  3.954715  0  -0.034664  0  -0.081167  -0.163993  0  3.91977  0
C  C77  1  0.10956129  0.93496423  0.96066557  1  0  -0.151472  0  3.690477  0  0  -0.168986  0  3.933829  0  0  -0.176507  0  3.954641  0  -0.034677  0  -0.081234  -0.164064  0  3.919699  0
C  C78  1  0.73538761  0.80003635  0.40509747  1  0  0.735843  0  3.853993  0  0  0.692705  0  4.153075  0  0  0.726059  0  4.146587  0  1.638764  0  0.233685  0.670267  0  4.158249  0
C  C79  1  0.26461487  0.19996625  0.59490309  1  0  0.73572  0  3.85419  0  0  0.692567  0  4.153301  0  0  0.725919  0  4.146819  0  1.638759  0  0.233615  0.670132  0  4.158471  0
C  C80  1  0.59414539  0.68687328  0.36177866  1  0  -0.210334  0  3.595465  0  0  -0.272377  0  3.852137  0  0  -0.272855  0  3.854982  0  0.306686  0  -0.037472  -0.271963  0  3.850277  0
C  C81  1  0.40585614  0.31312932  0.63821955  1  0  -0.210371  0  3.595621  0  0  -0.272416  0  3.852324  0  0  -0.272899  0  3.855181  0  0.306643  0  -0.037495  -0.27201  0  3.850472  0
C  C82  1  0.40720333  0.69769028  0.12512297  1  0  0.250473  0  3.782996  0  0  0.233297  0  4.059189  0  0  0.240985  0  4.07411  0  0.87794  0  0.220384  0.227938  0  4.04903  0
C  C83  1  0.59279966  0.30231139  0.87487687  1  0  0.250482  0  3.78293  0  0  0.233246  0  4.059205  0  0  0.240934  0  4.074124  0  0.877654  0  0.220377  0.227887  0  4.049047  0
C  C84  1  0.36267633  0.67540774  0.01435313  1  0  0.035705  0  3.816534  0  0  0.05206  0  4.044231  0  0  0.05313  0  4.067126  0  -0.006843  0  0.001478  0.051628  0  4.028591  0
C  C85  1  0.63732386  0.32459210  0.98564543  1  0  0.035672  0  3.816575  0  0  0.052049  0  4.044268  0  0  0.05312  0  4.06716  0  -0.006572  0  0.001459  0.051618  0  4.028632  0
C  C86  1  0.25492437  0.70503704  0.96481331  1  0  -0.155368  0  3.713764  0  0  -0.175178  0  3.959733  0  0  -0.181739  0  3.98198  0  -0.09161  0  -0.090714  -0.170853  0  3.944673  0
C  C87  1  0.74507392  0.29496279  0.03518495  1  0  -0.155329  0  3.713834  0  0  -0.175122  0  3.959797  0  0  -0.18168  0  3.98204  0  -0.09165  0  -0.0907  -0.170793  0  3.944722  0
C  C88  1  0.21673992  0.68413541  0.85894747  1  0  0.115764  0  3.737457  0  0  0.092863  0  4.002565  0  0  0.097601  0  4.019749  0  0.540688  0  0.038857  0.090026  0  3.990376  0
C  C89  1  0.78325881  0.31586535  0.14105165  1  0  0.115809  0  3.737448  0  0  0.092914  0  4.002564  0  0  0.097654  0  4.019746  0  0.540703  0  0.038892  0.090071  0  3.990392  0
C  C90  1  0.37975843  0.60775402  0.84916833  1  0  0.126833  0  3.749574  0  0  0.103496  0  4.016216  0  0  0.108556  0  4.033436  0  0.541397  0  0.040967  0.100325  0  4.004161  0
C  C91  1  0.62023986  0.39224581  0.15082920  1  0  0.126776  0  3.749636  0  0  0.103445  0  4.016277  0  0  0.108503  0  4.033501  0  0.541126  0  0.04092  0.100276  0  4.004222  0
C  C92  1  0.42648528  0.62548757  0.95455566  1  0  -0.149552  0  3.705763  0  0  -0.172622  0  3.954295  0  0  -0.178771  0  3.976016  0  -0.053175  0  -0.087017  -0.16851  0  3.939543  0
C  C93  1  0.57351440  0.37451319  0.04544214  1  0  -0.149554  0  3.705827  0  0  -0.172623  0  3.954349  0  0  -0.178773  0  3.976066  0  -0.053517  0  -0.087017  -0.168521  0  3.939583  0
N  N94  1  0.84769390  0.04573321  0.20522484  1  0  -0.415316  0  3.206853  0  0  -0.360341  0  3.47887  0  0  -0.379511  0  3.496365  0  -1.232715  0  -0.372229  -0.35099  0  3.468211  0
N  N95  1  0.15230673  0.95426755  0.79477604  1  0  -0.41539  0  3.206925  0  0  -0.360425  0  3.478943  0  0  -0.379595  0  3.496441  0  -1.232679  0  -0.372231  -0.351075  0  3.468288  0
N  N96  1  0.15163535  0.42478526  0.13761895  1  0  -0.288681  0  2.789821  0  0  -0.274953  0  3.056563  0  0  -0.280746  0  3.069855  0  -0.604868  0  -0.185632  -0.271074  0  3.047512  0
N  N97  1  0.84836580  0.57521457  0.86238195  1  0  -0.288732  0  2.789812  0  0  -0.275002  0  3.056573  0  0  -0.280795  0  3.069864  0  -0.604905  0  -0.185669  -0.271124  0  3.047523  0
N  N98  1  0.22642146  0.41948270  0.22615948  1  0  0.244388  0  3.542812  0  0  0.291254  0  3.827671  0  0  0.287741  0  3.848547  0  -0.345372  0  -0.005057  0.29337  0  3.813653  0
N  N99  1  0.77357829  0.58051621  0.77384188  1  0  0.244387  0  3.542873  0  0  0.291245  0  3.827725  0  0  0.287737  0  3.848597  0  -0.345369  0  -0.005045  0.293359  0  3.813709  0
N  N100  1  0.29950910  0.35222327  0.21789389  1  0  -0.086784  0  2.816939  0  0  -0.092064  0  3.107809  0  0  -0.086522  0  3.113677  0  -0.03681  0  -0.066555  -0.095517  0  3.103859  0
N  N101  1  0.70049117  0.64777472  0.78210748  1  0  -0.0867  0  2.816888  0  0  -0.09198  0  3.10776  0  0  -0.086437  0  3.113625  0  -0.036735  0  -0.06651  -0.095435  0  3.103811  0
N  N102  1  0.27177868  0.31124634  0.12038150  1  0  -0.252627  0  2.930196  0  0  -0.235523  0  3.221995  0  0  -0.242062  0  3.231702  0  -0.586167  0  -0.188836  -0.231046  0  3.215259  0
N  N103  1  0.72822158  0.68875165  0.87961914  1  0  -0.252691  0  2.930317  0  0  -0.235584  0  3.222133  0  0  -0.242125  0  3.231838  0  -0.586176  0  -0.188882  -0.231109  0  3.215395  0
N  N104  1  0.04246718  0.29495174  0.74742517  1  0  -0.309972  0  3.116215  0  0  -0.253146  0  3.367887  0  0  -0.266089  0  3.382737  0  -1.219053  0  -0.301458  -0.244225  0  3.35759  0
N  N105  1  0.95753162  0.70504717  0.25257530  1  0  -0.310012  0  3.116174  0  0  -0.253188  0  3.367868  0  0  -0.266131  0  3.382719  0  -1.219264  0  -0.301512  -0.244266  0  3.357571  0
N  N106  1  0.78021438  0.03918423  0.82334599  1  0  -0.258921  0  2.821479  0  0  -0.25345  0  3.098407  0  0  -0.257713  0  3.110479  0  -0.571661  0  -0.173569  -0.250296  0  3.090149  0
N  N107  1  0.21978441  0.96081468  0.17665375  1  0  -0.258843  0  2.821476  0  0  -0.253368  0  3.098387  0  0  -0.257632  0  3.110459  0  -0.571651  0  -0.173552  -0.250211  0  3.090127  0
N  N108  1  0.69114728  0.00639697  0.73327201  1  0  0.260256  0  3.545249  0  0  0.301754  0  3.830756  0  0  0.29882  0  3.851264  0  -0.320875  0  0.005315  0.303491  0  3.816751  0
N  N109  1  0.30885057  0.99360194  0.26672832  1  0  0.260155  0  3.545273  0  0  0.301653  0  3.830773  0  0  0.298719  0  3.851286  0  -0.320735  0  0.005267  0.303389  0  3.816762  0
N  N110  1  0.55664657  0.94184485  0.73571993  1  0  -0.1211  0  2.910538  0  0  -0.100403  0  3.186697  0  0  -0.100521  0  3.19542  0  -0.106237  0  -0.054093  -0.099987  0  3.180702  0
N  N111  1  0.44335032  0.05815406  0.26427952  1  0  -0.121012  0  2.910571  0  0  -0.100334  0  3.18674  0  0  -0.100454  0  3.195466  0  -0.106361  0  -0.054068  -0.099917  0  3.180744  0
N  N112  1  0.55786865  0.93260590  0.83120653  1  0  -0.218606  0  2.916216  0  0  -0.209519  0  3.199215  0  0  -0.215003  0  3.211138  0  -0.535253  0  -0.177009  -0.205523  0  3.190877  0
N  N113  1  0.44213066  0.06739209  0.16879323  1  0  -0.218625  0  2.916097  0  0  -0.209536  0  3.19909  0  0  -0.21502  0  3.211013  0  -0.535197  0  -0.177008  -0.20554  0  3.19075  0
N  N114  1  0.49961702  0.66141896  0.17902270  1  0  -0.295121  0  2.793242  0  0  -0.2847  0  3.060668  0  0  -0.290355  0  3.073494  0  -0.602099  0  -0.191693  -0.280817  0  3.052022  0
N  N115  1  0.50038641  0.33858364  0.82097580  1  0  -0.29509  0  2.793181  0  0  -0.284666  0  3.060636  0  0  -0.290321  0  3.073461  0  -0.601759  0  -0.191701  -0.280784  0  3.051991  0
N  N116  1  0.50435220  0.70104446  0.27400529  1  0  0.238741  0  3.575464  0  0  0.2865  0  3.860106  0  0  0.283146  0  3.881133  0  -0.321981  0  -0.010567  0.288436  0  3.846309  0
N  N117  1  0.49565079  0.29895722  0.72599382  1  0  0.238729  0  3.575602  0  0  0.286512  0  3.860216  0  0  0.283157  0  3.881244  0  -0.321969  0  -0.010515  0.288449  0  3.846418  0
N  N118  1  0.42215631  0.75965268  0.28121748  1  0  -0.116529  0  2.846794  0  0  -0.119341  0  3.142261  0  0  -0.114936  0  3.149323  0  -0.088832  0  -0.081194  -0.121891  0  3.13746  0
N  N119  1  0.57784572  0.24034899  0.71878074  1  0  -0.116525  0  2.846901  0  0  -0.119333  0  3.14236  0  0  -0.114928  0  3.149421  0  -0.088889  0  -0.08121  -0.121884  0  3.137558  0
N  N120  1  0.35972188  0.75800922  0.18723621  1  0  -0.258318  0  2.936847  0  0  -0.247309  0  3.23865  0  0  -0.253977  0  3.249872  0  -0.581964  0  -0.195442  -0.242787  0  3.230955  0
N  N121  1  0.64028016  0.24199246  0.81276349  1  0  -0.258306  0  2.936815  0  0  -0.247273  0  3.238628  0  0  -0.253942  0  3.249848  0  -0.58197  0  -0.195411  -0.242753  0  3.230935  0
N  N122  1  0.27694813  0.63596740  0.80083714  1  0  -0.301272  0  3.023853  0  0  -0.274857  0  3.291364  0  0  -0.283064  0  3.303554  0  -1.1709  0  -0.326116  -0.269254  0  3.282929  0
N  N123  1  0.72305060  0.36403335  0.19916198  1  0  -0.301311  0  3.023853  0  0  -0.274892  0  3.291358  0  0  -0.283099  0  3.303548  0  -1.17061  0  -0.326114  -0.26929  0  3.282925  0
O  O124  1  0.81558511  0.77976207  0.47527956  1  0  -0.701939  0  2.036954  0  0  -0.647919  0  2.278561  0  0  -0.678461  0  2.267774  0  -1.1964  0  -0.382946  -0.630255  0  2.28383  0
O  O125  1  0.18441597  0.22023961  0.52472145  1  0  -0.701918  0  2.037016  0  0  -0.647888  0  2.278635  0  0  -0.67843  0  2.267847  0  -1.19642  0  -0.382956  -0.630223  0  2.283905  0
O  O126  1  0.85694393  0.90363159  0.67311817  1  0  -0.641982  0  2.006025  0  0  -0.603701  0  2.247689  0  0  -0.630312  0  2.239897  0  -1.165714  0  -0.333048  -0.587997  0  2.252362  0
O  O127  1  0.14304966  0.09636640  0.32688070  1  0  -0.642001  0  2.005977  0  0  -0.60374  0  2.247735  0  0  -0.630328  0  2.239884  0  -1.165804  0  -0.33307  -0.588035  0  2.252413  0
O  O128  1  0.11646369  0.46666039  0.45589730  1  0  -0.584866  0  1.902578  0  0  -0.538637  0  2.104708  0  0  -0.56204  0  2.095145  0  -1.16344  0  -0.304279  -0.522183  0  2.111013  0
O  O129  1  0.88354025  0.53334129  0.54410416  1  0  -0.584822  0  1.902615  0  0  -0.538609  0  2.104739  0  0  -0.56201  0  2.095176  0  -1.163403  0  -0.304252  -0.522155  0  2.111047  0
O  O130  1  0.02954222  0.29750905  0.33283603  1  0  -0.747793  0  2.021204  0  0  -0.694633  0  2.27682  0  0  -0.725814  0  2.265142  0  -1.215463  0  -0.417609  -0.676703  0  2.283287  0
O  O131  1  0.97045740  0.70249354  0.66716702  1  0  -0.747794  0  2.021169  0  0  -0.694683  0  2.276838  0  0  -0.725866  0  2.265161  0  -1.215482  0  -0.417637  -0.676753  0  2.283303  0
O  O132  1  0.92650504  0.03886825  0.57052051  1  0  -0.816794  0  2.139439  0  0  -0.755986  0  2.402546  0  0  -0.791449  0  2.391416  0  -1.219257  0  -0.433121  -0.73837  0  2.40936  0
O  O133  1  0.07349089  0.96113066  0.42948172  1  0  -0.816839  0  2.139339  0  0  -0.756019  0  2.402479  0  0  -0.791481  0  2.391337  0  -1.219347  0  -0.433191  -0.738401  0  2.409294  0
O  O134  1  0.75621225  0.89808030  0.36894563  1  0  -0.72229  0  2.024114  0  0  -0.675454  0  2.278689  0  0  -0.70578  0  2.268702  0  -1.199513  0  -0.371362  -0.657855  0  2.284119  0
O  O135  1  0.24378928  0.10192230  0.63105404  1  0  -0.72223  0  2.024027  0  0  -0.675391  0  2.278631  0  0  -0.705716  0  2.268649  0  -1.199455  0  -0.371322  -0.657789  0  2.284055  0
O  O136  1  0.95227219  0.28582149  0.53529310  1  0  -0.920724  0  1.904963  0  0  -0.862017  0  2.099535  0  0  -0.887524  0  2.06179  0  -1.280496  0  -0.640033  -0.84716  0  2.123946  0
O  O137  1  0.04772882  0.71418202  0.46470876  1  0  -0.92077  0  1.904987  0  0  -0.862071  0  2.099506  0  0  -0.887577  0  2.061762  0  -1.280286  0  -0.640066  -0.847212  0  2.12392  0
O  O138  1  0.71782769  0.13684772  0.39518298  1  0  -0.902667  0  1.83351  0  0  -0.851841  0  2.019385  0  0  -0.874396  0  1.982432  0  -1.319859  0  -0.630977  -0.839916  0  2.042676  0
O  O139  1  0.28217294  0.86315304  0.60481717  1  0  -0.902577  0  1.833387  0  0  -0.851758  0  2.019412  0  0  -0.874311  0  1.982464  0  -1.319997  0  -0.630932  -0.839833  0  2.042702  0
