# generated using pymatgen
data_AgH2C3N3O2
_symmetry_space_group_name_H-M   'P 1'
_cell_length_a   6.06567695
_cell_length_b   6.85061789
_cell_length_c   12.26471946
_cell_angle_alpha   89.99682315
_cell_angle_beta   89.99989774
_cell_angle_gamma   90.00038344
_symmetry_Int_Tables_number   1
_chemical_formula_structural   AgH2C3N3O2
_chemical_formula_sum   'Ag4 H8 C12 N12 O8'
_cell_volume   509.64367520
_cell_formula_units_Z   4
loop_
 _symmetry_equiv_pos_site_id
 _symmetry_equiv_pos_as_xyz
  1  'x, y, z'
loop_
 _atom_site_type_symbol
 _atom_site_label
 _atom_site_symmetry_multiplicity
 _atom_site_fract_x
 _atom_site_fract_y
 _atom_site_fract_z
 _atom_site_occupancy
 _atom_site_hle17_bader_spin_density
 _atom_site_hle17_ddec_charge
 _atom_site_hle17_ddec_spin_density
 _atom_site_hle17_ddec_sum_bond_order
 _atom_site_hle17_magmom
 _atom_site_hse06_10hf_bader_spin_density
 _atom_site_hse06_10hf_ddec_charge
 _atom_site_hse06_10hf_ddec_spin_density
 _atom_site_hse06_10hf_ddec_sum_bond_order
 _atom_site_hse06_10hf_magmom
 _atom_site_hse06_bader_spin_density
 _atom_site_hse06_ddec_charge
 _atom_site_hse06_ddec_spin_density
 _atom_site_hse06_ddec_sum_bond_order
 _atom_site_hse06_magmom
 _atom_site_pbe_bader_spin_density
 _atom_site_pbe_cm5_charge
 _atom_site_pbe_ddec_charge
 _atom_site_pbe_ddec_spin_density
 _atom_site_pbe_ddec_sum_bond_order
 _atom_site_pbe_magmom
Ag  Ag0  1  0.75000690  0.04617729  0.27370500  1  0  0.47146  0  1.589613  0  0  0.320645  0  2.079391  0  0  0.35156  0  2.026306  0  0  0.447255  0.298486  0  2.118035  0
Ag  Ag1  1  0.25005307  0.95380686  0.72628569  1  0  0.471284  0  1.589854  0  0  0.320505  0  2.079805  0  0  0.351411  0  2.026717  0  0  0.447244  0.298341  0  2.118467  0
Ag  Ag2  1  0.24997207  0.04611264  0.22625214  1  0  0.471182  0  1.589696  0  0  0.32029  0  2.079568  0  0  0.351203  0  2.026488  0  0  0.447084  0.298126  0  2.118212  0
Ag  Ag3  1  0.74997249  0.95389340  0.77370350  1  0  0.471512  0  1.589893  0  0  0.320738  0  2.079778  0  0  0.351646  0  2.026673  0  0  0.447344  0.298575  0  2.11843  0
H  H4  1  0.75000691  0.84792867  0.51078031  1  0  0.098975  0  0.926533  0  0  0.110975  0  0.984444  0  0  0.112709  0  0.982657  0  0  0.13246  0.109727  0  0.985723  0
H  H5  1  0.24999535  0.15210219  0.48924544  1  0  0.098983  0  0.926766  0  0  0.111045  0  0.984607  0  0  0.112776  0  0.982828  0  0  0.132474  0.109799  0  0.985881  0
H  H6  1  0.25001441  0.84797756  0.98922206  1  0  0.099181  0  0.926561  0  0  0.111068  0  0.984549  0  0  0.112798  0  0.982775  0  0  0.132484  0.109815  0  0.985825  0
H  H7  1  0.74999774  0.15200513  0.01074825  1  0  0.099204  0  0.926625  0  0  0.110968  0  0.98474  0  0  0.112684  0  0.982991  0  0  0.132513  0.109719  0  0.986014  0
H  H8  1  0.75000686  0.44853324  0.43590853  1  0  0.124529  0  0.963479  0  0  0.128102  0  1.034113  0  0  0.131084  0  1.030983  0  0  0.120443  0.125929  0  1.036451  0
H  H9  1  0.24999540  0.55147426  0.56412619  1  0  0.124717  0  0.963301  0  0  0.128295  0  1.033972  0  0  0.131254  0  1.030862  0  0  0.120509  0.126131  0  1.03629  0
H  H10  1  0.25002513  0.44861110  0.06410336  1  0  0.124671  0  0.963124  0  0  0.128227  0  1.033827  0  0  0.131172  0  1.030767  0  0  0.12044  0.126042  0  1.036139  0
H  H11  1  0.74999856  0.55147669  0.93588978  1  0  0.124458  0  0.963447  0  0  0.12806  0  1.034092  0  0  0.131002  0  1.031009  0  0  0.120427  0.125884  0  1.03643  0
C  C12  1  0.75000976  0.00505090  0.52157599  1  0  0.23188  0  3.674569  0  0  0.172256  0  3.937771  0  0  0.185357  0  3.955627  0  0  0.13349  0.163544  0  3.924915  0
C  C13  1  0.25001393  0.99498434  0.47842612  1  0  0.231476  0  3.67541  0  0  0.171748  0  3.938728  0  0  0.184841  0  3.956599  0  0  0.133268  0.163041  0  3.925861  0
C  C14  1  0.24998431  0.00509790  0.97842573  1  0  0.231535  0  3.675107  0  0  0.171994  0  3.938416  0  0  0.185092  0  3.956264  0  0  0.13343  0.163287  0  3.92556  0
C  C15  1  0.74999487  0.99490669  0.02157394  1  0  0.231727  0  3.675754  0  0  0.172234  0  3.93909  0  0  0.185331  0  3.956945  0  0  0.133445  0.163528  0  3.926228  0
C  C16  1  0.74999280  0.28755321  0.59673094  1  0  0.126325  0  3.769412  0  0  0.088679  0  4.033931  0  0  0.083046  0  4.061288  0  0  0.163239  0.091981  0  4.015707  0
C  C17  1  0.25000946  0.71242510  0.40329808  1  0  0.12614  0  3.769333  0  0  0.088546  0  4.033831  0  0  0.082915  0  4.061188  0  0  0.163365  0.091847  0  4.015599  0
C  C18  1  0.24994112  0.28757674  0.90324295  1  0  0.125827  0  3.769906  0  0  0.08869  0  4.033924  0  0  0.083048  0  4.061286  0  0  0.163183  0.091989  0  4.015696  0
C  C19  1  0.75000838  0.71239573  0.09673551  1  0  0.125559  0  3.770109  0  0  0.088202  0  4.034233  0  0  0.082566  0  4.061577  0  0  0.163172  0.091506  0  4.016006  0
C  C20  1  0.75000458  0.31570789  0.48389872  1  0  0.019514  0  3.637513  0  0  -0.034154  0  3.911831  0  0  -0.024168  0  3.927734  0  0  0.023257  -0.04064  0  3.900846  0
C  C21  1  0.25000922  0.68427772  0.51611644  1  0  0.018974  0  3.637837  0  0  -0.034684  0  3.912188  0  0  -0.024689  0  3.928133  0  0  0.023065  -0.041156  0  3.901195  0
C  C22  1  0.24997678  0.31578742  0.01608972  1  0  0.019396  0  3.637014  0  0  -0.034442  0  3.91121  0  0  -0.024429  0  3.927104  0  0  0.023377  -0.040898  0  3.900243  0
C  C23  1  0.75000075  0.68423760  0.98390505  1  0  0.019581  0  3.63777  0  0  -0.03419  0  3.911981  0  0  -0.024174  0  3.927911  0  0  0.0232  -0.040677  0  3.900998  0
N  N24  1  0.75001702  0.13585918  0.43758338  1  0  -0.339461  0  3.338599  0  0  -0.247239  0  3.639475  0  0  -0.272163  0  3.656792  0  0  -0.379834  -0.229835  0  3.626926  0
N  N25  1  0.25002151  0.86414249  0.56240487  1  0  -0.339091  0  3.338551  0  0  -0.246966  0  3.639581  0  0  -0.271895  0  3.656918  0  0  -0.379856  -0.229561  0  3.627019  0
N  N26  1  0.25000396  0.13593135  0.06240023  1  0  -0.338953  0  3.338448  0  0  -0.246662  0  3.639268  0  0  -0.27158  0  3.656579  0  0  -0.379562  -0.229263  0  3.626702  0
N  N27  1  0.74999006  0.86408053  0.93760351  1  0  -0.339459  0  3.338838  0  0  -0.247253  0  3.639712  0  0  -0.272167  0  3.657004  0  0  -0.379701  -0.229852  0  3.627156  0
N  N28  1  0.74999685  0.09072609  0.61927436  1  0  -0.410159  0  3.388091  0  0  -0.318592  0  3.68407  0  0  -0.339982  0  3.701265  0  0  -0.384444  -0.303383  0  3.672158  0
N  N29  1  0.25000871  0.90924930  0.38074976  1  0  -0.409926  0  3.387571  0  0  -0.318195  0  3.683292  0  0  -0.339604  0  3.700534  0  0  -0.384056  -0.302983  0  3.671366  0
N  N30  1  0.24997160  0.09073864  0.88073031  1  0  -0.409981  0  3.387958  0  0  -0.318647  0  3.683887  0  0  -0.340027  0  3.701086  0  0  -0.384378  -0.303445  0  3.671979  0
N  N31  1  0.75000593  0.90921632  0.11924489  1  0  -0.410052  0  3.388047  0  0  -0.318403  0  3.683587  0  0  -0.339806  0  3.700815  0  0  -0.384254  -0.303194  0  3.671661  0
N  N32  1  0.74999335  0.43128084  0.67891967  1  0  0.461879  0  4.008115  0  0  0.525563  0  4.249009  0  0  0.548035  0  4.259645  0  0  0.042652  0.510479  0  4.241826  0
N  N33  1  0.25001221  0.56868871  0.32109223  1  0  0.462665  0  4.009106  0  0  0.526162  0  4.250142  0  0  0.548633  0  4.260764  0  0  0.042643  0.511084  0  4.242952  0
N  N34  1  0.24999625  0.43132391  0.82106673  1  0  0.461846  0  4.008472  0  0  0.52531  0  4.249334  0  0  0.547789  0  4.259968  0  0  0.042392  0.510225  0  4.242158  0
N  N35  1  0.74999447  0.56865732  0.17892070  1  0  0.462723  0  4.009747  0  0  0.526321  0  4.250532  0  0  0.548794  0  4.261159  0  0  0.042513  0.511239  0  4.243348  0
O  O36  1  0.75000075  0.60633072  0.64894145  1  0  -0.397985  0  1.805463  0  0  -0.376769  0  2.028694  0  0  -0.391565  0  2.022106  0  0  -0.148477  -0.366696  0  2.033413  0
O  O37  1  0.25001305  0.39364905  0.35101908  1  0  -0.397843  0  1.806509  0  0  -0.376571  0  2.029788  0  0  -0.391359  0  2.023201  0  0  -0.14815  -0.366498  0  2.034494  0
O  O38  1  0.24999370  0.60636216  0.85107113  1  0  -0.397714  0  1.805201  0  0  -0.376455  0  2.028464  0  0  -0.391261  0  2.021874  0  0  -0.148279  -0.366374  0  2.033177  0
O  O39  1  0.75000856  0.39362636  0.14898071  1  0  -0.397959  0  1.806012  0  0  -0.376771  0  2.029287  0  0  -0.391567  0  2.022691  0  0  -0.148253  -0.366692  0  2.033998  0
O  O40  1  0.74998643  0.37993042  0.77695372  1  0  -0.386917  0  1.795736  0  0  -0.369478  0  2.008196  0  0  -0.3839  0  2.003119  0  0  -0.15023  -0.359598  0  2.011852  0
O  O41  1  0.25003232  0.62008584  0.22308182  1  0  -0.387297  0  1.796298  0  0  -0.369803  0  2.008876  0  0  -0.384215  0  2.003793  0  0  -0.150373  -0.359958  0  2.012565  0
O  O42  1  0.25001426  0.37996535  0.72303433  1  0  -0.387147  0  1.795801  0  0  -0.369545  0  2.008169  0  0  -0.383972  0  2.003094  0  0  -0.15027  -0.359676  0  2.011832  0
O  O43  1  0.74998800  0.62005530  0.27692701  1  0  -0.387255  0  1.796387  0  0  -0.369803  0  2.008874  0  0  -0.384223  0  2.003798  0  0  -0.150248  -0.359943  0  2.012548  0
