# generated using pymatgen
data_NiH24C22(NO)6
_symmetry_space_group_name_H-M   'P 1'
_cell_length_a   8.59662650
_cell_length_b   11.53964676
_cell_length_c   12.11300000
_cell_angle_alpha   111.42069694
_cell_angle_beta   90.00000000
_cell_angle_gamma   90.00000000
_symmetry_Int_Tables_number   1
_chemical_formula_structural   NiH24C22(NO)6
_chemical_formula_sum   'Ni2 H48 C44 N12 O12'
_cell_volume   1118.63008195
_cell_formula_units_Z   2
loop_
 _symmetry_equiv_pos_site_id
 _symmetry_equiv_pos_as_xyz
  1  'x, y, z'
loop_
 _atom_site_type_symbol
 _atom_site_label
 _atom_site_symmetry_multiplicity
 _atom_site_fract_x
 _atom_site_fract_y
 _atom_site_fract_z
 _atom_site_occupancy
 _atom_site_pbe_bader_charge
 _atom_site_pbe_bader_spin_density
 _atom_site_pbe_cm5_charge
 _atom_site_pbe_ddec_charge
 _atom_site_pbe_ddec_spin_density
 _atom_site_pbe_ddec_sum_bond_order
 _atom_site_pbe_magmom
Ni  Ni0  1  0.00000000  0.49999937  0.99999937  1  1.178436  -1.576124  0.636398  0.803725  -1.832898  2.465251  -1.564
Ni  Ni1  1  0.50000079  0.00000093  0.00000115  1  1.178436  1.576124  0.636416  0.803752  1.832898  2.465214  1.564
H  H2  1  0.93521453  0.30166813  0.06162711  1  0.628225  -0.000489  0.285864  0.375304  -0.000707  0.970142  -0.001
H  H3  1  0.43521607  0.19833310  0.93837290  1  0.628212  0.00049  0.285853  0.375305  0.000707  0.970145  0.001
H  H4  1  0.06478472  0.69833340  0.93837342  1  0.628223  -0.00049  0.285863  0.375293  -0.000707  0.970152  -0.001
H  H5  1  0.56478550  0.80166657  0.06162698  1  0.62822  0.00049  0.285852  0.37527  0.000707  0.970185  0.001
H  H6  1  0.92725094  0.52725179  0.24547146  1  0.132223  -0.001661  0.111897  0.08386  -0.000588  1.042518  -0.001
H  H7  1  0.42725015  0.97274911  0.75452679  1  0.132206  0.001661  0.111886  0.083865  0.000588  1.042522  0.001
H  H8  1  0.07275179  0.47274695  0.75452645  1  0.132227  -0.001661  0.111886  0.083834  -0.000587  1.042503  -0.001
H  H9  1  0.57275025  0.02725242  0.24547456  1  0.132225  0.001661  0.111876  0.083832  0.000588  1.042501  0.001
H  H10  1  0.96918948  0.67756177  0.45132557  1  0.111738  -0.000834  0.104561  0.11117  -0.000392  1.037647  0.0
H  H11  1  0.46918754  0.82243820  0.54867401  1  0.111716  0.000834  0.104555  0.111174  0.000392  1.037638  0.0
H  H12  1  0.03080976  0.32243697  0.54867317  1  0.11178  -0.000834  0.104558  0.111182  -0.000392  1.03763  0.0
H  H13  1  0.53080938  0.17756519  0.45132717  1  0.111771  0.000834  0.104545  0.111144  0.000392  1.037674  0.0
H  H14  1  0.27493808  0.88178826  0.30420498  1  0.078043  -0.000973  0.108874  0.118666  -0.000445  0.998335  0.0
H  H15  1  0.77493421  0.61821078  0.69579593  1  0.075848  0.000975  0.108877  0.118667  0.000445  0.998306  0.0
H  H16  1  0.72506233  0.11821048  0.69579458  1  0.078012  -0.000973  0.108896  0.118712  -0.000445  0.998305  0.0
H  H17  1  0.22506270  0.38178982  0.30420263  1  0.078014  0.000973  0.108884  0.118692  0.000445  0.998306  0.0
H  H18  1  0.21151320  0.72809361  0.10539417  1  0.116555  -0.001416  0.116023  0.08491  -0.000376  1.039063  -0.001
H  H19  1  0.71151399  0.77190822  0.89460606  1  0.116564  0.001416  0.11603  0.084917  0.000376  1.039068  0.001
H  H20  1  0.78848837  0.27190699  0.89460687  1  0.116554  -0.001417  0.116002  0.084882  -0.000377  1.039059  -0.001
H  H21  1  0.28848991  0.22809238  0.10539250  1  0.116527  0.001417  0.116024  0.084917  0.000376  1.039053  0.001
H  H22  1  0.29708979  0.04221071  0.50406457  1  0.068176  -1.4e-05  0.106348  0.134874  -9e-06  1.01971  0.0
H  H23  1  0.79709058  0.45778959  0.49593513  1  0.068176  1.4e-05  0.106363  0.134884  9e-06  1.019685  0.0
H  H24  1  0.70290945  0.95778803  0.49593417  1  0.068181  -1.4e-05  0.106365  0.134904  -9e-06  1.019654  0.0
H  H25  1  0.20290983  0.54221101  0.50406591  1  0.068173  1.4e-05  0.106377  0.134904  9e-06  1.019677  0.0
H  H26  1  0.22471489  0.14477590  0.74273573  1  0.153749  2.7e-05  0.122333  0.126701  1e-05  1.026289  0.0
H  H27  1  0.72471568  0.35522440  0.25726396  1  0.153743  -2.7e-05  0.122332  0.126708  -1e-05  1.02629  0.0
H  H28  1  0.77528668  0.85522377  0.25726415  1  0.153745  2.7e-05  0.122336  0.126708  1e-05  1.02628  0.0
H  H29  1  0.27528473  0.64477620  0.74273625  1  0.153739  -2.7e-05  0.12233  0.126692  -1e-05  1.026293  0.0
H  H30  1  0.88832288  0.01037465  0.79916975  1  0.060808  3.1e-05  0.111633  0.09523  -7e-06  0.977384  0.0
H  H31  1  0.38832209  0.48962658  0.20083109  1  0.060951  -3.1e-05  0.111633  0.095212  7e-06  0.977404  0.0
H  H32  1  0.11167753  0.98962688  0.20083160  1  0.060957  3.1e-05  0.111637  0.09522  -7e-06  0.977381  0.0
H  H33  1  0.61167715  0.51037309  0.79916797  1  0.060956  -3.1e-05  0.111623  0.095229  7e-06  0.977365  0.0
H  H34  1  0.05928023  0.08318429  0.87706715  1  0.086348  0.000236  0.115253  0.098292  0.000152  0.998265  0.0
H  H35  1  0.55927985  0.41681694  0.12293287  1  0.086374  -0.000236  0.115243  0.098269  -0.000152  0.998319  0.0
H  H36  1  0.94071901  0.91681817  0.12293288  1  0.086371  0.000236  0.115235  0.098246  0.000152  0.998367  0.0
H  H37  1  0.44071939  0.58318180  0.87706669  1  0.086381  -0.000236  0.115239  0.098267  -0.000152  0.998352  0.0
H  H38  1  0.94040261  0.89228672  0.91702880  1  0.077384  -0.00052  0.105644  0.127212  -0.000299  1.012776  0.0
H  H39  1  0.44040183  0.60771418  0.08297192  1  0.077362  0.00052  0.105649  0.127223  0.000299  1.012785  0.0
H  H40  1  0.05960012  0.10771574  0.08297205  1  0.077429  -0.00052  0.105637  0.1272  -0.000299  1.012783  0.0
H  H41  1  0.55959858  0.39228549  0.91702796  1  0.077444  0.00052  0.105641  0.127201  0.000299  1.012797  0.0
H  H42  1  0.01808151  0.79994723  0.77925465  1  0.091476  0.000936  0.106527  0.126703  0.000375  0.999213  0.0
H  H43  1  0.51808113  0.70005367  0.22074607  1  0.091458  -0.000936  0.106537  0.126736  -0.000375  0.999186  0.0
H  H44  1  0.98192006  0.20005523  0.22074703  1  0.091434  0.000936  0.106519  0.126712  0.000375  0.99922  0.0
H  H45  1  0.48191927  0.29994507  0.77925431  1  0.091447  -0.000936  0.10653  0.126736  -0.000375  0.999195  0.0
H  H46  1  0.11346544  0.31193014  0.01500848  1  0.63797  0.000228  0.282964  0.360669  -0.000113  0.995315  0.0
H  H47  1  0.61346622  0.18807016  0.98499204  1  0.637962  -0.000228  0.282958  0.360665  0.000113  0.995317  0.0
H  H48  1  0.88653613  0.68806953  0.98499305  1  0.637959  0.000228  0.282963  0.360671  -0.000113  0.995311  0.0
H  H49  1  0.38653535  0.81193044  0.01500735  1  0.637967  -0.000228  0.282966  0.360676  0.000113  0.995305  0.0
C  C50  1  0.00234976  0.60776724  0.26280628  1  0.454851  0.00366  0.036217  0.088989  0.001648  3.96224  0.003
C  C51  1  0.50234822  0.89223273  0.73719247  1  0.454741  -0.003659  0.036256  0.089002  -0.001648  3.962138  -0.003
C  C52  1  0.99765065  0.39223150  0.73719080  1  0.454802  0.00366  0.036268  0.089077  0.001648  3.962098  0.003
C  C53  1  0.49765103  0.10776880  0.26280889  1  0.454798  -0.00366  0.036249  0.089041  -0.001648  3.962146  -0.003
C  C54  1  0.02785511  0.69074022  0.37714821  1  -0.028701  -0.005361  -0.087353  -0.178049  -0.003125  3.949995  -0.004
C  C55  1  0.52785357  0.80925975  0.62285219  1  -0.028797  0.005361  -0.087333  -0.178021  0.003124  3.949915  0.004
C  C56  1  0.97214297  0.30925852  0.62285217  1  -0.028707  -0.00536  -0.087349  -0.178054  -0.003124  3.950062  -0.004
C  C57  1  0.47214335  0.19074178  0.37714834  1  -0.02878  0.005361  -0.08737  -0.17806  0.003124  3.950011  0.004
C  C58  1  0.12485479  0.79464960  0.39664535  1  -0.027592  0.006026  0.016666  0.105951  0.003462  4.002182  0.004
C  C59  1  0.62485209  0.70534758  0.60335408  1  -0.031542  -0.006027  0.016629  0.105898  -0.003462  4.002099  -0.004
C  C60  1  0.87514445  0.20534914  0.60335339  1  -0.031576  0.006027  0.016645  0.105892  0.003462  4.00215  0.004
C  C61  1  0.37514483  0.29465302  0.39664613  1  -0.031574  -0.006027  0.01666  0.105956  -0.003462  4.00213  -0.004
C  C62  1  0.19593616  0.80538078  0.29651952  1  -0.037774  -0.005527  -0.085619  -0.17496  -0.003232  3.937239  -0.004
C  C63  1  0.69593229  0.69461826  0.70348221  1  -0.035473  0.005526  -0.085629  -0.174952  0.003232  3.937196  0.004
C  C64  1  0.80406308  0.19461703  0.70348302  1  -0.037781  -0.005528  -0.0856  -0.174932  -0.003233  3.93715  -0.004
C  C65  1  0.30406462  0.30538234  0.29651634  1  -0.037677  0.005527  -0.085593  -0.174937  0.003232  3.937172  0.004
C  C66  1  0.16180882  0.71901847  0.18449294  1  0.456178  0.004001  0.040738  0.085104  0.001742  3.96752  0.003
C  C67  1  0.66180728  0.78098150  0.81550664  1  0.456161  -0.004001  0.040734  0.085094  -0.001742  3.967571  -0.003
C  C68  1  0.83819275  0.28098120  0.81550529  1  0.456182  0.004001  0.040726  0.08508  0.001742  3.967676  0.003
C  C69  1  0.33819313  0.21901910  0.18449357  1  0.456192  -0.004001  0.040755  0.085127  -0.001742  3.967597  -0.003
C  C70  1  0.14176142  0.88851386  0.51532234  1  0.462176  -0.000544  0.086485  0.120718  -0.000285  4.084397  -0.001
C  C71  1  0.64176104  0.61148517  0.48467691  1  0.466114  0.000544  0.086513  0.120749  0.000285  4.084438  0.001
C  C72  1  0.85823666  0.11148580  0.48467755  1  0.466109  -0.000544  0.086513  0.120762  -0.000285  4.084372  -0.001
C  C73  1  0.35823704  0.38851450  0.51532215  1  0.466108  0.000544  0.086489  0.120662  0.000285  4.084437  0.001
C  C74  1  0.22474630  0.00292948  0.55495799  1  -0.019011  0.001052  -0.111633  -0.245795  0.000582  3.990056  0.001
C  C75  1  0.72474592  0.49707082  0.44504253  1  -0.018878  -0.001052  -0.111581  -0.245702  -0.000582  3.989997  -0.001
C  C76  1  0.77525411  0.99707019  0.44504107  1  -0.01887  0.001052  -0.111682  -0.245846  0.000582  3.990027  0.001
C  C77  1  0.27525216  0.50292978  0.55495768  1  -0.018892  -0.001052  -0.111687  -0.245811  -0.000582  3.990022  -0.001
C  C78  1  0.18978724  0.05756743  0.67451365  1  0.344262  -0.00021  0.015362  -0.070707  -8.4e-05  3.922679  0.0
C  C79  1  0.68978802  0.44243194  0.32548654  1  0.34412  0.00021  0.015317  -0.070752  8.4e-05  3.922575  0.0
C  C80  1  0.81021201  0.94243224  0.32548623  1  0.344104  -0.00021  0.015388  -0.070667  -8.5e-05  3.922601  0.0
C  C81  1  0.31021122  0.55756773  0.67451417  1  0.344119  0.00021  0.015397  -0.070639  8.5e-05  3.922614  0.0
C  C82  1  0.01255492  0.99702086  0.81197429  1  0.311316  0.000173  -0.051343  -0.067704  0.000164  3.891554  0.0
C  C83  1  0.51255455  0.50298098  0.18802676  1  0.311199  -0.000173  -0.051296  -0.067587  -0.000164  3.891682  0.0
C  C84  1  0.98744432  0.00298067  0.18802707  1  0.310671  0.000173  -0.051277  -0.067557  0.000164  3.891698  0.0
C  C85  1  0.48744470  0.49701869  0.81197313  1  0.310677  -0.000173  -0.051294  -0.067631  -0.000164  3.891663  0.0
C  C86  1  0.03366320  0.88872610  0.85368232  1  -0.054592  0.006083  -0.167526  -0.338392  0.00364  3.929225  0.005
C  C87  1  0.53366399  0.61127480  0.14631840  1  -0.054567  -0.006083  -0.167544  -0.338449  -0.00364  3.929318  -0.005
C  C88  1  0.96633720  0.11127636  0.14631771  1  -0.054121  0.006083  -0.167529  -0.338429  0.00364  3.929293  0.005
C  C89  1  0.46633758  0.38872394  0.85368281  1  -0.054149  -0.006083  -0.167519  -0.338403  -0.00364  3.929248  -0.005
C  C90  1  0.18797723  0.88678150  0.91431508  1  1.540618  -0.001378  0.215002  0.628344  -0.000227  4.12213  -0.002
C  C91  1  0.68797685  0.61321940  0.08568482  1  1.540597  0.001378  0.214998  0.628346  0.000227  4.122133  0.002
C  C92  1  0.81202434  0.11322003  0.08568545  1  1.540628  -0.001378  0.215008  0.628381  -0.000227  4.122101  -0.002
C  C93  1  0.31202472  0.38678027  0.91431589  1  1.5406  0.001378  0.215018  0.628403  0.000227  4.122073  0.002
N  N94  1  0.06532446  0.62200225  0.16639271  1  -1.211731  -0.069246  -0.337413  -0.24564  -0.042416  3.582031  -0.062
N  N95  1  0.56532408  0.87799772  0.83360769  1  -1.211619  0.069245  -0.33745  -0.245682  0.042416  3.5819  0.062
N  N96  1  0.93467362  0.37799556  0.83360735  1  -1.211715  -0.069245  -0.33746  -0.24569  -0.042415  3.581962  -0.062
N  N97  1  0.43467632  0.12200288  0.16639334  1  -1.21171  0.069246  -0.337469  -0.245718  0.042416  3.581987  0.062
N  N98  1  0.06170793  0.87480108  0.60585305  1  -0.650332  0.001461  -0.227564  -0.289952  0.000808  3.114115  0.001
N  N99  1  0.56170639  0.62519889  0.39414653  1  -0.650291  -0.001461  -0.227587  -0.28998  -0.000808  3.114197  -0.001
N  N100  1  0.93829132  0.12520045  0.39414666  1  -0.650272  0.001462  -0.227602  -0.289995  0.000808  3.114142  0.001
N  N101  1  0.43829170  0.37479985  0.60585303  1  -0.650273  -0.001462  -0.227556  -0.289912  -0.000808  3.114115  -0.001
N  N102  1  0.09278174  0.97744819  0.70049344  1  -0.781516  0.000844  -0.137899  0.198504  0.000463  3.760082  0.001
N  N103  1  0.59278137  0.52255178  0.29950614  1  -0.78154  -0.000844  -0.137947  0.198392  -0.000463  3.760236  -0.001
N  N104  1  0.90721750  0.02255241  0.29950595  1  -0.781518  0.000844  -0.137924  0.198425  0.000463  3.760204  0.001
N  N105  1  0.40721671  0.47744696  0.70049342  1  -0.781501  -0.000844  -0.137934  0.198392  -0.000463  3.760137  -0.001
O  O106  1  0.22109719  0.78807853  0.93450605  1  -1.201916  -0.001418  -0.314849  -0.568586  -0.000945  2.217993  -0.001
O  O107  1  0.72109798  0.71192144  0.06549435  1  -1.201916  0.001418  -0.31485  -0.568601  0.000945  2.217993  0.001
O  O108  1  0.77890554  0.21192301  0.06549366  1  -1.201938  -0.001418  -0.314866  -0.568638  -0.000945  2.217951  -0.001
O  O109  1  0.27890592  0.28807823  0.93450801  1  -1.201933  0.001418  -0.31484  -0.568621  0.000945  2.217947  0.001
O  O110  1  0.27218933  0.98359851  0.94272080  1  -1.149765  0.066502  -0.30543  -0.534828  0.039671  2.357864  0.062
O  O111  1  0.77218895  0.51640239  0.05727992  1  -1.149748  -0.066502  -0.305414  -0.534802  -0.039671  2.357856  -0.062
O  O112  1  0.72781340  0.01640395  0.05728005  1  -1.149743  0.0665  -0.305429  -0.534832  0.039669  2.357897  0.062
O  O113  1  0.22781262  0.48359635  0.94272046  1  -1.149705  -0.066499  -0.305457  -0.534872  -0.039669  2.357873  -0.062
O  O114  1  0.02629055  0.35757207  0.06772909  1  -1.238378  -0.065592  -0.579939  -0.758424  -0.038981  2.212297  -0.057
O  O115  1  0.52629017  0.14242823  0.93227143  1  -1.238359  0.065591  -0.579933  -0.758441  0.038981  2.212274  0.057
O  O116  1  0.97370986  0.64242853  0.93227112  1  -1.23836  -0.065589  -0.579946  -0.758429  -0.038979  2.212256  -0.057
O  O117  1  0.47371024  0.85757144  0.06772928  1  -1.238364  0.06559  -0.57995  -0.758425  0.03898  2.212249  0.057
