# generated using pymatgen
data_Cu2H17C9N4Cl3
_symmetry_space_group_name_H-M   'P 1'
_cell_length_a   6.93783380
_cell_length_b   7.58396865
_cell_length_c   12.95117290
_cell_angle_alpha   92.30634836
_cell_angle_beta   98.59247347
_cell_angle_gamma   101.25072448
_symmetry_Int_Tables_number   1
_chemical_formula_structural   Cu2H17C9N4Cl3
_chemical_formula_sum   'Cu4 H34 C18 N8 Cl6'
_cell_volume   659.15208029
_cell_formula_units_Z   2
loop_
 _symmetry_equiv_pos_site_id
 _symmetry_equiv_pos_as_xyz
  1  'x, y, z'
loop_
 _atom_site_type_symbol
 _atom_site_label
 _atom_site_symmetry_multiplicity
 _atom_site_fract_x
 _atom_site_fract_y
 _atom_site_fract_z
 _atom_site_occupancy
 _atom_site_hle17_bader_spin_density
 _atom_site_hle17_ddec_charge
 _atom_site_hle17_ddec_spin_density
 _atom_site_hle17_ddec_sum_bond_order
 _atom_site_hle17_magmom
 _atom_site_hse06_10hf_bader_spin_density
 _atom_site_hse06_10hf_ddec_charge
 _atom_site_hse06_10hf_ddec_spin_density
 _atom_site_hse06_10hf_ddec_sum_bond_order
 _atom_site_hse06_10hf_magmom
 _atom_site_hse06_bader_spin_density
 _atom_site_hse06_ddec_charge
 _atom_site_hse06_ddec_spin_density
 _atom_site_hse06_ddec_sum_bond_order
 _atom_site_hse06_magmom
 _atom_site_pbe_bader_spin_density
 _atom_site_pbe_cm5_charge
 _atom_site_pbe_ddec_charge
 _atom_site_pbe_ddec_spin_density
 _atom_site_pbe_ddec_sum_bond_order
 _atom_site_pbe_magmom
Cu  Cu0  1  0.91308460  0.58531407  0.60087599  1  0  0.51614  0  2.072054  0  0  0.489088  0  2.514217  0  0  0.48983  0  2.476903  0  0  0.395588  0.488045  0  2.539855  0
Cu  Cu1  1  0.08690797  0.41468520  0.39912115  1  0  0.516194  0  2.072062  0  0  0.489119  0  2.514233  0  0  0.489847  0  2.476929  0  0  0.395621  0.488079  0  2.539857  0
Cu  Cu2  1  0.96122472  0.48835977  0.88708124  1  0  0.392597  0  1.946377  0  0  0.302577  0  2.433975  0  0  0.31499  0  2.378883  0  0  0.297654  0.29567  0  2.470831  0
Cu  Cu3  1  0.03878396  0.51163958  0.11292019  1  0  0.392606  0  1.946387  0  0  0.302578  0  2.433993  0  0  0.314997  0  2.378895  0  0  0.297632  0.295671  0  2.470847  0
H  H4  1  0.90240051  0.09204048  0.85846957  1  0  0.092883  0  0.932915  0  0  0.101928  0  1.000315  0  0  0.103266  0  0.99948  0  0  0.117447  0.100777  0  1.001184  0
H  H5  1  0.09760175  0.90795614  0.14153208  1  0  0.092933  0  0.932892  0  0  0.101956  0  1.000301  0  0  0.103293  0  0.999465  0  0  0.117475  0.100797  0  1.001168  0
H  H6  1  0.86980784  0.16597890  0.72644608  1  0  0.09535  0  0.926958  0  0  0.103998  0  0.994622  0  0  0.10525  0  0.993854  0  0  0.118966  0.102954  0  0.995424  0
H  H7  1  0.13019440  0.83401773  0.27355480  1  0  0.09538  0  0.926973  0  0  0.104019  0  0.994629  0  0  0.105271  0  0.993861  0  0  0.118987  0.10297  0  0.995434  0
H  H8  1  0.36983047  0.88364323  0.64819185  1  0  0.094754  0  0.94036  0  0  0.102462  0  1.008408  0  0  0.103693  0  1.008186  0  0  0.113172  0.10144  0  1.00878  0
H  H9  1  0.63016856  0.11635876  0.35180816  1  0  0.094736  0  0.940345  0  0  0.102454  0  1.008394  0  0  0.103687  0  1.008169  0  0  0.113163  0.101428  0  1.008771  0
H  H10  1  0.56491384  0.04677457  0.60742628  1  0  0.09403  0  0.930461  0  0  0.107303  0  0.988557  0  0  0.107467  0  0.990145  0  0  0.117526  0.107033  0  0.98768  0
H  H11  1  0.43509135  0.95322880  0.39257577  1  0  0.094028  0  0.930397  0  0  0.107292  0  0.988523  0  0  0.107456  0  0.990112  0  0  0.117523  0.107021  0  0.987643  0
H  H12  1  0.18575008  0.97641156  0.77653949  1  0  0.071178  0  0.923884  0  0  0.085822  0  0.989182  0  0  0.085677  0  0.989266  0  0  0.115126  0.085794  0  0.989295  0
H  H13  1  0.81425069  0.02359179  0.22345991  1  0  0.071155  0  0.923902  0  0  0.085835  0  0.989167  0  0  0.08569  0  0.98925  0  0  0.115136  0.085808  0  0.98928  0
H  H14  1  0.23718993  0.20947214  0.82634215  1  0  0.079779  0  0.952084  0  0  0.088827  0  1.023586  0  0  0.089412  0  1.023422  0  0  0.107925  0.088193  0  1.023996  0
H  H15  1  0.76281230  0.79053122  0.17365736  1  0  0.079767  0  0.951984  0  0  0.088833  0  1.023481  0  0  0.089419  0  1.023316  0  0  0.107902  0.088196  0  1.023897  0
H  H16  1  0.49173215  0.41855274  0.77209750  1  0  0.079249  0  0.925746  0  0  0.091735  0  0.98996  0  0  0.09239  0  0.989519  0  0  0.115418  0.091085  0  0.990555  0
H  H17  1  0.50827536  0.58144795  0.22790388  1  0  0.079234  0  0.925818  0  0  0.0917  0  0.990018  0  0  0.092355  0  0.989576  0  0  0.115405  0.09105  0  0.990624  0
H  H18  1  0.63549751  0.35251440  0.67725310  1  0  0.066791  0  0.968001  0  0  0.073358  0  1.047437  0  0  0.075936  0  1.043227  0  0  0.103307  0.071279  0  1.050783  0
H  H19  1  0.36450883  0.64748763  0.32274822  1  0  0.066832  0  0.968019  0  0  0.073381  0  1.047441  0  0  0.075958  0  1.043234  0  0  0.103329  0.071317  0  1.050746  0
H  H20  1  0.54143046  0.32843053  0.94583716  1  0  0.084962  0  0.9207  0  0  0.095285  0  0.987362  0  0  0.096145  0  0.986647  0  0  0.114179  0.094496  0  0.988111  0
H  H21  1  0.45857440  0.67157150  0.05416251  1  0  0.084975  0  0.920724  0  0  0.095284  0  0.987405  0  0  0.096145  0  0.986689  0  0  0.114177  0.094502  0  0.988143  0
H  H22  1  0.71272830  0.18375306  0.98287769  1  0  0.08185  0  0.933665  0  0  0.085629  0  1.013589  0  0  0.087895  0  1.010188  0  0  0.11299  0.083778  0  1.016337  0
H  H23  1  0.28727191  0.81624759  0.01712314  1  0  0.081836  0  0.933606  0  0  0.085617  0  1.013531  0  0  0.087882  0  1.010131  0  0  0.112969  0.083765  0  1.016282  0
H  H24  1  0.41215108  0.79009595  0.82759498  1  0  0.08676  0  0.967104  0  0  0.097736  0  1.032281  0  0  0.098904  0  1.031832  0  0  0.109192  0.096691  0  1.03295  0
H  H25  1  0.58784796  0.20990603  0.17240580  1  0  0.086718  0  0.96711  0  0  0.097702  0  1.032288  0  0  0.098869  0  1.031838  0  0  0.109185  0.096654  0  1.032959  0
H  H26  1  0.64090287  0.87954691  0.91667391  1  0  0.096242  0  0.963079  0  0  0.10256  0  1.033307  0  0  0.104144  0  1.032702  0  0  0.111  0.10129  0  1.033898  0
H  H27  1  0.35909588  0.12045373  0.08332681  1  0  0.096221  0  0.963066  0  0  0.102545  0  1.033299  0  0  0.10413  0  1.032694  0  0  0.111006  0.101275  0  1.03389  0
H  H28  1  0.59850179  0.68314822  0.72013293  1  0  0.091581  0  0.925852  0  0  0.107146  0  0.988143  0  0  0.108295  0  0.987564  0  0  0.1145  0.106168  0  0.988829  0
H  H29  1  0.40149112  0.31685239  0.27986735  1  0  0.091613  0  0.925859  0  0  0.107172  0  0.988137  0  0  0.108323  0  0.987556  0  0  0.114513  0.106187  0  0.988825  0
H  H30  1  0.83157373  0.78283580  0.79688273  1  0  0.084916  0  0.967237  0  0  0.090758  0  1.04665  0  0  0.094037  0  1.0426  0  0  0.097522  0.088151  0  1.049852  0
H  H31  1  0.16842351  0.21715810  0.20311539  1  0  0.084899  0  0.96726  0  0  0.090719  0  1.046691  0  0  0.093998  0  1.042644  0  0  0.097518  0.088106  0  1.049886  0
H  H32  1  0.93718070  0.92534257  0.62682856  1  0  0.105024  0  0.943473  0  0  0.115809  0  1.003891  0  0  0.118354  0  1.002651  0  0  0.099055  0.113898  0  1.004962  0
H  H33  1  0.06281099  0.07465265  0.37316918  1  0  0.104926  0  0.943379  0  0  0.115751  0  1.003732  0  0  0.118296  0  1.002488  0  0  0.099053  0.11384  0  1.004806  0
H  H34  1  0.55768548  0.64207950  0.53440128  1  0  0.131758  0  0.974895  0  0  0.144706  0  1.037108  0  0  0.146701  0  1.036427  0  0  0.087738  0.143209  0  1.037711  0
H  H35  1  0.44230911  0.35791575  0.46559513  1  0  0.131848  0  0.974771  0  0  0.144764  0  1.037028  0  0  0.146761  0  1.036344  0  0  0.087778  0.143263  0  1.037629  0
H  H36  1  0.75056628  0.75730708  0.46097301  1  0  0.151566  0  0.965264  0  0  0.155093  0  1.035967  0  0  0.159139  0  1.032778  0  0  0.093528  0.152166  0  1.038241  0
H  H37  1  0.24942399  0.24268813  0.53902616  1  0  0.151653  0  0.965125  0  0  0.155167  0  1.035832  0  0  0.159209  0  1.032654  0  0  0.093541  0.152237  0  1.038108  0
C  C38  1  0.79708000  0.12651935  0.79412453  1  0  0.051163  0  3.511754  0  0  -0.016966  0  3.755239  0  0  -0.009683  0  3.764291  0  0  0.023679  -0.021982  0  3.749492  0
C  C39  1  0.20292314  0.87348131  0.20587730  1  0  0.051062  0  3.511863  0  0  -0.01701  0  3.755317  0  0  -0.009729  0  3.764374  0  0  0.02366  -0.022015  0  3.749544  0
C  C40  1  0.48448969  0.00610293  0.67227901  1  0  0.056894  0  3.528446  0  0  -0.006365  0  3.766906  0  0  0.000279  0  3.777649  0  0  0.029806  -0.010803  0  3.759568  0
C  C41  1  0.51551372  0.99389909  0.32772132  1  0  0.056878  0  3.528302  0  0  -0.006359  0  3.766883  0  0  0.000285  0  3.777628  0  0  0.029831  -0.010797  0  3.759542  0
C  C42  1  0.30200145  0.09798650  0.80013051  1  0  0.071801  0  3.629113  0  0  -0.000507  0  3.897396  0  0  0.007646  0  3.906075  0  0  0.017873  -0.005974  0  3.891393  0
C  C43  1  0.69800080  0.90201685  0.19986977  1  0  0.071809  0  3.629015  0  0  -0.000519  0  3.897388  0  0  0.007631  0  3.906067  0  0  0.017902  -0.005993  0  3.891389  0
C  C44  1  0.55929133  0.31070230  0.74347649  1  0  0.076867  0  3.592187  0  0  0.007453  0  3.851421  0  0  0.015346  0  3.859001  0  0  0.016974  0.002098  0  3.846429  0
C  C45  1  0.44071647  0.68929974  0.25652495  1  0  0.076688  0  3.592393  0  0  0.007425  0  3.851506  0  0  0.015311  0  3.859102  0  0  0.016958  0.002072  0  3.846514  0
C  C46  1  0.60423671  0.21582051  0.91934073  1  0  0.068243  0  3.602333  0  0  -0.002065  0  3.864734  0  0  0.005917  0  3.872288  0  0  0.014848  -0.007508  0  3.859872  0
C  C47  1  0.39576467  0.78417880  0.08066015  1  0  0.068262  0  3.602259  0  0  -0.002035  0  3.864663  0  0  0.005943  0  3.872225  0  0  0.014887  -0.007482  0  3.859816  0
C  C48  1  0.52870446  0.91020679  0.85451417  1  0  0.039103  0  3.544329  0  0  -0.024817  0  3.784429  0  0  -0.017989  0  3.794355  0  0  0.02307  -0.029408  0  3.777841  0
C  C49  1  0.47129458  0.08979520  0.14548661  1  0  0.039209  0  3.544127  0  0  -0.024743  0  3.78428  0  0  -0.017911  0  3.794199  0  0  0.023031  -0.029328  0  3.777681  0
C  C50  1  0.72292440  0.79985568  0.72870552  1  0  -0.039873  0  3.602151  0  0  -0.095243  0  3.850979  0  0  -0.091888  0  3.860256  0  0  -0.071155  -0.097493  0  3.845037  0
C  C51  1  0.27706878  0.20013955  0.27129388  1  0  -0.03989  0  3.602175  0  0  -0.095247  0  3.850968  0  0  -0.091892  0  3.86024  0  0  -0.071119  -0.09747  0  3.844992  0
C  C52  1  0.80988699  0.81572031  0.62923520  1  0  -0.113468  0  3.774283  0  0  -0.134363  0  4.077923  0  0  -0.131783  0  4.086389  0  0  -0.167187  -0.135964  0  4.072039  0
C  C53  1  0.19011918  0.18429382  0.37077260  1  0  -0.11319  0  3.775008  0  0  -0.134  0  4.078436  0  0  -0.131423  0  4.086921  0  0  -0.167095  -0.135612  0  4.072532  0
C  C54  1  0.70711443  0.72286000  0.53635973  1  0  -0.290939  0  3.642996  0  0  -0.348791  0  3.933314  0  0  -0.344209  0  3.934469  0  0  -0.240023  -0.351678  0  3.932582  0
C  C55  1  0.29286095  0.27712170  0.46362331  1  0  -0.291276  0  3.643995  0  0  -0.34913  0  3.934371  0  0  -0.344552  0  3.935523  0  0  -0.24019  -0.352013  0  3.933632  0
N  N56  1  0.70935781  0.27243268  0.83016722  1  0  -0.247706  0  3.277677  0  0  -0.160178  0  3.535429  0  0  -0.175509  0  3.547656  0  0  -0.359656  -0.149699  0  3.52689  0
N  N57  1  0.29064505  0.72756663  0.16983532  1  0  -0.247687  0  3.277715  0  0  -0.160187  0  3.535424  0  0  -0.175517  0  3.54765  0  0  -0.359657  -0.149711  0  3.526878  0
N  N58  1  0.63665635  0.95810736  0.75991058  1  0  -0.007603  0  3.240336  0  0  0.092581  0  3.440663  0  0  0.080124  0  3.464543  0  0  -0.225545  0.100929  0  3.424433  0
N  N59  1  0.36334473  0.04189061  0.24009024  1  0  -0.007588  0  3.240286  0  0  0.092556  0  3.440655  0  0  0.0801  0  3.464535  0  0  -0.225537  0.100896  0  3.424402  0
N  N60  1  0.40142654  0.15112494  0.71016110  1  0  -0.245223  0  3.174334  0  0  -0.179203  0  3.432745  0  0  -0.194199  0  3.44938  0  0  -0.337198  -0.168501  0  3.420765  0
N  N61  1  0.59857893  0.84887977  0.28984023  1  0  -0.245031  0  3.174237  0  0  -0.179175  0  3.432834  0  0  -0.194171  0  3.449471  0  0  -0.337243  -0.168473  0  3.420853  0
N  N62  1  0.44494337  0.05724860  0.88711827  1  0  -0.239518  0  3.208072  0  0  -0.174468  0  3.469322  0  0  -0.189651  0  3.48706  0  0  -0.339008  -0.163706  0  3.456729  0
N  N63  1  0.55505713  0.94275339  0.11288262  1  0  -0.239563  0  3.208007  0  0  -0.174491  0  3.469276  0  0  -0.189674  0  3.487013  0  0  -0.339006  -0.163733  0  3.456677  0
Cl  Cl64  1  0.12656659  0.55706125  0.75013917  1  0  -0.537532  0  1.345034  0  0  -0.481219  0  1.715531  0  0  -0.492461  0  1.678998  0  0  -0.303456  -0.473317  0  1.740725  0
Cl  Cl65  1  0.87343156  0.44294343  0.24986006  1  0  -0.537566  0  1.345066  0  0  -0.481253  0  1.715563  0  0  -0.492489  0  1.679028  0  0  -0.303461  -0.473352  0  1.740756  0
Cl  Cl66  1  0.82801686  0.29944990  0.52290627  1  0  -0.583276  0  1.118321  0  0  -0.524636  0  1.417902  0  0  -0.53853  0  1.393268  0  0  -0.31391  -0.514563  0  1.434895  0
Cl  Cl67  1  0.17198041  0.70055073  0.47709357  1  0  -0.583276  0  1.118268  0  0  -0.524634  0  1.417858  0  0  -0.538523  0  1.393219  0  0  -0.313909  -0.514564  0  1.434845  0
Cl  Cl68  1  0.85674364  0.68348002  0.99370112  1  0  -0.556378  0  1.284533  0  0  -0.493061  0  1.642925  0  0  -0.504962  0  1.605801  0  0  -0.310965  -0.484573  0  1.668303  0
Cl  Cl69  1  0.14326355  0.31651932  0.00629866  1  0  -0.55636  0  1.284525  0  0  -0.493055  0  1.642941  0  0  -0.504953  0  1.605807  0  0  -0.310949  -0.484568  0  1.668321  0
