# generated using pymatgen
data_AgPH6C7O5
_symmetry_space_group_name_H-M   'P 1'
_cell_length_a   4.72204461
_cell_length_b   5.70791198
_cell_length_c   15.89205639
_cell_angle_alpha   81.87454021
_cell_angle_beta   90.31212864
_cell_angle_gamma   82.64580514
_symmetry_Int_Tables_number   1
_chemical_formula_structural   AgPH6C7O5
_chemical_formula_sum   'Ag2 P2 H12 C14 O10'
_cell_volume   420.42960639
_cell_formula_units_Z   2
loop_
 _symmetry_equiv_pos_site_id
 _symmetry_equiv_pos_as_xyz
  1  'x, y, z'
loop_
 _atom_site_type_symbol
 _atom_site_label
 _atom_site_symmetry_multiplicity
 _atom_site_fract_x
 _atom_site_fract_y
 _atom_site_fract_z
 _atom_site_occupancy
 _atom_site_hle17_bader_spin_density
 _atom_site_hle17_ddec_charge
 _atom_site_hle17_ddec_spin_density
 _atom_site_hle17_ddec_sum_bond_order
 _atom_site_hle17_magmom
 _atom_site_hse06_10hf_bader_spin_density
 _atom_site_hse06_10hf_ddec_charge
 _atom_site_hse06_10hf_ddec_spin_density
 _atom_site_hse06_10hf_ddec_sum_bond_order
 _atom_site_hse06_10hf_magmom
 _atom_site_hse06_bader_spin_density
 _atom_site_hse06_ddec_charge
 _atom_site_hse06_ddec_spin_density
 _atom_site_hse06_ddec_sum_bond_order
 _atom_site_hse06_magmom
 _atom_site_pbe_bader_spin_density
 _atom_site_pbe_cm5_charge
 _atom_site_pbe_ddec_charge
 _atom_site_pbe_ddec_spin_density
 _atom_site_pbe_ddec_sum_bond_order
 _atom_site_pbe_magmom
Ag  Ag0  1  0.67394910  0.68112669  0.01995547  1  0  0.712886  0  1.267337  0  0  0.602483  0  1.68994  0  0  0.636164  0  1.629999  0  0  0.457897  0.577973  0  1.732238  0
Ag  Ag1  1  0.32608135  0.31887471  0.98005571  1  0  0.712928  0  1.267236  0  0  0.602504  0  1.689869  0  0  0.636182  0  1.629929  0  0  0.457887  0.577994  0  1.732166  0
P  P2  1  0.79108839  0.11111945  0.12821952  1  0  1.447603  0  4.831006  0  0  1.286585  0  5.310862  0  0  1.336738  0  5.277937  0  0  0.344581  1.251557  0  5.332823  0
P  P3  1  0.20891913  0.88886549  0.87178440  1  0  1.447443  0  4.831297  0  0  1.286445  0  5.311106  0  0  1.336586  0  5.278182  0  0  0.344528  1.251416  0  5.333058  0
H  H4  1  0.40972823  0.97993416  0.27080262  1  0  0.103862  0  0.953803  0  0  0.11249  0  1.01939  0  0  0.115502  0  1.017613  0  0  0.108662  0.110238  0  1.020795  0
H  H5  1  0.59026295  0.02007191  0.72919323  1  0  0.103863  0  0.95381  0  0  0.112478  0  1.01942  0  0  0.115505  0  1.017612  0  0  0.108667  0.110222  0  1.020821  0
H  H6  1  0.87748685  0.67425673  0.33083040  1  0  0.106451  0  0.951229  0  0  0.117075  0  1.008901  0  0  0.119994  0  1.008488  0  0  0.106158  0.114949  0  1.009439  0
H  H7  1  0.12252307  0.32573882  0.66916917  1  0  0.106401  0  0.951213  0  0  0.117037  0  1.008877  0  0  0.119959  0  1.008465  0  0  0.106144  0.114911  0  1.00942  0
H  H8  1  0.54675152  0.49543579  0.43513608  1  0  0.10696  0  0.963164  0  0  0.111045  0  1.035296  0  0  0.11525  0  1.030674  0  0  0.106779  0.107989  0  1.038636  0
H  H9  1  0.45323656  0.50456308  0.56485891  1  0  0.106858  0  0.963155  0  0  0.110911  0  1.035348  0  0  0.115115  0  1.030728  0  0  0.10675  0.107857  0  1.038692  0
H  H10  1  0.97544096  0.50812313  0.19738617  1  0  0.102378  0  0.96314  0  0  0.112323  0  1.025988  0  0  0.115308  0  1.023936  0  0  0.104448  0.11009  0  1.027559  0
H  H11  1  0.02457159  0.49186876  0.80261045  1  0  0.102296  0  0.963221  0  0  0.112294  0  1.026026  0  0  0.115275  0  1.023978  0  0  0.104467  0.11006  0  1.027595  0
H  H12  1  0.00560108  0.88390134  0.44799943  1  0  0.394719  0  0.898217  0  0  0.362676  0  0.977531  0  0  0.375699  0  0.963948  0  0  0.304428  0.353601  0  0.986863  0
H  H13  1  0.99440708  0.11609252  0.55200338  1  0  0.394621  0  0.898162  0  0  0.362696  0  0.97731  0  0  0.375728  0  0.963721  0  0  0.304412  0.353619  0  0.986648  0
H  H14  1  0.24432291  0.94670514  0.13293363  1  0  0.448754  0  0.853482  0  0  0.41482  0  0.921678  0  0  0.42629  0  0.905297  0  0  0.307921  0.406754  0  0.933156  0
H  H15  1  0.75568017  0.05329409  0.86707014  1  0  0.448743  0  0.853481  0  0  0.414825  0  0.92165  0  0  0.426291  0  0.905275  0  0  0.307936  0.406757  0  0.93313  0
C  C16  1  0.26216814  0.12399765  0.42220318  1  0  0.662598  0  3.813551  0  0  0.605677  0  4.116801  0  0  0.639896  0  4.109355  0  0  0.238487  0.582603  0  4.121248  0
C  C17  1  0.73784154  0.87599977  0.57779880  1  0  0.662544  0  3.81395  0  0  0.605844  0  4.116953  0  0  0.640078  0  4.109498  0  0  0.23857  0.582775  0  4.121407  0
C  C18  1  0.51421406  0.13109541  0.28336530  1  0  -0.01628  0  3.694331  0  0  -0.053329  0  3.938802  0  0  -0.049004  0  3.958641  0  0  -0.067265  -0.055899  0  3.925275  0
C  C19  1  0.48578471  0.86890367  0.71663470  1  0  -0.016248  0  3.694153  0  0  -0.053244  0  3.938616  0  0  -0.048923  0  3.95846  0  0  -0.067217  -0.055813  0  3.925081  0
C  C20  1  0.77445509  0.52267461  0.31783937  1  0  -0.068922  0  3.712328  0  0  -0.077617  0  3.963293  0  0  -0.083285  0  3.984636  0  0  -0.088377  -0.074115  0  3.948895  0
C  C21  1  0.22552710  0.47734746  0.68215498  1  0  -0.068907  0  3.712115  0  0  -0.07759  0  3.963099  0  0  -0.083266  0  3.984451  0  0  -0.088367  -0.074094  0  3.948701  0
C  C22  1  0.58981920  0.42224640  0.37623139  1  0  -0.029024  0  3.671792  0  0  -0.060668  0  3.924831  0  0  -0.0561  0  3.940982  0  0  -0.07066  -0.063247  0  3.913721  0
C  C23  1  0.41016441  0.57776669  0.62376156  1  0  -0.028797  0  3.671586  0  0  -0.060379  0  3.924706  0  0  -0.055809  0  3.940859  0  0  -0.070558  -0.062972  0  3.913608  0
C  C24  1  0.70106630  0.23165646  0.22494874  1  0  -0.268412  0  3.789737  0  0  -0.221715  0  4.033294  0  0  -0.234886  0  4.056647  0  0  -0.029388  -0.213078  0  4.017719  0
C  C25  1  0.29892231  0.76835337  0.77505319  1  0  -0.268443  0  3.789518  0  0  -0.221705  0  4.033055  0  0  -0.234862  0  4.056383  0  0  -0.029443  -0.213071  0  4.017473  0
C  C26  1  0.45937544  0.22610045  0.35920710  1  0  -0.094682  0  3.771783  0  0  -0.069201  0  4.009304  0  0  -0.081043  0  4.034384  0  0  -0.019406  -0.061671  0  3.992314  0
C  C27  1  0.54062083  0.77390026  0.64078841  1  0  -0.094904  0  3.772043  0  0  -0.069616  0  4.009737  0  0  -0.081462  0  4.034816  0  0  -0.019618  -0.062089  0  3.992745  0
C  C28  1  0.83077048  0.42792880  0.24257509  1  0  -0.013991  0  3.718874  0  0  -0.042002  0  3.963637  0  0  -0.039232  0  3.984268  0  0  -0.073085  -0.043522  0  3.949568  0
C  C29  1  0.16920532  0.57209318  0.75741737  1  0  -0.013817  0  3.718723  0  0  -0.041892  0  3.963502  0  0  -0.039124  0  3.984133  0  0  -0.073055  -0.043413  0  3.949426  0
O  O30  1  0.21151433  0.20910287  0.48973815  1  0  -0.569462  0  2.010043  0  0  -0.515009  0  2.23114  0  0  -0.538491  0  2.223335  0  0  -0.281786  -0.498968  0  2.236041  0
O  O31  1  0.78852613  0.79088755  0.51026356  1  0  -0.569601  0  2.010283  0  0  -0.515164  0  2.231384  0  0  -0.538637  0  2.223559  0  0  -0.281885  -0.499133  0  2.236294  0
O  O32  1  0.14657430  0.94054904  0.40179804  1  0  -0.538904  0  2.127161  0  0  -0.484387  0  2.352526  0  0  -0.507679  0  2.340614  0  0  -0.317592  -0.468216  0  2.360033  0
O  O33  1  0.85339166  0.05946956  0.59820217  1  0  -0.538712  0  2.127195  0  0  -0.484386  0  2.352442  0  0  -0.507703  0  2.340532  0  0  -0.317556  -0.46822  0  2.359958  0
O  O34  1  0.04748412  0.90297741  0.15048677  1  0  -0.735191  0  2.005854  0  0  -0.661185  0  2.234676  0  0  -0.684179  0  2.209968  0  0  -0.379004  -0.64478  0  2.251474  0
O  O35  1  0.95253134  0.09701125  0.84952009  1  0  -0.735099  0  2.00584  0  0  -0.66117  0  2.234712  0  0  -0.684154  0  2.210002  0  0  -0.379016  -0.64477  0  2.251511  0
O  O36  1  0.53634394  0.99628017  0.09913838  1  0  -0.864523  0  2.131681  0  0  -0.755723  0  2.402781  0  0  -0.789378  0  2.382684  0  0  -0.368459  -0.731679  0  2.415866  0
O  O37  1  0.46365306  0.00369243  0.90087316  1  0  -0.864487  0  2.131848  0  0  -0.755633  0  2.402864  0  0  -0.789291  0  2.38278  0  0  -0.368441  -0.73159  0  2.415945  0
O  O38  1  0.88628891  0.30564665  0.06239919  1  0  -0.886775  0  2.171366  0  0  -0.784309  0  2.485445  0  0  -0.817541  0  2.459528  0  0  -0.38429  -0.760525  0  2.502514  0
O  O39  1  0.11371171  0.69432726  0.93759654  1  0  -0.886729  0  2.171435  0  0  -0.784283  0  2.485552  0  0  -0.817512  0  2.459625  0  0  -0.384251  -0.760502  0  2.502623  0
