# generated using pymatgen
data_HgH6C7S(NCl)2
_symmetry_space_group_name_H-M   'P 1'
_cell_length_a   7.28952339
_cell_length_b   7.71306249
_cell_length_c   9.75925597
_cell_angle_alpha   68.34554262
_cell_angle_beta   91.01104131
_cell_angle_gamma   86.67998566
_symmetry_Int_Tables_number   1
_chemical_formula_structural   HgH6C7S(NCl)2
_chemical_formula_sum   'Hg2 H12 C14 S2 N4 Cl4'
_cell_volume   508.67900081
_cell_formula_units_Z   2
loop_
 _symmetry_equiv_pos_site_id
 _symmetry_equiv_pos_as_xyz
  1  'x, y, z'
loop_
 _atom_site_type_symbol
 _atom_site_label
 _atom_site_symmetry_multiplicity
 _atom_site_fract_x
 _atom_site_fract_y
 _atom_site_fract_z
 _atom_site_occupancy
 _atom_site_hle17_bader_spin_density
 _atom_site_hle17_ddec_charge
 _atom_site_hle17_ddec_spin_density
 _atom_site_hle17_ddec_sum_bond_order
 _atom_site_hle17_magmom
 _atom_site_hse06_10hf_bader_spin_density
 _atom_site_hse06_10hf_ddec_charge
 _atom_site_hse06_10hf_ddec_spin_density
 _atom_site_hse06_10hf_ddec_sum_bond_order
 _atom_site_hse06_10hf_magmom
 _atom_site_hse06_bader_spin_density
 _atom_site_hse06_ddec_charge
 _atom_site_hse06_ddec_spin_density
 _atom_site_hse06_ddec_sum_bond_order
 _atom_site_hse06_magmom
 _atom_site_pbe_bader_spin_density
 _atom_site_pbe_cm5_charge
 _atom_site_pbe_ddec_charge
 _atom_site_pbe_ddec_spin_density
 _atom_site_pbe_ddec_sum_bond_order
 _atom_site_pbe_magmom
Hg  Hg0  1  0.24616733  0.55499386  0.43259491  1  0  0.757691  0  2.145598  0  0  0.617698  0  2.638747  0  0  0.663437  0  2.60509  0  0  0.507134  0.586361  0  2.661244  0
Hg  Hg1  1  0.75380559  0.44498942  0.56740596  1  0  0.757598  0  2.145677  0  0  0.61761  0  2.638836  0  0  0.66335  0  2.605173  0  0  0.507111  0.586282  0  2.661307  0
H  H2  1  0.15329329  0.90366530  0.47325703  1  0  0.328861  0  0.900663  0  0  0.312576  0  0.966338  0  0  0.319209  0  0.96107  0  0  0.294389  0.309102  0  0.967467  0
H  H3  1  0.84671102  0.09632386  0.52675012  1  0  0.328832  0  0.900432  0  0  0.312592  0  0.966072  0  0  0.319225  0  0.960803  0  0  0.294359  0.309117  0  0.967195  0
H  H4  1  0.11842695  0.14467004  0.37839615  1  0  0.331442  0  0.914334  0  0  0.313009  0  0.981782  0  0  0.320301  0  0.975654  0  0  0.285876  0.307799  0  0.986202  0
H  H5  1  0.88156741  0.85532325  0.62160878  1  0  0.331463  0  0.914366  0  0  0.313034  0  0.981777  0  0  0.320324  0  0.975666  0  0  0.285891  0.307819  0  0.986208  0
H  H6  1  0.27292527  0.20595580  0.76830697  1  0  0.09506  0  0.970328  0  0  0.102285  0  1.041056  0  0  0.104822  0  1.039646  0  0  0.085933  0.100252  0  1.042344  0
H  H7  1  0.72706710  0.79404730  0.23169810  1  0  0.095097  0  0.970347  0  0  0.102305  0  1.041083  0  0  0.104841  0  1.039677  0  0  0.085956  0.100271  0  1.042372  0
H  H8  1  0.36186494  0.94085719  0.69079373  1  0  0.0886  0  0.979117  0  0  0.09651  0  1.048136  0  0  0.099446  0  1.046889  0  0  0.07978  0.095541  0  1.046425  0
H  H9  1  0.63812891  0.05915838  0.30919735  1  0  0.088658  0  0.979229  0  0  0.096539  0  1.048259  0  0  0.09947  0  1.047021  0  0  0.079818  0.095566  0  1.046549  0
H  H10  1  0.37694284  0.61435564  0.87037552  1  0  0.087863  0  0.963852  0  0  0.098496  0  1.027242  0  0  0.100915  0  1.026072  0  0  0.088493  0.096628  0  1.028478  0
H  H11  1  0.62306331  0.38566287  0.12961974  1  0  0.087839  0  0.963514  0  0  0.098471  0  1.026921  0  0  0.100892  0  1.025748  0  0  0.08846  0.096604  0  1.028159  0
H  H12  1  0.31460958  0.54555606  0.13550028  1  0  0.092944  0  0.979617  0  0  0.099075  0  1.054027  0  0  0.102069  0  1.052114  0  0  0.086946  0.096879  0  1.055526  0
H  H13  1  0.68540841  0.45444702  0.86449134  1  0  0.092947  0  0.979488  0  0  0.099081  0  1.053919  0  0  0.102049  0  1.052029  0  0  0.086923  0.096879  0  1.055419  0
C  C14  1  0.25727816  0.83773080  0.09973324  1  0  0.188029  0  3.876234  0  0  0.179683  0  4.122949  0  0  0.186564  0  4.147223  0  0  0.079614  0.175087  0  4.106626  0
C  C15  1  0.74273409  0.16225541  0.90025938  1  0  0.187877  0  3.875997  0  0  0.179691  0  4.122572  0  0  0.186575  0  4.14684  0  0  0.079687  0.175088  0  4.106254  0
C  C16  1  0.24367244  0.02319806  0.99567548  1  0  -0.044389  0  3.772206  0  0  -0.025909  0  4.022905  0  0  -0.028314  0  4.046336  0  0  -0.012586  -0.024734  0  4.006939  0
C  C17  1  0.75633182  0.97679397  0.00433593  1  0  -0.044272  0  3.772306  0  0  -0.025896  0  4.023063  0  0  -0.028303  0  4.046497  0  0  -0.012612  -0.024719  0  4.0071  0
C  C18  1  0.28088125  0.06264670  0.84794033  1  0  -0.089694  0  3.755033  0  0  -0.110539  0  4.007175  0  0  -0.111025  0  4.028025  0  0  -0.101359  -0.109654  0  3.993152  0
C  C19  1  0.71911775  0.93735492  0.15205491  1  0  -0.089738  0  3.755085  0  0  -0.11054  0  4.007233  0  0  -0.111029  0  4.028093  0  0  -0.101339  -0.109651  0  3.993205  0
C  C20  1  0.32974893  0.91291573  0.80520814  1  0  -0.083485  0  3.782501  0  0  -0.104336  0  4.048885  0  0  -0.107975  0  4.071347  0  0  -0.1111  -0.102091  0  4.032317  0
C  C21  1  0.67025166  0.08710703  0.19479305  1  0  -0.083675  0  3.782118  0  0  -0.104516  0  4.04852  0  0  -0.108157  0  4.070983  0  0  -0.111218  -0.102264  0  4.031946  0
C  C22  1  0.34066255  0.72838730  0.90746022  1  0  -0.06515  0  3.815383  0  0  -0.08506  0  4.076641  0  0  -0.084684  0  4.097995  0  0  -0.104357  -0.085923  0  4.063214  0
C  C23  1  0.65934449  0.27162813  0.09251443  1  0  -0.065004  0  3.815489  0  0  -0.084922  0  4.076801  0  0  -0.084541  0  4.098146  0  0  -0.104287  -0.085785  0  4.063366  0
C  C24  1  0.30577026  0.68898610  0.05540070  1  0  -0.172706  0  3.770554  0  0  -0.191293  0  4.026348  0  0  -0.196284  0  4.046734  0  0  -0.110303  -0.188077  0  4.012986  0
C  C25  1  0.69423706  0.31101991  0.94460547  1  0  -0.172654  0  3.770646  0  0  -0.191287  0  4.026381  0  0  -0.196253  0  4.04678  0  0  -0.11031  -0.188075  0  4.01303  0
C  C26  1  0.17647121  0.99085083  0.25040830  1  0  0.441584  0  3.826385  0  0  0.400292  0  4.126032  0  0  0.424925  0  4.135997  0  0  0.245071  0.384018  0  4.119266  0
C  C27  1  0.82353098  0.00914665  0.74959226  1  0  0.441457  0  3.826347  0  0  0.400223  0  4.125944  0  0  0.424856  0  4.135907  0  0  0.245054  0.383949  0  4.11918  0
S  S28  1  0.17797574  0.17822560  0.08173612  1  0  0.08873  0  2.375863  0  0  0.096908  0  2.678164  0  0  0.093005  0  2.682656  0  0  0.11638  0.099901  0  2.674976  0
S  S29  1  0.82202403  0.82177057  0.91827202  1  0  0.088656  0  2.375652  0  0  0.096831  0  2.677984  0  0  0.092928  0  2.682473  0  0  0.116327  0.099824  0  2.674797  0
N  N30  1  0.21851935  0.82522346  0.24182973  1  0  -0.448029  0  3.273388  0  0  -0.36482  0  3.547662  0  0  -0.392929  0  3.565875  0  0  -0.342982  -0.346822  0  3.535519  0
N  N31  1  0.78148554  0.17477546  0.75817243  1  0  -0.447844  0  3.273481  0  0  -0.36471  0  3.547707  0  0  -0.392817  0  3.565918  0  0  -0.342971  -0.346711  0  3.53556  0
N  N32  1  0.13389326  0.01411323  0.37553432  1  0  -0.645657  0  3.175465  0  0  -0.606417  0  3.411231  0  0  -0.626487  0  3.409033  0  0  -0.574914  -0.593146  0  3.410624  0
N  N33  1  0.86610758  0.98586897  0.62447904  1  0  -0.645583  0  3.175425  0  0  -0.606409  0  3.411164  0  0  -0.626485  0  3.408968  0  0  -0.574864  -0.593134  0  3.410555  0
Cl  Cl34  1  0.44316049  0.27637236  0.46197821  1  0  -0.455881  0  1.055994  0  0  -0.39277  0  1.345556  0  0  -0.412323  0  1.328274  0  0  -0.250223  -0.379367  0  1.356254  0
Cl  Cl35  1  0.55683697  0.72362918  0.53801194  1  0  -0.455826  0  1.055899  0  0  -0.39274  0  1.345472  0  0  -0.412284  0  1.328181  0  0  -0.25022  -0.379337  0  1.356161  0
Cl  Cl36  1  0.07814615  0.57396592  0.65660546  1  0  -0.49581  0  1.015401  0  0  -0.435357  0  1.295314  0  0  -0.454645  0  1.276259  0  0  -0.261769  -0.421722  0  1.307437  0
Cl  Cl37  1  0.92184295  0.42602310  0.34339771  1  0  -0.495833  0  1.01541  0  0  -0.435387  0  1.295358  0  0  -0.45467  0  1.276287  0  0  -0.261787  -0.421755  0  1.307481  0
