# generated using pymatgen
data_CuH5C9N3O2
_symmetry_space_group_name_H-M   'P 1'
_cell_length_a   7.52264900
_cell_length_b   7.82228396
_cell_length_c   13.87103280
_cell_angle_alpha   89.99953387
_cell_angle_beta   90.00077255
_cell_angle_gamma   93.80746911
_symmetry_Int_Tables_number   1
_chemical_formula_structural   CuH5C9N3O2
_chemical_formula_sum   'Cu4 H20 C36 N12 O8'
_cell_volume   814.42959985
_cell_formula_units_Z   4
loop_
 _symmetry_equiv_pos_site_id
 _symmetry_equiv_pos_as_xyz
  1  'x, y, z'
loop_
 _atom_site_type_symbol
 _atom_site_label
 _atom_site_symmetry_multiplicity
 _atom_site_fract_x
 _atom_site_fract_y
 _atom_site_fract_z
 _atom_site_occupancy
 _atom_site_hle17_bader_spin_density
 _atom_site_hle17_ddec_charge
 _atom_site_hle17_ddec_spin_density
 _atom_site_hle17_ddec_sum_bond_order
 _atom_site_hle17_magmom
 _atom_site_hse06_10hf_bader_spin_density
 _atom_site_hse06_10hf_ddec_charge
 _atom_site_hse06_10hf_ddec_spin_density
 _atom_site_hse06_10hf_ddec_sum_bond_order
 _atom_site_hse06_10hf_magmom
 _atom_site_hse06_bader_spin_density
 _atom_site_hse06_ddec_charge
 _atom_site_hse06_ddec_spin_density
 _atom_site_hse06_ddec_sum_bond_order
 _atom_site_hse06_magmom
 _atom_site_pbe_bader_spin_density
 _atom_site_pbe_cm5_charge
 _atom_site_pbe_ddec_charge
 _atom_site_pbe_ddec_spin_density
 _atom_site_pbe_ddec_sum_bond_order
 _atom_site_pbe_magmom
Cu  Cu0  1  0.05878841  0.70082512  0.41812167  1  0  0.748892  0  1.953819  0  0  0.674618  0  2.375315  0  0  0.699976  0  2.331342  0  0  0.767735  0.659899  0  2.404404  0
Cu  Cu1  1  0.44121380  0.29917178  0.91812003  1  0  0.748702  0  1.953942  0  0  0.674519  0  2.375076  0  0  0.699873  0  2.331097  0  0  0.767532  0.659717  0  2.404194  0
Cu  Cu2  1  0.94120009  0.29918206  0.58188597  1  0  0.748716  0  1.954199  0  0  0.674699  0  2.375329  0  0  0.700167  0  2.331299  0  0  0.767592  0.659932  0  2.404427  0
Cu  Cu3  1  0.55879177  0.70081479  0.08188185  1  0  0.748553  0  1.954274  0  0  0.674645  0  2.375408  0  0  0.700081  0  2.331378  0  0  0.767682  0.65994  0  2.404481  0
H  H4  1  0.41476897  0.06362121  0.65921693  1  0  0.125184  0  0.944589  0  0  0.134693  0  1.003425  0  0  0.138874  0  1.001377  0  0  0.109253  0.131669  0  1.005065  0
H  H5  1  0.08521434  0.93636607  0.15920970  1  0  0.125129  0  0.944387  0  0  0.134627  0  1.003272  0  0  0.138812  0  1.001217  0  0  0.10921  0.131606  0  1.004906  0
H  H6  1  0.58523065  0.93639231  0.34078134  1  0  0.125161  0  0.944593  0  0  0.134633  0  1.003462  0  0  0.138817  0  1.00141  0  0  0.109239  0.131615  0  1.005098  0
H  H7  1  0.91478526  0.06362950  0.84079291  1  0  0.125218  0  0.944286  0  0  0.134717  0  1.003168  0  0  0.1389  0  1.001115  0  0  0.109217  0.131694  0  1.004809  0
H  H8  1  0.44738625  0.32580429  0.56142918  1  0  0.114015  0  0.938636  0  0  0.127554  0  0.98989  0  0  0.130142  0  0.988695  0  0  0.111736  0.125643  0  0.990847  0
H  H9  1  0.05258977  0.67418805  0.06142225  1  0  0.114007  0  0.938539  0  0  0.127524  0  0.989848  0  0  0.130117  0  0.988652  0  0  0.11173  0.125616  0  0.990796  0
H  H10  1  0.55262571  0.67421429  0.43857775  1  0  0.113836  0  0.938635  0  0  0.127485  0  0.989807  0  0  0.130069  0  0.988598  0  0  0.111665  0.125571  0  0.990771  0
H  H11  1  0.94739026  0.32579482  0.93859189  1  0  0.113987  0  0.938566  0  0  0.127591  0  0.989769  0  0  0.130163  0  0.988584  0  0  0.111736  0.125682  0  0.99072  0
H  H12  1  0.13819616  0.05866300  0.33727447  1  0  0.079726  0  0.940858  0  0  0.090946  0  1.001527  0  0  0.093515  0  0.998854  0  0  0.118427  0.088995  0  1.003606  0
H  H13  1  0.36178891  0.94134394  0.83727560  1  0  0.079724  0  0.940847  0  0  0.090945  0  1.001504  0  0  0.093518  0  0.998826  0  0  0.118418  0.088994  0  1.003586  0
H  H14  1  0.86179084  0.94135957  0.66272236  1  0  0.079749  0  0.940858  0  0  0.090973  0  1.001511  0  0  0.093543  0  0.998835  0  0  0.118439  0.089022  0  1.003594  0
H  H15  1  0.63820697  0.05863756  0.16273133  1  0  0.079702  0  0.940881  0  0  0.090936  0  1.001531  0  0  0.093509  0  0.998856  0  0  0.118395  0.088984  0  1.003614  0
H  H16  1  0.30204382  0.33290047  0.39731971  1  0  0.118178  0  0.970428  0  0  0.12456  0  1.035854  0  0  0.127895  0  1.035294  0  0  0.104866  0.122134  0  1.036435  0
H  H17  1  0.19793324  0.66710452  0.89731155  1  0  0.118178  0  0.970473  0  0  0.124535  0  1.035947  0  0  0.127867  0  1.035405  0  0  0.104826  0.122118  0  1.036505  0
H  H18  1  0.69795532  0.66710665  0.60268938  1  0  0.118245  0  0.970445  0  0  0.12462  0  1.035871  0  0  0.127963  0  1.035313  0  0  0.104864  0.122202  0  1.036439  0
H  H19  1  0.80205657  0.33288471  0.10270042  1  0  0.118197  0  0.97041  0  0  0.12458  0  1.035851  0  0  0.127916  0  1.03531  0  0  0.104843  0.122165  0  1.036406  0
H  H20  1  0.35505765  0.73627272  0.74546676  1  0  0.129625  0  0.970171  0  0  0.140537  0  1.02875  0  0  0.143462  0  1.028153  0  0  0.109957  0.138462  0  1.02922  0
H  H21  1  0.14493401  0.26370965  0.24546252  1  0  0.129511  0  0.970165  0  0  0.140435  0  1.02876  0  0  0.143381  0  1.028136  0  0  0.109919  0.138361  0  1.029227  0
H  H22  1  0.64494565  0.26371899  0.25452719  1  0  0.129608  0  0.97015  0  0  0.140483  0  1.028789  0  0  0.143412  0  1.028188  0  0  0.109905  0.138409  0  1.029257  0
H  H23  1  0.85506494  0.73629490  0.75454008  1  0  0.129521  0  0.97012  0  0  0.140428  0  1.028736  0  0  0.143373  0  1.028115  0  0  0.109932  0.138354  0  1.029204  0
C  C24  1  0.35470257  0.06527589  0.58772671  1  0  -0.126775  0  3.669084  0  0  -0.146019  0  3.917846  0  0  -0.152618  0  3.936829  0  0  -0.076716  -0.141913  0  3.905468  0
C  C25  1  0.14529551  0.93471858  0.08772426  1  0  -0.126653  0  3.669091  0  0  -0.145966  0  3.917883  0  0  -0.15256  0  3.936853  0  0  -0.076661  -0.141859  0  3.905502  0
C  C26  1  0.64531128  0.93473243  0.41227012  1  0  -0.126676  0  3.668919  0  0  -0.145871  0  3.917737  0  0  -0.152462  0  3.936705  0  0  -0.076556  -0.14175  0  3.905319  0
C  C27  1  0.85470599  0.06528468  0.91227906  1  0  -0.12682  0  3.668858  0  0  -0.146137  0  3.917717  0  0  -0.152732  0  3.936691  0  0  -0.076655  -0.142029  0  3.905336  0
C  C28  1  0.26111821  0.92049857  0.54981506  1  0  0.185052  0  3.786673  0  0  0.184501  0  4.026828  0  0  0.191365  0  4.04723  0  0  0.118865  0.179861  0  4.013233  0
C  C29  1  0.23888639  0.07948862  0.04981676  1  0  0.185091  0  3.786858  0  0  0.184711  0  4.026794  0  0  0.191593  0  4.047193  0  0  0.118928  0.180061  0  4.013194  0
C  C30  1  0.73889706  0.07951101  0.45018106  1  0  0.185071  0  3.786536  0  0  0.184426  0  4.026849  0  0  0.1913  0  4.047254  0  0  0.118809  0.179788  0  4.013258  0
C  C31  1  0.76111567  0.92050438  0.95018801  1  0  0.185061  0  3.786411  0  0  0.184662  0  4.026447  0  0  0.191521  0  4.046847  0  0  0.118963  0.180021  0  4.012853  0
C  C32  1  0.37124044  0.21406398  0.53243781  1  0  0.00867  0  3.697105  0  0  -0.017137  0  3.960948  0  0  -0.011149  0  3.974557  0  0  -0.064866  -0.021144  0  3.95211  0
C  C33  1  0.12874611  0.78593634  0.03243308  1  0  0.008594  0  3.69713  0  0  -0.017242  0  3.961065  0  0  -0.011251  0  3.974672  0  0  -0.064928  -0.021247  0  3.95223  0
C  C34  1  0.62876867  0.78595205  0.46756768  1  0  0.008811  0  3.697215  0  0  -0.01707  0  3.961009  0  0  -0.011061  0  3.974599  0  0  -0.064862  -0.021074  0  3.952175  0
C  C35  1  0.87124817  0.21405927  0.96757529  1  0  0.008798  0  3.697164  0  0  -0.017052  0  3.961034  0  0  -0.011044  0  3.974614  0  0  -0.064846  -0.021061  0  3.952206  0
C  C36  1  0.20274936  0.06724828  0.40761625  1  0  0.133623  0  3.709285  0  0  0.099369  0  3.975504  0  0  0.107574  0  3.990286  0  0  0.047134  0.093983  0  3.965839  0
C  C37  1  0.29724359  0.93275264  0.90761693  1  0  0.13358  0  3.709407  0  0  0.099327  0  3.975676  0  0  0.107537  0  3.990456  0  0  0.047091  0.09394  0  3.966017  0
C  C38  1  0.79724711  0.93275885  0.59238274  1  0  0.133635  0  3.709108  0  0  0.099384  0  3.975351  0  0  0.107602  0  3.99014  0  0  0.047131  0.093994  0  3.965698  0
C  C39  1  0.70276492  0.06723776  0.09239072  1  0  0.133642  0  3.709327  0  0  0.099399  0  3.97559  0  0  0.107608  0  3.990368  0  0  0.047261  0.094012  0  3.965929  0
C  C40  1  0.29373119  0.21656308  0.44097784  1  0  -0.140255  0  3.72844  0  0  -0.159532  0  3.999186  0  0  -0.166159  0  4.017516  0  0  -0.090519  -0.155478  0  3.987278  0
C  C41  1  0.20625618  0.78344132  0.94096919  1  0  -0.140226  0  3.728478  0  0  -0.159454  0  3.999185  0  0  -0.166092  0  4.017521  0  0  -0.09044  -0.155402  0  3.98729  0
C  C42  1  0.70625997  0.78344408  0.55902764  1  0  -0.140384  0  3.72854  0  0  -0.159639  0  3.999224  0  0  -0.16628  0  4.017556  0  0  -0.090489  -0.155588  0  3.987329  0
C  C43  1  0.79374190  0.21655170  0.05903414  1  0  -0.140385  0  3.728595  0  0  -0.159661  0  3.999338  0  0  -0.166297  0  4.017665  0  0  -0.090573  -0.155603  0  3.987435  0
C  C44  1  0.22881465  0.75736030  0.59945475  1  0  0.10352  0  3.782428  0  0  0.096646  0  4.039037  0  0  0.100314  0  4.059996  0  0  0.087342  0.094461  0  4.024693  0
C  C45  1  0.27118435  0.24262505  0.09945734  1  0  0.103578  0  3.782167  0  0  0.096729  0  4.038635  0  0  0.100367  0  4.059628  0  0  0.087351  0.094577  0  4.024254  0
C  C46  1  0.77118695  0.24264424  0.40054136  1  0  0.103539  0  3.782446  0  0  0.09673  0  4.039022  0  0  0.1004  0  4.059976  0  0  0.087315  0.094548  0  4.024683  0
C  C47  1  0.72881561  0.75735771  0.90055102  1  0  0.103469  0  3.781898  0  0  0.096559  0  4.038548  0  0  0.10025  0  4.059481  0  0  0.08722  0.094378  0  4.024207  0
C  C48  1  0.17541600  0.52154116  0.68708811  1  0  0.024285  0  3.7551  0  0  0.023979  0  4.011216  0  0  0.023491  0  4.029523  0  0  0.077561  0.024291  0  3.998989  0
C  C49  1  0.32458590  0.47845466  0.18708347  1  0  0.024192  0  3.755095  0  0  0.023965  0  4.011113  0  0  0.023481  0  4.029416  0  0  0.07762  0.024274  0  3.998883  0
C  C50  1  0.82458408  0.47846082  0.31291305  1  0  0.024104  0  3.755307  0  0  0.02382  0  4.011358  0  0  0.023336  0  4.029661  0  0  0.077565  0.024131  0  3.999121  0
C  C51  1  0.67542556  0.52153957  0.81290904  1  0  0.024387  0  3.755202  0  0  0.024045  0  4.011276  0  0  0.023559  0  4.029579  0  0  0.077554  0.024354  0  3.999048  0
C  C52  1  0.26853971  0.68378835  0.68896536  1  0  -0.206614  0  3.651531  0  0  -0.234639  0  3.901827  0  0  -0.239747  0  3.921339  0  0  -0.098414  -0.231117  0  3.888469  0
C  C53  1  0.23145644  0.31620107  0.18896297  1  0  -0.2065  0  3.65126  0  0  -0.234594  0  3.901517  0  0  -0.239705  0  3.921018  0  0  -0.098401  -0.231079  0  3.888145  0
C  C54  1  0.73145648  0.31621493  0.31103364  1  0  -0.206455  0  3.651657  0  0  -0.234465  0  3.901919  0  0  -0.239572  0  3.921426  0  0  -0.098333  -0.230941  0  3.888556  0
C  C55  1  0.76854845  0.68377653  0.81103891  1  0  -0.206477  0  3.651193  0  0  -0.23449  0  3.901513  0  0  -0.239622  0  3.921005  0  0  -0.098373  -0.230968  0  3.888155  0
C  C56  1  0.13730266  0.37471040  0.75378631  1  0  0.629774  0  3.922446  0  0  0.587779  0  4.21919  0  0  0.622017  0  4.211627  0  0  0.205264  0.564527  0  4.223588  0
C  C57  1  0.36268558  0.62527701  0.25379783  1  0  0.629321  0  3.922973  0  0  0.587297  0  4.219741  0  0  0.621535  0  4.212188  0  0  0.204869  0.564045  0  4.224119  0
C  C58  1  0.86268648  0.62526986  0.24619611  1  0  0.629377  0  3.922774  0  0  0.587416  0  4.219465  0  0  0.621653  0  4.211911  0  0  0.204973  0.564165  0  4.223838  0
C  C59  1  0.63730720  0.37473399  0.74620405  1  0  0.629264  0  3.923153  0  0  0.58732  0  4.219869  0  0  0.621561  0  4.212313  0  0  0.204986  0.564069  0  4.22425  0
N  N60  1  0.18649853  0.92361050  0.46024321  1  0  -0.330616  0  3.309027  0  0  -0.27873  0  3.600098  0  0  -0.293346  0  3.610721  0  0  -0.344611  -0.269656  0  3.593523  0
N  N61  1  0.31350057  0.07638463  0.96024817  1  0  -0.330416  0  3.309111  0  0  -0.278681  0  3.600138  0  0  -0.293317  0  3.610771  0  0  -0.344514  -0.269606  0  3.593557  0
N  N62  1  0.81351001  0.07639784  0.53975362  1  0  -0.330554  0  3.308759  0  0  -0.27877  0  3.599918  0  0  -0.29343  0  3.610583  0  0  -0.344681  -0.269679  0  3.593325  0
N  N63  1  0.68649702  0.92360198  0.03976164  1  0  -0.330521  0  3.30884  0  0  -0.278748  0  3.599871  0  0  -0.293354  0  3.610485  0  0  -0.344663  -0.269657  0  3.593281  0
N  N64  1  0.12211747  0.64109182  0.54945475  1  0  -0.204287  0  3.39505  0  0  -0.167984  0  3.710012  0  0  -0.176122  0  3.723152  0  0  -0.261508  -0.163177  0  3.701855  0
N  N65  1  0.37788542  0.35890820  0.04946551  1  0  -0.204523  0  3.394828  0  0  -0.168318  0  3.709803  0  0  -0.176456  0  3.72294  0  0  -0.261583  -0.163529  0  3.701639  0
N  N66  1  0.87789714  0.35892674  0.45053488  1  0  -0.204593  0  3.39484  0  0  -0.168397  0  3.709822  0  0  -0.176535  0  3.72295  0  0  -0.261526  -0.163587  0  3.701656  0
N  N67  1  0.62210734  0.64108485  0.95054430  1  0  -0.204316  0  3.394922  0  0  -0.168123  0  3.709937  0  0  -0.176248  0  3.723049  0  0  -0.261498  -0.163304  0  3.701771  0
N  N68  1  0.09150821  0.50412754  0.60085272  1  0  -0.192701  0  3.465862  0  0  -0.155066  0  3.778703  0  0  -0.162051  0  3.79212  0  0  -0.270379  -0.15101  0  3.770442  0
N  N69  1  0.40849901  0.49587825  0.10085657  1  0  -0.192484  0  3.465952  0  0  -0.154846  0  3.778757  0  0  -0.161812  0  3.79215  0  0  -0.270371  -0.150784  0  3.770508  0
N  N70  1  0.90850271  0.49589489  0.39913979  1  0  -0.192419  0  3.46577  0  0  -0.154742  0  3.778635  0  0  -0.161724  0  3.792053  0  0  -0.270383  -0.150692  0  3.770392  0
N  N71  1  0.59150771  0.50412369  0.89914099  1  0  -0.192682  0  3.465751  0  0  -0.154982  0  3.778558  0  0  -0.161972  0  3.791973  0  0  -0.270341  -0.150933  0  3.770308  0
O  O72  1  0.04328353  0.24608383  0.71656409  1  0  -0.587784  0  1.956959  0  0  -0.551413  0  2.219195  0  0  -0.580264  0  2.209027  0  0  -0.325485  -0.531476  0  2.225451  0
O  O73  1  0.45670755  0.75390017  0.21657137  1  0  -0.587703  0  1.956839  0  0  -0.551282  0  2.219057  0  0  -0.58013  0  2.208892  0  0  -0.325358  -0.531339  0  2.225299  0
O  O74  1  0.95670256  0.75389132  0.28341544  1  0  -0.58774  0  1.956731  0  0  -0.551289  0  2.218944  0  0  -0.580146  0  2.20878  0  0  -0.325362  -0.531361  0  2.225183  0
O  O75  1  0.54330146  0.24611458  0.78341825  1  0  -0.587448  0  1.957199  0  0  -0.551088  0  2.219384  0  0  -0.579942  0  2.209216  0  0  -0.325282  -0.531161  0  2.22563  0
O  O76  1  0.18963648  0.38465353  0.83987812  1  0  -0.611353  0  2.009269  0  0  -0.574655  0  2.262937  0  0  -0.597224  0  2.250481  0  0  -0.325557  -0.558936  0  2.270821  0
O  O77  1  0.31036076  0.61531998  0.33988785  1  0  -0.611052  0  2.009672  0  0  -0.574332  0  2.263343  0  0  -0.596896  0  2.250877  0  0  -0.325296  -0.558619  0  2.271221  0
O  O78  1  0.81035967  0.61531387  0.16010285  1  0  -0.611132  0  2.009647  0  0  -0.574384  0  2.263172  0  0  -0.596967  0  2.250737  0  0  -0.325398  -0.55867  0  2.27105  0
O  O79  1  0.68962719  0.38469745  0.66010177  1  0  -0.611263  0  2.009481  0  0  -0.574553  0  2.263015  0  0  -0.597124  0  2.250535  0  0  -0.325491  -0.558829  0  2.270893  0
