# generated using pymatgen
data_K2CuH8C10O11
_symmetry_space_group_name_H-M   'P 1'
_cell_length_a   7.77076554
_cell_length_b   10.66043579
_cell_length_c   10.64425838
_cell_angle_alpha   113.58166022
_cell_angle_beta   89.80006146
_cell_angle_gamma   106.36681605
_symmetry_Int_Tables_number   1
_chemical_formula_structural   K2CuH8C10O11
_chemical_formula_sum   'K4 Cu2 H16 C20 O22'
_cell_volume   769.37793574
_cell_formula_units_Z   2
loop_
 _symmetry_equiv_pos_site_id
 _symmetry_equiv_pos_as_xyz
  1  'x, y, z'
loop_
 _atom_site_type_symbol
 _atom_site_label
 _atom_site_symmetry_multiplicity
 _atom_site_fract_x
 _atom_site_fract_y
 _atom_site_fract_z
 _atom_site_occupancy
 _atom_site_pbe_cm5_charge
 _atom_site_pbe_ddec_charge
 _atom_site_pbe_ddec_spin_density
 _atom_site_pbe_ddec_sum_bond_order
 _atom_site_pbe_magmom
K  K0  1  0.83285463  0.19393579  0.48274575  1  0.704375  0.891159  0.000201  0.589674  0.0
K  K1  1  0.16717409  0.80604772  0.51724503  1  0.704455  0.891195  -0.0002  0.58976  0.0
K  K2  1  0.81458365  0.52786738  0.14566904  1  0.730796  0.889158  7.5e-05  0.605084  0.0
K  K3  1  0.18538135  0.47211396  0.85430199  1  0.730713  0.889156  -7.4e-05  0.604983  0.0
Cu  Cu4  1  0.50292859  0.23306672  0.76199823  1  0.726277  0.908921  -0.749241  2.104579  -0.573
Cu  Cu5  1  0.49707038  0.76693771  0.23800075  1  0.726243  0.908912  0.749232  2.104523  0.573
H  H6  1  0.43751679  0.06651184  0.07329395  1  0.110657  0.112877  5e-06  1.006878  0.0
H  H7  1  0.56248035  0.93349473  0.92671057  1  0.110655  0.112859  -5e-06  1.006774  0.0
H  H8  1  0.26521712  0.43660084  0.46745902  1  0.122511  0.122099  -5e-06  1.002326  0.0
H  H9  1  0.73478516  0.56340585  0.53255308  1  0.122505  0.122043  5e-06  1.00234  0.0
H  H10  1  0.98834057  0.42536094  0.32084701  1  0.283829  0.370069  -5e-06  0.976511  0.0
H  H11  1  0.01164254  0.57462835  0.67915726  1  0.283828  0.37001  5e-06  0.976611  0.0
H  H12  1  0.85618472  0.28502463  0.21445437  1  0.30222  0.38616  -5e-06  0.924755  0.0
H  H13  1  0.14379013  0.71496664  0.78554502  1  0.302281  0.386177  5e-06  0.924732  0.0
H  H14  1  0.86265214  0.91590003  0.21762337  1  0.284207  0.371616  -0.000123  0.968777  0.0
H  H15  1  0.13736068  0.08407145  0.78235700  1  0.284215  0.371619  0.000123  0.968741  0.0
H  H16  1  0.05541777  0.96610752  0.29312668  1  0.280716  0.371437  5e-06  0.975343  0.0
H  H17  1  0.94459362  0.03386715  0.70685589  1  0.280798  0.371522  -5e-06  0.975233  0.0
H  H18  1  0.04742843  0.27531957  0.98842679  1  0.281942  0.37942  -1.6e-05  0.965632  0.0
H  H19  1  0.95256410  0.72470612  0.01157963  1  0.281919  0.379302  1.6e-05  0.965786  0.0
H  H20  1  0.85116366  0.22893104  0.91611957  1  0.294496  0.384796  6.3e-05  0.943634  0.0
H  H21  1  0.14883401  0.77109783  0.08387026  1  0.294529  0.384951  -6.3e-05  0.943437  0.0
C  C22  1  0.33205844  0.23859560  0.39576009  1  0.002749  -0.031622  -0.005399  3.917667  -0.006
C  C23  1  0.66795973  0.76141246  0.60426008  1  0.002842  -0.031768  0.005401  3.917244  0.006
C  C24  1  0.38042238  0.13360095  0.28434397  1  0.005389  -0.021491  0.004565  3.927551  0.005
C  C25  1  0.61959307  0.86642402  0.71565938  1  0.005465  -0.021115  -0.004567  3.927077  -0.005
C  C26  1  0.40200023  0.14853001  0.16042511  1  -0.070535  -0.109361  0.000102  3.920164  0.0
C  C27  1  0.59801044  0.85148524  0.83956970  1  -0.070508  -0.109279  -0.000103  3.919725  0.0
C  C28  1  0.37350496  0.26555174  0.14537946  1  -0.000462  -0.032182  -0.004289  3.947176  -0.005
C  C29  1  0.62649093  0.73445476  0.85461657  1  -0.000591  -0.032527  0.004287  3.947105  0.005
C  C30  1  0.32191659  0.36954215  0.25578159  1  -0.002339  -0.046821  0.004771  3.939387  0.005
C  C31  1  0.67807680  0.63045044  0.74421366  1  -0.002403  -0.047015  -0.004775  3.939331  -0.005
C  C32  1  0.30109985  0.35467704  0.38002172  1  -0.062669  -0.112924  -0.000256  3.934154  0.0
C  C33  1  0.69890088  0.64532534  0.61998680  1  -0.062736  -0.112729  0.000256  3.934378  0.0
C  C34  1  0.32261444  0.23443254  0.53494118  1  0.217596  0.60452  -0.001357  4.194664  0.001
C  C35  1  0.67740782  0.76556157  0.46505470  1  0.217458  0.604558  0.001357  4.194589  -0.001
C  C36  1  0.39173509  0.99641117  0.28697739  1  0.215026  0.58613  -0.000556  4.204757  -0.003
C  C37  1  0.60829363  0.00360445  0.71303168  1  0.214933  0.586055  0.000553  4.20558  0.003
C  C38  1  0.38927368  0.26964503  0.00696127  1  0.215185  0.594782  0.000456  4.194448  0.003
C  C39  1  0.61071583  0.73035820  0.99304099  1  0.215052  0.594428  -0.000459  4.193888  -0.003
C  C40  1  0.30559277  0.50356273  0.24868733  1  0.22093  0.600856  0.00237  4.188622  0.0
C  C41  1  0.69437541  0.49643174  0.75132929  1  0.221077  0.601103  -0.002368  4.188645  0.0
O  O42  1  0.20721133  0.27735187  0.60829368  1  -0.42627  -0.634422  -0.001081  2.191669  -0.002
O  O43  1  0.79280346  0.72262190  0.39170826  1  -0.426079  -0.634321  0.001081  2.19147  0.002
O  O44  1  0.44694157  0.18948429  0.56814173  1  -0.339677  -0.588194  -0.060429  2.364475  -0.083
O  O45  1  0.55309518  0.81051432  0.43185689  1  -0.339734  -0.588388  0.060413  2.364964  0.083
O  O46  1  0.24723752  0.90427443  0.28746548  1  -0.320534  -0.595959  0.000174  2.208416  0.001
O  O47  1  0.75276836  0.09572808  0.71254967  1  -0.320506  -0.595937  -0.000176  2.208856  -0.001
O  O48  1  0.54626789  0.97486162  0.27779179  1  -0.349652  -0.546732  0.062823  2.319307  0.086
O  O49  1  0.45378639  0.02515325  0.72220575  1  -0.349543  -0.546671  -0.062818  2.31979  -0.086
O  O50  1  0.54214740  0.27055006  0.96096103  1  -0.350935  -0.557656  -0.05812  2.343287  -0.08
O  O51  1  0.45781325  0.72947306  0.03905184  1  -0.350901  -0.557553  0.058146  2.342781  0.08
O  O52  1  0.25283238  0.26413355  0.93799253  1  -0.341499  -0.599631  0.000156  2.287075  -0.001
O  O53  1  0.74716376  0.73584209  0.06201201  1  -0.341366  -0.599302  -0.000158  2.286671  0.001
O  O54  1  0.43041299  0.55948822  0.18928768  1  -0.339295  -0.590701  0.053902  2.382234  0.074
O  O55  1  0.56954948  0.44051135  0.81070746  1  -0.339324  -0.590722  -0.053894  2.382643  -0.074
O  O56  1  0.18221121  0.55471641  0.30259097  1  -0.37047  -0.616252  0.002087  2.213875  0.003
O  O57  1  0.81776638  0.44529002  0.69744072  1  -0.370455  -0.61627  -0.002088  2.21376  -0.003
O  O58  1  0.86855908  0.35459002  0.31032320  1  -0.647245  -0.813257  0.000105  1.885319  0.0
O  O59  1  0.13142558  0.64539288  0.68967761  1  -0.647338  -0.813238  -0.000104  1.885437  0.0
O  O60  1  0.95000989  0.99953595  0.28929604  1  -0.696203  -0.831394  4.2e-05  1.946527  0.0
O  O61  1  0.05000179  0.00043226  0.71067741  1  -0.696308  -0.831516  -4.2e-05  1.946491  0.0
O  O62  1  0.93130937  0.29815912  0.00094427  1  -0.681192  -0.84544  -0.000118  1.954439  0.0
O  O63  1  0.06868341  0.70188462  0.99904859  1  -0.6811  -0.845501  0.000118  1.954379  0.0
