# generated using pymatgen
data_CdH16C24(NO2)2
_symmetry_space_group_name_H-M   'P 1'
_cell_length_a   9.59168055
_cell_length_b   14.76949157
_cell_length_c   17.99723419
_cell_angle_alpha   90.00004187
_cell_angle_beta   90.00015390
_cell_angle_gamma   95.39837838
_symmetry_Int_Tables_number   1
_chemical_formula_structural   CdH16C24(NO2)2
_chemical_formula_sum   'Cd4 H64 C96 N8 O16'
_cell_volume   2538.25632568
_cell_formula_units_Z   4
loop_
 _symmetry_equiv_pos_site_id
 _symmetry_equiv_pos_as_xyz
  1  'x, y, z'
loop_
 _atom_site_type_symbol
 _atom_site_label
 _atom_site_symmetry_multiplicity
 _atom_site_fract_x
 _atom_site_fract_y
 _atom_site_fract_z
 _atom_site_occupancy
 _atom_site_pbe_bader_charge
 _atom_site_pbe_bader_spin_density
 _atom_site_pbe_cm5_charge
 _atom_site_pbe_ddec_charge
 _atom_site_pbe_ddec_spin_density
 _atom_site_pbe_ddec_sum_bond_order
 _atom_site_pbe_magmom
Cd  Cd0  1  0.13228344  0.48433357  0.41829618  1  1.282029  0  0.776075  0.87803  0  2.225291  0
Cd  Cd1  1  0.86772089  0.01566888  0.91829840  1  1.281994  0  0.776077  0.878011  0  2.225297  0
Cd  Cd2  1  0.86771937  0.51566829  0.58170238  1  1.281992  0  0.776083  0.878026  0  2.225306  0
Cd  Cd3  1  0.13228504  0.98433299  0.08170295  1  1.282037  0  0.776092  0.878063  0  2.225276  0
H  H4  1  0.06625725  0.72679423  0.62956367  1  0.14861  0  0.104716  0.12129  0  1.038146  0
H  H5  1  0.93374363  0.77320233  0.12956248  1  0.148855  0  0.104714  0.121291  0  1.038127  0
H  H6  1  0.93374291  0.27320354  0.37043600  1  0.148825  0  0.104724  0.12134  0  1.038087  0
H  H7  1  0.06625881  0.22679680  0.87043553  1  0.148847  0  0.10472  0.121298  0  1.038168  0
H  H8  1  0.43035512  0.90876023  0.68704837  1  0.068071  0  0.101979  0.100767  0  1.014957  0
H  H9  1  0.56964331  0.59123911  0.18704488  1  0.067976  0  0.101962  0.100762  0  1.014921  0
H  H10  1  0.56964106  0.09123888  0.31295408  1  0.067954  0  0.101962  0.100755  0  1.014956  0
H  H11  1  0.43035751  0.40876342  0.81295424  1  0.067935  0  0.101929  0.10072  0  1.014924  0
H  H12  1  0.56507840  0.84186959  0.58703919  1  0.051899  0  0.10323  0.10146  0  0.989724  0
H  H13  1  0.43492300  0.65813237  0.08703666  1  0.0519  0  0.103231  0.101486  0  0.989713  0
H  H14  1  0.43492137  0.15813294  0.41296270  1  0.051931  0  0.103223  0.101493  0  0.989667  0
H  H15  1  0.56507971  0.34186881  0.91296246  1  0.051914  0  0.103225  0.101468  0  0.989695  0
H  H16  1  0.44789171  0.71944858  0.50595272  1  0.103586  0  0.099055  0.101226  0  1.044994  0
H  H17  1  0.55210954  0.78055532  0.00595210  1  0.103669  0  0.099124  0.101283  0  1.044954  0
H  H18  1  0.55211241  0.28055533  0.49404806  1  0.103474  0  0.099119  0.101293  0  1.044916  0
H  H19  1  0.44789136  0.21944789  0.99404757  1  0.103557  0  0.099115  0.101321  0  1.044971  0
H  H20  1  0.91213595  0.81912240  0.85870396  1  0.109716  0  0.119608  0.093176  0  0.995425  0
H  H21  1  0.08786392  0.68088123  0.35870261  1  0.109677  0  0.119603  0.093161  0  0.995412  0
H  H22  1  0.08786269  0.18087944  0.14129572  1  0.109692  0  0.11959  0.093155  0  0.995436  0
H  H23  1  0.91213812  0.31912266  0.64129651  1  0.109728  0  0.119592  0.093146  0  0.995487  0
H  H24  1  0.03666010  0.74113470  0.75884407  1  0.112932  0  0.111957  0.125134  0  1.000299  0
H  H25  1  0.96333462  0.75886540  0.25884291  1  0.112948  0  0.111945  0.125089  0  1.000366  0
H  H26  1  0.96333427  0.25886645  0.24115449  1  0.11295  0  0.111951  0.125126  0  1.000327  0
H  H27  1  0.03666392  0.24113576  0.74115620  1  0.112969  0  0.111972  0.125141  0  1.000344  0
H  H28  1  0.25313962  0.00248002  0.70480570  1  0.085211  0  0.10469  0.108  0  1.036534  0
H  H29  1  0.74686183  0.49751672  0.20480827  1  0.085254  0  0.104665  0.107961  0  1.036652  0
H  H30  1  0.74686368  0.99751776  0.29519175  1  0.085271  0  0.104668  0.107969  0  1.03667  0
H  H31  1  0.25313948  0.50248173  0.79519585  1  0.085196  0  0.104666  0.107984  0  1.036635  0
H  H32  1  0.11830962  0.06968359  0.80657904  1  0.075115  0  0.11725  0.089255  0  1.001432  0
H  H33  1  0.88169612  0.43031805  0.30658065  1  0.075132  0  0.117247  0.089279  0  1.001422  0
H  H34  1  0.88169926  0.93031694  0.19342063  1  0.075124  0  0.117234  0.089252  0  1.001385  0
H  H35  1  0.11830782  0.56968449  0.69342347  1  0.075096  0  0.117256  0.089288  0  1.001399  0
H  H36  1  0.52787740  0.44454596  0.25585260  1  0.089713  0  0.097735  0.094442  0  1.041463  0
H  H37  1  0.47211860  0.05545490  0.75585205  1  0.089715  0  0.097701  0.094437  0  1.041485  0
H  H38  1  0.47211859  0.55545179  0.74414818  1  0.089669  0  0.097721  0.094418  0  1.041451  0
H  H39  1  0.52788099  0.94454627  0.24414873  1  0.089719  0  0.097716  0.094442  0  1.041489  0
H  H40  1  0.67409066  0.35859637  0.17167086  1  0.021245  0  0.094483  0.086758  0  1.038032  0
H  H41  1  0.32590500  0.14140507  0.67167182  1  0.0212  0  0.09448  0.086805  0  1.038054  0
H  H42  1  0.32590874  0.64140344  0.82832993  1  0.021215  0  0.094506  0.086796  0  1.03799  0
H  H43  1  0.67409051  0.85859676  0.32833286  1  0.021219  0  0.094489  0.08678  0  1.037981  0
H  H44  1  0.36074948  0.12904984  0.18129649  1  0.106746  0  0.10548  0.119053  0  1.036567  0
H  H45  1  0.63925116  0.37094960  0.68129692  1  0.106769  0  0.105494  0.119077  0  1.036545  0
H  H46  1  0.63925201  0.87094998  0.81870319  1  0.106788  0  0.10548  0.119046  0  1.036524  0
H  H47  1  0.36075118  0.62904886  0.31870053  1  0.106397  0  0.1055  0.119096  0  1.036524  0
H  H48  1  0.22229111  0.21473833  0.26822366  1  0.098087  0  0.099614  0.100029  0  1.03218  0
H  H49  1  0.77770668  0.28525983  0.76822257  1  0.098138  0  0.099614  0.100073  0  1.032145  0
H  H50  1  0.77770584  0.78525875  0.73177601  1  0.098052  0  0.099607  0.100063  0  1.03218  0
H  H51  1  0.22229263  0.71473929  0.23177543  1  0.098009  0  0.099605  0.100028  0  1.032177  0
H  H52  1  0.86249857  0.21669506  0.98113200  1  0.126019  0  0.117879  0.094276  0  0.989465  0
H  H53  1  0.13749557  0.28330674  0.48112856  1  0.125916  0  0.117865  0.094254  0  0.989448  0
H  H54  1  0.13750482  0.78330340  0.01887268  1  0.125975  0  0.117873  0.09428  0  0.989451  0
H  H55  1  0.86249417  0.71669099  0.51887112  1  0.126053  0  0.117834  0.094197  0  0.989394  0
H  H56  1  0.73710952  0.30659393  0.07172720  1  0.032222  0  0.106204  0.11176  0  1.004786  0
H  H57  1  0.26288466  0.19340806  0.57172476  1  0.032114  0  0.106238  0.111815  0  1.004778  0
H  H58  1  0.26289064  0.69340384  0.92827637  1  0.032528  0  0.106191  0.111742  0  1.004805  0
H  H59  1  0.73711456  0.80659038  0.42827269  1  0.03215  0  0.106226  0.11178  0  1.004795  0
H  H60  1  0.50077374  0.05404650  0.13699476  1  0.122642  0  0.108424  0.129843  0  1.055452  0
H  H61  1  0.49922327  0.44595082  0.63699226  1  0.122543  0  0.108402  0.129771  0  1.055531  0
H  H62  1  0.49922207  0.94594989  0.86300603  1  0.122529  0  0.108409  0.12979  0  1.055532  0
H  H63  1  0.50077027  0.55404420  0.36300519  1  0.122606  0  0.108413  0.129855  0  1.055419  0
H  H64  1  0.63207907  0.97755344  0.04211222  1  0.106936  0  0.115969  0.088272  0  1.011436  0
H  H65  1  0.36792182  0.52244642  0.54211039  1  0.106919  0  0.115969  0.08825  0  1.011465  0
H  H66  1  0.36792014  0.02244501  0.95788857  1  0.106967  0  0.115979  0.088296  0  1.011422  0
H  H67  1  0.63207200  0.47755064  0.45788818  1  0.106863  0  0.115944  0.088278  0  1.011433  0
C  C68  1  0.18539253  0.64146238  0.51457606  1  1.551341  0  0.198377  0.564239  0  4.238576  0
C  C69  1  0.81461144  0.85853814  0.01457530  1  1.551342  0  0.198274  0.564149  0  4.238747  0
C  C70  1  0.81461019  0.35853880  0.48542306  1  1.551364  0  0.198284  0.564118  0  4.238815  0
C  C71  1  0.18539431  0.14146237  0.98542493  1  1.551369  0  0.198328  0.564099  0  4.238682  0
C  C72  1  0.25111262  0.71636292  0.56313859  1  -0.086514  0  -0.022138  -0.032281  0  3.989264  0
C  C73  1  0.74888924  0.78363561  0.06313714  1  -0.086503  0  -0.022116  -0.032353  0  3.989344  0
C  C74  1  0.74889077  0.28363554  0.43686164  1  -0.086487  0  -0.022126  -0.032306  0  3.98928  0
C  C75  1  0.25111225  0.21636420  0.93686142  1  -0.086496  0  -0.022129  -0.032277  0  3.989244  0
C  C76  1  0.17540764  0.75276066  0.62061849  1  -0.045522  0  -0.083099  -0.147739  0  3.912231  0
C  C77  1  0.82459243  0.74723794  0.12061768  1  -0.045759  0  -0.083078  -0.147679  0  3.912138  0
C  C78  1  0.82459253  0.24723711  0.37938174  1  -0.045733  0  -0.083123  -0.147817  0  3.912138  0
C  C79  1  0.17540905  0.25276188  0.87938255  1  -0.045737  0  -0.083098  -0.147772  0  3.912186  0
C  C80  1  0.23837123  0.82378939  0.66465366  1  -0.056969  0  -0.01235  0.050575  0  4.006447  0
C  C81  1  0.76162707  0.67620993  0.16465216  1  -0.057766  0  -0.012407  0.050547  0  4.00637  0
C  C82  1  0.76162694  0.17620905  0.33534657  1  -0.057814  0  -0.012399  0.050589  0  4.006362  0
C  C83  1  0.23837251  0.32379124  0.83534751  1  -0.057754  0  -0.012376  0.050678  0  4.00628  0
C  C84  1  0.37907592  0.85573287  0.65163343  1  -0.053537  0  -0.082716  -0.114512  0  3.961873  0
C  C85  1  0.62092146  0.64426779  0.15163172  1  -0.052884  0  -0.082701  -0.114482  0  3.961865  0
C  C86  1  0.62092044  0.14426760  0.34836846  1  -0.052989  0  -0.082668  -0.114476  0  3.961978  0
C  C87  1  0.37907926  0.35573406  0.84836851  1  -0.052993  0  -0.082632  -0.114429  0  3.96177  0
C  C88  1  0.45522553  0.81791430  0.59555153  1  -0.023038  0  -0.089735  -0.076969  0  4.030446  0
C  C89  1  0.54477478  0.68208698  0.09554917  1  -0.023112  0  -0.089779  -0.077148  0  4.030461  0
C  C90  1  0.54477396  0.18208618  0.40444926  1  -0.02309  0  -0.089736  -0.07707  0  4.030491  0
C  C91  1  0.45522594  0.31791487  0.90444940  1  -0.023099  0  -0.089766  -0.077095  0  4.03053  0
C  C92  1  0.39114650  0.74918868  0.55077958  1  0.02142  0  -0.082231  -0.08525  0  3.951443  0
C  C93  1  0.60885480  0.75081391  0.05077791  1  0.021246  0  -0.082257  -0.08516  0  3.95136  0
C  C94  1  0.60885413  0.25081249  0.44922176  1  0.021509  0  -0.082285  -0.085242  0  3.951315  0
C  C95  1  0.39114905  0.24918795  0.94922121  1  0.021404  0  -0.082284  -0.085281  0  3.951368  0
C  C96  1  0.98961544  0.85690663  0.82333914  1  0.519186  0  0.050364  0.099046  0  3.949746  0
C  C97  1  0.01038511  0.64309561  0.32333877  1  0.518781  0  0.05036  0.099051  0  3.949557  0
C  C98  1  0.01038415  0.14309454  0.17665942  1  0.519167  0  0.050501  0.099188  0  3.949633  0
C  C99  1  0.98961580  0.35690761  0.67666146  1  0.519062  0  0.050421  0.099057  0  3.949723  0
C  C100  1  0.05989588  0.81398166  0.76786383  1  -0.011297  0  -0.079298  -0.171115  0  3.926008  0
C  C101  1  0.94010211  0.68601914  0.26786315  1  -0.010904  0  -0.07924  -0.171002  0  3.92595  0
C  C102  1  0.94010049  0.18601882  0.23213529  1  -0.011305  0  -0.079293  -0.171124  0  3.926031  0
C  C103  1  0.05989843  0.31398135  0.73213763  1  -0.011156  0  -0.079313  -0.171087  0  3.925958  0
C  C104  1  0.15885753  0.86529067  0.72376436  1  -0.063682  0  0.016653  0.121954  0  3.97658  0
C  C105  1  0.84113986  0.63470735  0.22376407  1  -0.063238  0  0.016668  0.121984  0  3.976614  0
C  C106  1  0.84113960  0.13470777  0.27623420  1  -0.06321  0  0.016624  0.121954  0  3.976656  0
C  C107  1  0.15885850  0.36529245  0.77623672  1  -0.063302  0  0.016638  0.121926  0  3.976664  0
C  C108  1  0.17985397  0.95908053  0.73833776  1  -0.028685  0  -0.086835  -0.186293  0  3.95627  0
C  C109  1  0.82014454  0.54091752  0.23833848  1  -0.028773  0  -0.086804  -0.186243  0  3.956463  0
C  C110  1  0.82014420  0.04091791  0.26166192  1  -0.028787  0  -0.086802  -0.186242  0  3.956407  0
C  C111  1  0.17985591  0.45908230  0.76166452  1  -0.028778  0  -0.086779  -0.186293  0  3.956342  0
C  C112  1  0.10472851  0.99700925  0.79435354  1  0.509429  0  0.04643  0.098256  0  3.964237  0
C  C113  1  0.89527388  0.50299228  0.29435436  1  0.509454  0  0.046396  0.09817  0  3.964318  0
C  C114  1  0.89527525  0.00299193  0.20564613  1  0.509476  0  0.046397  0.098207  0  3.964177  0
C  C115  1  0.10472797  0.49701026  0.70564810  1  0.509895  0  0.046386  0.098156  0  3.964256  0
C  C116  1  0.27370004  0.38840837  0.31377241  1  1.576013  0  0.185896  0.552427  0  4.245563  0
C  C117  1  0.72630034  0.11159190  0.81377282  1  1.576041  0  0.185917  0.552481  0  4.245497  0
C  C118  1  0.72629822  0.61159075  0.68622670  1  1.576022  0  0.185831  0.552438  0  4.245618  0
C  C119  1  0.27370247  0.88840996  0.18622797  1  1.576032  0  0.185828  0.552429  0  4.245626  0
C  C120  1  0.36392675  0.33579213  0.26504831  1  -0.005767  0  -0.016218  -0.016233  0  3.96253  0
C  C121  1  0.63606798  0.16420670  0.76504862  1  -0.005457  0  -0.016217  -0.016251  0  3.962587  0
C  C122  1  0.63606811  0.66420494  0.73495081  1  -0.005514  0  -0.016156  -0.016114  0  3.9624  0
C  C123  1  0.36392943  0.83579378  0.23495161  1  -0.00548  0  -0.016185  -0.016146  0  3.962469  0
C  C124  1  0.49275166  0.37549289  0.23843210  1  -0.031205  0  -0.088809  -0.096378  0  3.995025  0
C  C125  1  0.50724416  0.12450727  0.73843220  1  -0.031227  0  -0.08881  -0.096418  0  3.994969  0
C  C126  1  0.50724339  0.62450554  0.76156868  1  -0.031193  0  -0.088798  -0.096424  0  3.995077  0
C  C127  1  0.49275619  0.87549186  0.26156859  1  -0.031211  0  -0.0888  -0.096436  0  3.994983  0
C  C128  1  0.57320682  0.32726225  0.19113377  1  -0.020222  0  -0.093406  -0.133878  0  3.994615  0
C  C129  1  0.42678885  0.17273854  0.69113433  1  -0.020251  0  -0.093375  -0.133917  0  3.994615  0
C  C130  1  0.42679041  0.67273687  0.80886535  1  -0.02022  0  -0.093416  -0.13385  0  3.9947  0
C  C131  1  0.57320951  0.82726127  0.30886645  1  -0.020309  0  -0.093381  -0.133864  0  3.994489  0
C  C132  1  0.52689849  0.23831617  0.16836299  1  -0.091442  0  -0.0058  0.064135  0  3.975301  0
C  C133  1  0.47309792  0.26168323  0.66836145  1  -0.091353  0  -0.005802  0.064187  0  3.975429  0
C  C134  1  0.47310073  0.76168228  0.83163780  1  -0.091464  0  -0.005808  0.064125  0  3.975366  0
C  C135  1  0.52690121  0.73831453  0.33163600  1  -0.091432  0  -0.005786  0.064181  0  3.97533  0
C  C136  1  0.39960575  0.19788068  0.19733733  1  0.033438  0  -0.081519  -0.111595  0  3.932247  0
C  C137  1  0.60039384  0.30211808  0.69733712  1  0.033087  0  -0.081536  -0.111659  0  3.932321  0
C  C138  1  0.60039546  0.80211709  0.80266289  1  0.033105  0  -0.081498  -0.111573  0  3.932299  0
C  C139  1  0.39960755  0.69788105  0.30266200  1  0.033755  0  -0.081535  -0.111649  0  3.932261  0
C  C140  1  0.32041326  0.24591181  0.24540079  1  -0.106542  0  -0.086103  -0.095219  0  3.983467  0
C  C141  1  0.67958554  0.25408701  0.74540065  1  -0.106466  0  -0.086118  -0.09526  0  3.98356  0
C  C142  1  0.67958482  0.75408595  0.75459888  1  -0.106342  0  -0.086156  -0.095341  0  3.983536  0
C  C143  1  0.32041490  0.74591280  0.25459791  1  -0.106668  0  -0.086137  -0.095285  0  3.983509  0
C  C144  1  0.78180977  0.18391696  0.01740329  1  0.501531  0  0.043838  0.094111  0  3.970407  0
C  C145  1  0.21818508  0.31608430  0.51739920  1  0.501691  0  0.043965  0.094297  0  3.970127  0
C  C146  1  0.21819153  0.81608150  0.98259972  1  0.501649  0  0.04389  0.094182  0  3.970427  0
C  C147  1  0.78180665  0.68391276  0.48259881  1  0.50155  0  0.043972  0.094406  0  3.970236  0
C  C148  1  0.71178179  0.23321179  0.06881560  1  -0.020838  0  -0.087943  -0.189477  0  3.965607  0
C  C149  1  0.28821722  0.26678750  0.56881380  1  -0.020122  0  -0.088133  -0.189738  0  3.96554  0
C  C150  1  0.28821742  0.76678665  0.93118630  1  -0.021352  0  -0.088017  -0.189551  0  3.965842  0
C  C151  1  0.71178380  0.73320892  0.43118421  1  -0.019824  0  -0.087957  -0.189537  0  3.965601  0
C  C152  1  0.60765964  0.18874977  0.11461977  1  -0.02193  0  0.015462  0.112466  0  3.973169  0
C  C153  1  0.39233544  0.31124956  0.61461593  1  -0.02267  0  0.015543  0.112567  0  3.973265  0
C  C154  1  0.39233731  0.81124731  0.88538157  1  -0.021446  0  0.015473  0.112443  0  3.973176  0
C  C155  1  0.60766046  0.68874751  0.38537930  1  -0.022735  0  0.015454  0.11245  0  3.973238  0
C  C156  1  0.58048537  0.09431723  0.10481488  1  0.019307  0  -0.081342  -0.168641  0  3.911948  0
C  C157  1  0.41951383  0.40568211  0.60481280  1  0.019449  0  -0.081375  -0.16866  0  3.911916  0
C  C158  1  0.41951271  0.90568053  0.89518535  1  0.019043  0  -0.08128  -0.1685  0  3.91195  0
C  C159  1  0.58048530  0.59431566  0.39518465  1  0.019364  0  -0.081393  -0.168717  0  3.912026  0
C  C160  1  0.65401727  0.05038711  0.05159897  1  0.448037  0  0.043837  0.094442  0  3.954105  0
C  C161  1  0.34598184  0.44961352  0.55159681  1  0.448101  0  0.043927  0.094617  0  3.953849  0
C  C162  1  0.34598299  0.94961134  0.94840126  1  0.448011  0  0.043849  0.09443  0  3.954077  0
C  C163  1  0.65401311  0.55038423  0.44840120  1  0.447917  0  0.043872  0.094477  0  3.954124  0
N  N164  1  0.01086284  0.94683067  0.83654217  1  -1.260369  0  -0.330185  -0.236475  0  3.512755  0
N  N165  1  0.98913863  0.55317022  0.33654203  1  -1.26038  0  -0.330198  -0.2365  0  3.512767  0
N  N166  1  0.98913978  0.05316983  0.16345806  1  -1.260395  0  -0.330246  -0.236568  0  3.512798  0
N  N167  1  0.01086418  0.44683164  0.66345986  1  -1.260776  0  -0.330227  -0.236443  0  3.512813  0
N  N168  1  0.75368091  0.09362202  0.00849243  1  -1.26585  0  -0.332295  -0.236747  0  3.51551  0
N  N169  1  0.24631598  0.40637923  0.50849065  1  -1.265946  0  -0.332337  -0.236844  0  3.515446  0
N  N170  1  0.24631935  0.90637643  0.99150947  1  -1.265843  0  -0.332328  -0.236808  0  3.51541  0
N  N171  1  0.75367671  0.59361715  0.49150846  1  -1.265798  0  -0.332342  -0.236908  0  3.515574  0
O  O172  1  0.25260828  0.62154531  0.45648162  1  -1.157563  0  -0.326182  -0.551613  0  2.246689  0
O  O173  1  0.74740103  0.87845508  0.95648055  1  -1.157462  0  -0.326119  -0.551517  0  2.246821  0
O  O174  1  0.74740070  0.37845590  0.54351805  1  -1.157466  0  -0.326137  -0.551532  0  2.246851  0
O  O175  1  0.25261098  0.12154546  0.04351857  1  -1.157616  0  -0.326172  -0.551548  0  2.246712  0
O  O176  1  0.31934550  0.46972617  0.33149520  1  -1.181116  0  -0.335618  -0.566451  0  2.226349  0
O  O177  1  0.68065384  0.03027343  0.83149604  1  -1.181109  0  -0.335614  -0.566455  0  2.226271  0
O  O178  1  0.68065268  0.53027227  0.66850448  1  -1.181169  0  -0.335594  -0.566459  0  2.226362  0
O  O179  1  0.31934783  0.96972774  0.16850530  1  -1.181192  0  -0.335586  -0.56644  0  2.226397  0
O  O180  1  0.15611264  0.35057438  0.33592961  1  -1.182313  0  -0.340997  -0.581124  0  2.178164  0
O  O181  1  0.84388577  0.14942591  0.83593076  1  -1.182311  0  -0.341001  -0.581122  0  2.178157  0
O  O182  1  0.84388354  0.64942473  0.66406784  1  -1.182257  0  -0.340973  -0.581126  0  2.178198  0
O  O183  1  0.15611599  0.85057595  0.16407002  1  -1.182249  0  -0.340949  -0.581118  0  2.1782  0
O  O184  1  0.06859864  0.59992583  0.53313493  1  -1.20607  0  -0.340398  -0.596461  0  2.356687  0
O  O185  1  0.93140675  0.90007676  0.03313881  1  -1.206233  0  -0.340361  -0.596447  0  2.356639  0
O  O186  1  0.93140607  0.40007468  0.46686030  1  -1.206216  0  -0.340349  -0.5964  0  2.356725  0
O  O187  1  0.06860014  0.09992444  0.96686531  1  -1.206021  0  -0.340339  -0.59638  0  2.3567  0
