# generated using pymatgen
data_H14PbC18S(NO4)2
_symmetry_space_group_name_H-M   'P 1'
_cell_length_a   7.68571001
_cell_length_b   9.76789607
_cell_length_c   12.32988592
_cell_angle_alpha   76.12671786
_cell_angle_beta   86.06436606
_cell_angle_gamma   89.57469812
_symmetry_Int_Tables_number   1
_chemical_formula_structural   H14PbC18S(NO4)2
_chemical_formula_sum   'H28 Pb2 C36 S2 N4 O16'
_cell_volume   896.48347955
_cell_formula_units_Z   2
loop_
 _symmetry_equiv_pos_site_id
 _symmetry_equiv_pos_as_xyz
  1  'x, y, z'
loop_
 _atom_site_type_symbol
 _atom_site_label
 _atom_site_symmetry_multiplicity
 _atom_site_fract_x
 _atom_site_fract_y
 _atom_site_fract_z
 _atom_site_occupancy
 _atom_site_pbe_bader_spin_density
 _atom_site_pbe_cm5_charge
 _atom_site_pbe_ddec_charge
 _atom_site_pbe_ddec_spin_density
 _atom_site_pbe_ddec_sum_bond_order
 _atom_site_pbe_magmom
H  H0  1  0.21684696  0.32461663  0.45812093  1  0  0.297592  0.365318  0  0.970581  0
H  H1  1  0.78314070  0.67540234  0.54189396  1  0  0.297565  0.365346  0  0.970379  0
H  H2  1  0.90119811  0.97532027  0.11078400  1  0  0.287572  0.372848  0  0.974302  0
H  H3  1  0.09881249  0.02469167  0.88922080  1  0  0.287481  0.37258  0  0.974649  0
H  H4  1  0.80640215  0.98941147  0.99972133  1  0  0.290857  0.378347  0  0.958405  0
H  H5  1  0.19362185  0.01061585  0.00028123  1  0  0.290843  0.378352  0  0.958403  0
H  H6  1  0.88605721  0.46281377  0.33049026  1  0  0.124052  0.098045  0  0.995537  0
H  H7  1  0.11394857  0.53715959  0.66949936  1  0  0.124145  0.098195  0  0.995477  0
H  H8  1  0.02200585  0.24125398  0.30224159  1  0  0.1073  0.116974  0  1.043127  0
H  H9  1  0.97798525  0.75871413  0.69772668  1  0  0.10738  0.117102  0  1.043133  0
H  H10  1  0.99923880  0.17925706  0.11683254  1  0  0.108465  0.114329  0  1.025574  0
H  H11  1  0.00072981  0.82073633  0.88313377  1  0  0.108438  0.1144  0  1.025282  0
H  H12  1  0.83973675  0.33997464  0.96900803  1  0  0.108778  0.123521  0  1.025194  0
H  H13  1  0.16019930  0.66001157  0.03097191  1  0  0.108759  0.12351  0  1.025446  0
H  H14  1  0.70444637  0.47789913  0.85591680  1  0  0.112726  0.130015  0  1.014154  0
H  H15  1  0.29550287  0.52209883  0.14407614  1  0  0.112707  0.130145  0  1.014032  0
H  H16  1  0.56790461  0.66496133  0.72041239  1  0  0.108307  0.110888  0  1.036214  0
H  H17  1  0.43200275  0.33502765  0.27960452  1  0  0.10821  0.110778  0  1.035938  0
H  H18  1  0.46816111  0.88865542  0.77908539  1  0  0.109018  0.113574  0  1.016393  0
H  H19  1  0.53179873  0.11132969  0.22093048  1  0  0.108999  0.113513  0  1.016365  0
H  H20  1  0.50824658  0.90236571  0.97351037  1  0  0.118094  0.08934  0  1.014297  0
H  H21  1  0.49179189  0.09766358  0.02648408  1  0  0.1182  0.089514  0  1.014373  0
H  H22  1  0.16135452  0.05254677  0.31693870  1  0  0.108594  0.114707  0  1.038475  0
H  H23  1  0.83874600  0.94746833  0.68306349  1  0  0.108548  0.114535  0  1.038454  0
H  H24  1  0.36278737  0.87400992  0.63620099  1  0  0.103336  0.097942  0  1.042256  0
H  H25  1  0.63724728  0.12599368  0.36380365  1  0  0.103289  0.097957  0  1.042447  0
H  H26  1  0.39708228  0.64268873  0.58488502  1  0  0.104371  0.106469  0  1.054009  0
H  H27  1  0.60289526  0.35731692  0.41510488  1  0  0.104374  0.106396  0  1.054  0
Pb  Pb28  1  0.65956216  0.73447825  0.21830643  1  0  0.671883  1.107855  0  1.783352  0
Pb  Pb29  1  0.34049611  0.26555946  0.78174924  1  0  0.671636  1.107391  0  1.783998  0
C  C30  1  0.87566100  0.43044435  0.25227972  1  0  0.060835  0.113799  0  3.927137  0
C  C31  1  0.12433415  0.56953504  0.74770273  1  0  0.060677  0.113643  0  3.927234  0
C  C32  1  0.95141306  0.30674643  0.23568936  1  0  -0.079011  -0.115076  0  3.936572  0
C  C33  1  0.04856589  0.69320631  0.76428274  1  0  -0.079062  -0.115226  0  3.936688  0
C  C34  1  0.93815193  0.27384500  0.13273478  1  0  -0.066559  -0.018398  0  3.936267  0
C  C35  1  0.06180049  0.72612703  0.86725273  1  0  -0.066567  -0.018447  0  3.935846  0
C  C36  1  0.84983312  0.36427328  0.04998205  1  0  -0.077249  -0.147359  0  3.918554  0
C  C37  1  0.15016507  0.63576326  0.94999056  1  0  -0.077181  -0.147205  0  3.919187  0
C  C38  1  0.77585278  0.48670030  0.07246635  1  0  0.122995  0.16289  0  4.009188  0
C  C39  1  0.22412943  0.51331398  0.92752274  1  0  0.12307  0.162837  0  4.008906  0
C  C40  1  0.68659077  0.59182655  0.98763603  1  0  0.120829  0.157869  0  4.018213  0
C  C41  1  0.31337173  0.40815874  0.01237810  1  0  0.120739  0.157606  0  4.018186  0
C  C42  1  0.66313435  0.57369587  0.88035631  1  0  -0.077296  -0.150891  0  3.908718  0
C  C43  1  0.33677520  0.42629612  0.11966813  1  0  -0.077095  -0.150889  0  3.908565  0
C  C44  1  0.58491736  0.68027419  0.80348438  1  0  -0.065157  -0.016211  0  3.937979  0
C  C45  1  0.41504716  0.31972860  0.19651048  1  0  -0.065  -0.01588  0  3.937325  0
C  C46  1  0.53079642  0.80217818  0.83524871  1  0  -0.079507  -0.123149  0  3.954927  0
C  C47  1  0.46918809  0.19781704  0.16474923  1  0  -0.079639  -0.123262  0  3.955066  0
C  C48  1  0.55447888  0.81137712  0.94399146  1  0  0.054125  0.115717  0  3.953434  0
C  C49  1  0.44553656  0.18862030  0.05601485  1  0  0.053964  0.115498  0  3.953582  0
C  C50  1  0.31590574  0.56679917  0.40653954  1  0  0.219303  0.591593  0  4.198584  0
C  C51  1  0.68405696  0.43317959  0.59348220  1  0  0.21942  0.591912  0  4.198578  0
C  C52  1  0.29170455  0.71458545  0.42472554  1  0  0.004072  -0.018068  0  3.902505  0
C  C53  1  0.70831013  0.28540578  0.57527617  1  0  0.00393  -0.01856  0  3.903211  0
C  C54  1  0.22789566  0.83353043  0.34913282  1  0  -0.015732  -0.121283  0  3.938039  0
C  C55  1  0.77219072  0.16647443  0.65084073  1  0  -0.015683  -0.12101  0  3.937996  0
C  C56  1  0.21111370  0.96361456  0.37741294  1  0  -0.077587  -0.098612  0  3.953273  0
C  C57  1  0.78888165  0.03637035  0.62259452  1  0  -0.077502  -0.098304  0  3.953223  0
C  C58  1  0.25838992  0.97861321  0.48169513  1  0  -0.018981  -0.047788  0  3.971534  0
C  C59  1  0.74161407  0.02137834  0.51831418  1  0  -0.019073  -0.048086  0  3.971525  0
C  C60  1  0.24606063  0.11476536  0.51746803  1  0  0.230286  0.594645  0  4.13624  0
C  C61  1  0.75398764  0.88523392  0.48252718  1  0  0.230434  0.594968  0  4.136419  0
C  C62  1  0.32502090  0.86161345  0.55570523  1  0  -0.077351  -0.071698  0  3.968076  0
C  C63  1  0.67501567  0.13838643  0.44428699  1  0  -0.077375  -0.071665  0  3.967857  0
C  C64  1  0.34211410  0.73270850  0.52750138  1  0  -0.08401  -0.106671  0  3.965636  0
C  C65  1  0.65782747  0.26729679  0.47251408  1  0  -0.083865  -0.106412  0  3.965409  0
S  S66  1  0.17075367  0.82353143  0.21295199  1  0  0.52147  1.176864  0  6.155026  0
S  S67  1  0.82930442  0.17648231  0.78703151  1  0  0.521375  1.176546  0  6.154554  0
N  N68  1  0.78900117  0.51671355  0.17304841  1  0  -0.298336  -0.281823  0  3.465244  0
N  N69  1  0.21096844  0.48326261  0.82696625  1  0  -0.298318  -0.281661  0  3.46522  0
N  N70  1  0.63049486  0.70961351  0.01797689  1  0  -0.298445  -0.286103  0  3.449877  0
N  N71  1  0.36953278  0.29041931  0.98202300  1  0  -0.298296  -0.285776  0  3.449897  0
O  O72  1  0.43735198  0.54598835  0.33714674  1  0  -0.300666  -0.56867  0  2.225692  0
O  O73  1  0.56256979  0.45400705  0.66285400  1  0  -0.300802  -0.568812  0  2.22525  0
O  O74  1  0.21800213  0.47208665  0.46962691  1  0  -0.303914  -0.523144  0  2.168131  0
O  O75  1  0.78195836  0.52787777  0.53041357  1  0  -0.303785  -0.523149  0  2.168695  0
O  O76  1  0.11382329  0.96684105  0.15595858  1  0  -0.333278  -0.61624  0  2.27464  0
O  O77  1  0.88615305  0.03315676  0.84404486  1  0  -0.333259  -0.616051  0  2.274503  0
O  O78  1  0.33136275  0.78500499  0.15533194  1  0  -0.326292  -0.624264  0  2.306521  0
O  O79  1  0.66877613  0.21509321  0.84468730  1  0  -0.326099  -0.624166  0  2.305942  0
O  O80  1  0.03180449  0.71737694  0.22771519  1  0  -0.324629  -0.604657  0  2.235426  0
O  O81  1  0.96826447  0.28263140  0.77222263  1  0  -0.324723  -0.604571  0  2.235616  0
O  O82  1  0.27274292  0.11915663  0.61461225  1  0  -0.296628  -0.558157  0  2.197874  0
O  O83  1  0.72731694  0.88083740  0.38539971  1  0  -0.296632  -0.558223  0  2.199056  0
O  O84  1  0.20852645  0.22531027  0.43733704  1  0  -0.318283  -0.485172  0  2.35053  0
O  O85  1  0.79150767  0.77469722  0.56267670  1  0  -0.31821  -0.485216  0  2.350172  0
O  O86  1  0.78447199  0.97428747  0.08144146  1  0  -0.576041  -0.770276  0  2.028539  0
O  O87  1  0.21554105  0.02570669  0.91856467  1  0  -0.575926  -0.769989  0  2.028797  0
