# generated using pymatgen
data_CdH6C6(NO3)2
_symmetry_space_group_name_H-M   'P 1'
_cell_length_a   7.81162734
_cell_length_b   7.86173652
_cell_length_c   14.47228946
_cell_angle_alpha   89.99989860
_cell_angle_beta   89.99997765
_cell_angle_gamma   107.44103454
_symmetry_Int_Tables_number   1
_chemical_formula_structural   CdH6C6(NO3)2
_chemical_formula_sum   'Cd4 H24 C24 N8 O24'
_cell_volume   847.92494819
_cell_formula_units_Z   4
loop_
 _symmetry_equiv_pos_site_id
 _symmetry_equiv_pos_as_xyz
  1  'x, y, z'
loop_
 _atom_site_type_symbol
 _atom_site_label
 _atom_site_symmetry_multiplicity
 _atom_site_fract_x
 _atom_site_fract_y
 _atom_site_fract_z
 _atom_site_occupancy
 _atom_site_hle17_bader_spin_density
 _atom_site_hle17_ddec_charge
 _atom_site_hle17_ddec_spin_density
 _atom_site_hle17_ddec_sum_bond_order
 _atom_site_hle17_magmom
 _atom_site_hse06_10hf_bader_spin_density
 _atom_site_hse06_10hf_ddec_charge
 _atom_site_hse06_10hf_ddec_spin_density
 _atom_site_hse06_10hf_ddec_sum_bond_order
 _atom_site_hse06_10hf_magmom
 _atom_site_hse06_bader_spin_density
 _atom_site_hse06_ddec_charge
 _atom_site_hse06_ddec_spin_density
 _atom_site_hse06_ddec_sum_bond_order
 _atom_site_hse06_magmom
 _atom_site_pbe_bader_spin_density
 _atom_site_pbe_cm5_charge
 _atom_site_pbe_ddec_charge
 _atom_site_pbe_ddec_spin_density
 _atom_site_pbe_ddec_sum_bond_order
 _atom_site_pbe_magmom
Cd  Cd0  1  0.28136122  0.94784808  0.65937895  1  0  1.252019  0  1.569158  0  0  1.071422  0  2.013192  0  0  1.128954  0  1.955002  0  0  0.787792  1.030078  0  2.053357  0
Cd  Cd1  1  0.71863651  0.55214932  0.15937873  1  0  1.252001  0  1.569167  0  0  1.071403  0  2.013204  0  0  1.128934  0  1.955015  0  0  0.787783  1.030064  0  2.05337  0
Cd  Cd2  1  0.71863755  0.05215108  0.34062189  1  0  1.251997  0  1.569197  0  0  1.071409  0  2.013246  0  0  1.128939  0  1.955053  0  0  0.787762  1.030063  0  2.053413  0
Cd  Cd3  1  0.28136226  0.44784984  0.84062072  1  0  1.251993  0  1.569209  0  0  1.071411  0  2.013259  0  0  1.128942  0  1.955067  0  0  0.787765  1.030064  0  2.053431  0
H  H4  1  0.65134426  0.41301977  0.62788864  1  0  0.103363  0  0.926155  0  0  0.110564  0  0.98776  0  0  0.114373  0  0.984356  0  0  0.126149  0.107665  0  0.990477  0
H  H5  1  0.34865000  0.08697932  0.12788846  1  0  0.103346  0  0.926191  0  0  0.11055  0  0.987801  0  0  0.114339  0  0.984421  0  0  0.126113  0.107647  0  0.990518  0
H  H6  1  0.34865236  0.58698073  0.37211012  1  0  0.103364  0  0.926182  0  0  0.110563  0  0.987784  0  0  0.114357  0  0.9844  0  0  0.126113  0.107661  0  0.990495  0
H  H7  1  0.65134830  0.91302251  0.87211306  1  0  0.103366  0  0.926162  0  0  0.110574  0  0.987764  0  0  0.114363  0  0.984384  0  0  0.126125  0.107669  0  0.990477  0
H  H8  1  0.90875764  0.63268241  0.71249986  1  0  0.120574  0  0.949191  0  0  0.125851  0  1.010787  0  0  0.129871  0  1.006817  0  0  0.130224  0.122838  0  1.013923  0
H  H9  1  0.09124000  0.86731479  0.21250016  1  0  0.120606  0  0.949208  0  0  0.125902  0  1.010765  0  0  0.12992  0  1.006801  0  0  0.13023  0.122893  0  1.013901  0
H  H10  1  0.09124113  0.36731675  0.28750028  1  0  0.120579  0  0.949229  0  0  0.125875  0  1.010794  0  0  0.129894  0  1.006826  0  0  0.130233  0.122864  0  1.013929  0
H  H11  1  0.90875749  0.13268438  0.78750067  1  0  0.12058  0  0.949223  0  0  0.125865  0  1.010811  0  0  0.129885  0  1.00684  0  0  0.130211  0.122855  0  1.013949  0
H  H12  1  0.40086298  0.66548927  0.57110071  1  0  0.388293  0  0.91752  0  0  0.344583  0  1.009732  0  0  0.355662  0  0.994085  0  0  0.281127  0.336771  0  1.020726  0
H  H13  1  0.59913829  0.83451112  0.07110093  1  0  0.388284  0  0.917528  0  0  0.344577  0  1.009739  0  0  0.355657  0  0.994092  0  0  0.281121  0.336763  0  1.020737  0
H  H14  1  0.59913835  0.33450988  0.42889943  1  0  0.388255  0  0.917597  0  0  0.34454  0  1.0098  0  0  0.35562  0  0.994154  0  0  0.281104  0.336729  0  1.020792  0
H  H15  1  0.40086129  0.16549071  0.92889921  1  0  0.388275  0  0.917557  0  0  0.344567  0  1.009759  0  0  0.355647  0  0.994112  0  0  0.281112  0.336758  0  1.020747  0
H  H16  1  0.56101717  0.84977801  0.57103980  1  0  0.420561  0  0.883323  0  0  0.386562  0  0.951243  0  0  0.398672  0  0.933884  0  0  0.284046  0.377999  0  0.963486  0
H  H17  1  0.43898538  0.65022238  0.07103885  1  0  0.420538  0  0.883366  0  0  0.38653  0  0.951284  0  0  0.398636  0  0.933932  0  0  0.284008  0.37797  0  0.96352  0
H  H18  1  0.43898329  0.15022248  0.42896173  1  0  0.420576  0  0.883306  0  0  0.38658  0  0.951221  0  0  0.39869  0  0.933862  0  0  0.284032  0.378017  0  0.963464  0
H  H19  1  0.56101507  0.34977811  0.92896129  1  0  0.420578  0  0.883305  0  0  0.386577  0  0.951227  0  0  0.398687  0  0.933868  0  0  0.284028  0.378012  0  0.963474  0
H  H20  1  0.65826987  0.10730421  0.70252383  1  0  0.425457  0  0.880877  0  0  0.391546  0  0.949083  0  0  0.402743  0  0.932884  0  0  0.289682  0.383672  0  0.960441  0
H  H21  1  0.34173106  0.39269590  0.20252336  1  0  0.425473  0  0.880852  0  0  0.391567  0  0.94905  0  0  0.402765  0  0.932852  0  0  0.289695  0.383695  0  0.960405  0
H  H22  1  0.34173058  0.89269628  0.29747631  1  0  0.425464  0  0.880872  0  0  0.391542  0  0.949095  0  0  0.40274  0  0.932896  0  0  0.289676  0.383669  0  0.96045  0
H  H23  1  0.65826853  0.60730593  0.79747678  1  0  0.425466  0  0.880862  0  0  0.391545  0  0.94908  0  0  0.402743  0  0.932883  0  0  0.289687  0.383674  0  0.960436  0
H  H24  1  0.53842240  0.17494637  0.78084314  1  0  0.437481  0  0.849411  0  0  0.408405  0  0.909647  0  0  0.418913  0  0.894396  0  0  0.296433  0.400872  0  0.920585  0
H  H25  1  0.46157711  0.32505344  0.28084271  1  0  0.437482  0  0.849425  0  0  0.408404  0  0.909651  0  0  0.418912  0  0.894401  0  0  0.296427  0.400872  0  0.920586  0
H  H26  1  0.46157678  0.82505412  0.21915700  1  0  0.437495  0  0.849418  0  0  0.408416  0  0.909639  0  0  0.418925  0  0.894386  0  0  0.296434  0.400885  0  0.920572  0
H  H27  1  0.53842294  0.67494571  0.71915674  1  0  0.437496  0  0.84941  0  0  0.408419  0  0.909632  0  0  0.418928  0  0.89438  0  0  0.296437  0.400889  0  0.920564  0
C  C28  1  0.00932521  0.76533180  0.49858626  1  0  0.030738  0  3.719621  0  0  0.02661  0  3.970156  0  0  0.024095  0  3.990485  0  0  0.113451  0.027771  0  3.957013  0
C  C29  1  0.99067526  0.73466696  0.99858722  1  0  0.030738  0  3.719523  0  0  0.026641  0  3.970076  0  0  0.024125  0  3.990403  0  0  0.113423  0.027806  0  3.956923  0
C  C30  1  0.99067524  0.23466869  0.50141319  1  0  0.030755  0  3.719575  0  0  0.026644  0  3.970098  0  0  0.024128  0  3.990427  0  0  0.113455  0.027803  0  3.956956  0
C  C31  1  0.00932734  0.26533218  0.00141292  1  0  0.030729  0  3.719579  0  0  0.026662  0  3.970068  0  0  0.024148  0  3.990397  0  0  0.113423  0.027826  0  3.956919  0
C  C32  1  0.86224454  0.64925491  0.45241937  1  0  0.090999  0  3.660873  0  0  0.086494  0  3.911961  0  0  0.08817  0  3.926523  0  0  0.133462  0.084821  0  3.902837  0
C  C33  1  0.13775347  0.85074404  0.95241972  1  0  0.091066  0  3.660747  0  0  0.086466  0  3.911972  0  0  0.088143  0  3.926533  0  0  0.133483  0.084802  0  3.902823  0
C  C34  1  0.13775510  0.35074291  0.54758008  1  0  0.091083  0  3.660853  0  0  0.086564  0  3.911966  0  0  0.088243  0  3.92653  0  0  0.133508  0.084888  0  3.902836  0
C  C35  1  0.86224612  0.14925779  0.04758111  1  0  0.091058  0  3.660823  0  0  0.086495  0  3.911968  0  0  0.088171  0  3.926533  0  0  0.133516  0.084823  0  3.902839  0
C  C36  1  0.75354518  0.51526462  0.59069474  1  0  0.110312  0  3.631111  0  0  0.077793  0  3.898755  0  0  0.082092  0  3.910117  0  0  0.065073  0.074848  0  3.891551  0
C  C37  1  0.24645094  0.98473572  0.09069628  1  0  0.110257  0  3.630982  0  0  0.077721  0  3.898633  0  0  0.082035  0  3.909995  0  0  0.065045  0.074779  0  3.891429  0
C  C38  1  0.24645185  0.48473722  0.40930333  1  0  0.110242  0  3.630914  0  0  0.077728  0  3.898546  0  0  0.082038  0  3.909911  0  0  0.065075  0.074791  0  3.891331  0
C  C39  1  0.75354864  0.01526611  0.90930594  1  0  0.110292  0  3.630903  0  0  0.077752  0  3.898567  0  0  0.082068  0  3.90993  0  0  0.065039  0.074816  0  3.891351  0
C  C40  1  0.89497572  0.63591403  0.63784339  1  0  0.113068  0  3.624086  0  0  0.079117  0  3.886759  0  0  0.085541  0  3.897743  0  0  0.064402  0.074312  0  3.879847  0
C  C41  1  0.10502247  0.86408479  0.13784508  1  0  0.113055  0  3.624038  0  0  0.079118  0  3.886678  0  0  0.085542  0  3.897652  0  0  0.064423  0.074301  0  3.879781  0
C  C42  1  0.10502346  0.36408646  0.36215468  1  0  0.113031  0  3.624102  0  0  0.079082  0  3.886751  0  0  0.085505  0  3.89773  0  0  0.064357  0.07427  0  3.879848  0
C  C43  1  0.89497840  0.13591703  0.86215645  1  0  0.113031  0  3.624076  0  0  0.079095  0  3.886711  0  0  0.085519  0  3.897687  0  0  0.064434  0.074279  0  3.879811  0
C  C44  1  0.16205975  0.89472555  0.44693575  1  0  0.623088  0  3.937234  0  0  0.564244  0  4.246219  0  0  0.597309  0  4.240829  0  0  0.20646  0.541924  0  4.249102  0
C  C45  1  0.83793827  0.60527342  0.94693687  1  0  0.62301  0  3.937384  0  0  0.564162  0  4.24637  0  0  0.597227  0  4.240983  0  0  0.206412  0.541842  0  4.249256  0
C  C46  1  0.83794199  0.10527493  0.55306439  1  0  0.623001  0  3.937386  0  0  0.564173  0  4.246352  0  0  0.597237  0  4.240964  0  0  0.206394  0.541857  0  4.249235  0
C  C47  1  0.16206439  0.39472172  0.05306603  1  0  0.623007  0  3.937407  0  0  0.564189  0  4.246357  0  0  0.597252  0  4.240967  0  0  0.206462  0.541872  0  4.249239  0
C  C48  1  0.82357339  0.65842864  0.35070983  1  0  0.646596  0  3.955731  0  0  0.5879  0  4.260726  0  0  0.624448  0  4.250777  0  0  0.20712  0.562882  0  4.266625  0
C  C49  1  0.17642307  0.84157337  0.85070948  1  0  0.646531  0  3.955738  0  0  0.587842  0  4.260765  0  0  0.624391  0  4.250815  0  0  0.207083  0.562832  0  4.266651  0
C  C50  1  0.17643147  0.34156114  0.64928824  1  0  0.64658  0  3.955796  0  0  0.587858  0  4.260837  0  0  0.624399  0  4.250898  0  0  0.207093  0.562853  0  4.266729  0
C  C51  1  0.82357171  0.15843783  0.14928997  1  0  0.646594  0  3.955781  0  0  0.587912  0  4.260772  0  0  0.624459  0  4.250827  0  0  0.207155  0.562902  0  4.266666  0
N  N52  1  0.02192976  0.75694372  0.59092894  1  0  -0.299766  0  3.270879  0  0  -0.237834  0  3.54093  0  0  -0.252025  0  3.557059  0  0  -0.304001  -0.227843  0  3.530095  0
N  N53  1  0.97806851  0.74305527  0.09093056  1  0  -0.299756  0  3.270875  0  0  -0.237832  0  3.540913  0  0  -0.252022  0  3.557041  0  0  -0.303975  -0.227846  0  3.530089  0
N  N54  1  0.97806773  0.24305544  0.40907051  1  0  -0.299701  0  3.270901  0  0  -0.237782  0  3.540949  0  0  -0.251973  0  3.557079  0  0  -0.303933  -0.22779  0  3.530119  0
N  N55  1  0.02193194  0.25694522  0.90907097  1  0  -0.299737  0  3.271004  0  0  -0.237833  0  3.541042  0  0  -0.252025  0  3.557172  0  0  -0.303976  -0.227843  0  3.530214  0
N  N56  1  0.73821623  0.52104385  0.49878115  1  0  -0.276301  0  3.087905  0  0  -0.230032  0  3.341969  0  0  -0.238822  0  3.354409  0  0  -0.281595  -0.224078  0  3.333935  0
N  N57  1  0.26178297  0.97895491  0.99878204  1  0  -0.276291  0  3.087863  0  0  -0.229996  0  3.341973  0  0  -0.238783  0  3.354403  0  0  -0.281568  -0.224046  0  3.333932  0
N  N58  1  0.26178382  0.47895530  0.50121761  1  0  -0.276334  0  3.087765  0  0  -0.230065  0  3.341838  0  0  -0.238851  0  3.35427  0  0  -0.281607  -0.224111  0  3.333797  0
N  N59  1  0.73821748  0.02104558  0.00121879  1  0  -0.276297  0  3.087814  0  0  -0.230012  0  3.341909  0  0  -0.238798  0  3.354338  0  0  -0.281573  -0.22406  0  3.333871  0
O  O60  1  0.28407210  0.00431373  0.49464734  1  0  -0.646611  0  2.046288  0  0  -0.57789  0  2.288498  0  0  -0.606968  0  2.277967  0  0  -0.313512  -0.557495  0  2.295098  0
O  O61  1  0.71592829  0.49568527  0.99464673  1  0  -0.646575  0  2.046399  0  0  -0.577851  0  2.288609  0  0  -0.606926  0  2.278079  0  0  -0.313486  -0.557469  0  2.295225  0
O  O62  1  0.71592754  0.99568409  0.50535349  1  0  -0.646586  0  2.04634  0  0  -0.577859  0  2.288532  0  0  -0.606936  0  2.278002  0  0  -0.313482  -0.557479  0  2.295151  0
O  O63  1  0.28407810  0.50431786  0.00535133  1  0  -0.646599  0  2.046188  0  0  -0.5779  0  2.288396  0  0  -0.606975  0  2.277867  0  0  -0.313535  -0.557514  0  2.295001  0
O  O64  1  0.46588040  0.76860766  0.61108603  1  0  -0.830721  0  1.930644  0  0  -0.7587  0  2.140604  0  0  -0.783235  0  2.105346  0  0  -0.56971  -0.741197  0  2.165087  0
O  O65  1  0.53412080  0.73139257  0.11108568  1  0  -0.830695  0  1.930663  0  0  -0.758648  0  2.140656  0  0  -0.783185  0  2.105407  0  0  -0.569661  -0.741146  0  2.165137  0
O  O66  1  0.53412092  0.23139148  0.38891411  1  0  -0.830704  0  1.930669  0  0  -0.758687  0  2.140632  0  0  -0.783208  0  2.105342  0  0  -0.56966  -0.741182  0  2.165114  0
O  O67  1  0.46587838  0.26860792  0.88891377  1  0  -0.830713  0  1.930635  0  0  -0.75869  0  2.140601  0  0  -0.78322  0  2.105329  0  0  -0.56966  -0.741187  0  2.165084  0
O  O68  1  0.15860797  0.88172105  0.36021693  1  0  -0.594123  0  1.992265  0  0  -0.537632  0  2.215855  0  0  -0.562602  0  2.208192  0  0  -0.298649  -0.520152  0  2.220576  0
O  O69  1  0.84139190  0.61827957  0.86021734  1  0  -0.594097  0  1.992256  0  0  -0.537601  0  2.215845  0  0  -0.562572  0  2.208183  0  0  -0.298639  -0.520114  0  2.220548  0
O  O70  1  0.84139249  0.11827944  0.63978183  1  0  -0.594057  0  1.992322  0  0  -0.537608  0  2.215945  0  0  -0.562577  0  2.208283  0  0  -0.298625  -0.520127  0  2.22066  0
O  O71  1  0.15861239  0.38172089  0.13977934  1  0  -0.594005  0  1.992526  0  0  -0.53759  0  2.216167  0  0  -0.562556  0  2.208502  0  0  -0.298648  -0.520112  0  2.22088  0
O  O72  1  0.54217633  0.08074730  0.73643003  1  0  -0.854611  0  1.902764  0  0  -0.785575  0  2.105667  0  0  -0.809867  0  2.071086  0  0  -0.589786  -0.768196  0  2.129688  0
O  O73  1  0.45782494  0.41925401  0.23643021  1  0  -0.854633  0  1.902783  0  0  -0.785597  0  2.105674  0  0  -0.809888  0  2.071092  0  0  -0.589789  -0.768222  0  2.129693  0
O  O74  1  0.45782453  0.91925452  0.26357011  1  0  -0.854631  0  1.902771  0  0  -0.785597  0  2.105682  0  0  -0.809888  0  2.071094  0  0  -0.589797  -0.768225  0  2.129699  0
O  O75  1  0.54217639  0.58074513  0.76356994  1  0  -0.854634  0  1.902773  0  0  -0.785599  0  2.105678  0  0  -0.809891  0  2.071097  0  0  -0.589807  -0.768221  0  2.129682  0
O  O76  1  0.86720338  0.55033362  0.29769960  1  0  -0.613107  0  2.015121  0  0  -0.550003  0  2.264785  0  0  -0.582222  0  2.257294  0  0  -0.308163  -0.526978  0  2.269002  0
O  O77  1  0.13279660  0.94966724  0.79770055  1  0  -0.613063  0  2.015271  0  0  -0.549941  0  2.264924  0  0  -0.58216  0  2.257434  0  0  -0.308125  -0.526924  0  2.269137  0
O  O78  1  0.13279743  0.44967220  0.70230192  1  0  -0.61321  0  2.014833  0  0  -0.550097  0  2.264529  0  0  -0.582322  0  2.257045  0  0  -0.308185  -0.527051  0  2.268688  0
O  O79  1  0.86720350  0.05032790  0.20230236  1  0  -0.613175  0  2.01487  0  0  -0.550096  0  2.264577  0  0  -0.582321  0  2.257091  0  0  -0.308193  -0.527046  0  2.268737  0
O  O80  1  0.73263706  0.75952471  0.32689117  1  0  -0.647302  0  2.048028  0  0  -0.583397  0  2.313244  0  0  -0.615079  0  2.300734  0  0  -0.319981  -0.560487  0  2.320753  0
O  O81  1  0.26736077  0.74047339  0.82689021  1  0  -0.647305  0  2.047908  0  0  -0.583387  0  2.313119  0  0  -0.615072  0  2.30061  0  0  -0.319994  -0.560483  0  2.320627  0
O  O82  1  0.26735910  0.24047847  0.67310759  1  0  -0.647232  0  2.048347  0  0  -0.583328  0  2.313599  0  0  -0.615002  0  2.301091  0  0  -0.319974  -0.560435  0  2.321117  0
O  O83  1  0.73264189  0.25952175  0.17310786  1  0  -0.647257  0  2.048286  0  0  -0.583349  0  2.313507  0  0  -0.615026  0  2.300998  0  0  -0.320011  -0.56045  0  2.321023  0
