# generated using pymatgen
data_H16PbC16O7
_symmetry_space_group_name_H-M   'P 1'
_cell_length_a   7.26893768
_cell_length_b   10.54992407
_cell_length_c   11.26633357
_cell_angle_alpha   109.68794453
_cell_angle_beta   91.41917197
_cell_angle_gamma   102.88984355
_symmetry_Int_Tables_number   1
_chemical_formula_structural   H16PbC16O7
_chemical_formula_sum   'H32 Pb2 C32 O14'
_cell_volume   788.25934098
_cell_formula_units_Z   2
loop_
 _symmetry_equiv_pos_site_id
 _symmetry_equiv_pos_as_xyz
  1  'x, y, z'
loop_
 _atom_site_type_symbol
 _atom_site_label
 _atom_site_symmetry_multiplicity
 _atom_site_fract_x
 _atom_site_fract_y
 _atom_site_fract_z
 _atom_site_occupancy
 _atom_site_hle17_bader_spin_density
 _atom_site_hle17_ddec_charge
 _atom_site_hle17_ddec_spin_density
 _atom_site_hle17_ddec_sum_bond_order
 _atom_site_hle17_magmom
 _atom_site_hse06_10hf_bader_spin_density
 _atom_site_hse06_10hf_ddec_charge
 _atom_site_hse06_10hf_ddec_spin_density
 _atom_site_hse06_10hf_ddec_sum_bond_order
 _atom_site_hse06_10hf_magmom
 _atom_site_hse06_bader_spin_density
 _atom_site_hse06_ddec_charge
 _atom_site_hse06_ddec_spin_density
 _atom_site_hse06_ddec_sum_bond_order
 _atom_site_hse06_magmom
 _atom_site_pbe_bader_spin_density
 _atom_site_pbe_cm5_charge
 _atom_site_pbe_ddec_charge
 _atom_site_pbe_ddec_spin_density
 _atom_site_pbe_ddec_sum_bond_order
 _atom_site_pbe_magmom
H  H0  1  0.76978701  0.66157761  0.10647278  1  0  0.375566  0  0.893699  0  0  0.348576  0  0.971928  0  0  0.358902  0  0.959605  0  0  0.302819  0.341205  0  0.980706  0
H  H1  1  0.23021300  0.33842848  0.89352905  1  0  0.375639  0  0.893493  0  0  0.348678  0  0.971717  0  0  0.359014  0  0.959373  0  0  0.302861  0.341302  0  0.980509  0
H  H2  1  0.37293457  0.57723112  0.98044419  1  0  0.389529  0  0.813599  0  0  0.376709  0  0.864223  0  0  0.384605  0  0.855585  0  0  0.338426  0.371033  0  0.870549  0
H  H3  1  0.62706666  0.42277816  0.01956753  1  0  0.389525  0  0.81343  0  0  0.376693  0  0.864064  0  0  0.384587  0  0.855426  0  0  0.338409  0.371018  0  0.870394  0
H  H4  1  0.82190735  0.54503875  0.72844298  1  0  0.104687  0  0.947582  0  0  0.122189  0  1.008987  0  0  0.123527  0  1.008621  0  0  0.102299  0.12128  0  1.00921  0
H  H5  1  0.17809095  0.45494554  0.27154936  1  0  0.104701  0  0.9475  0  0  0.122206  0  1.008908  0  0  0.123546  0  1.008539  0  0  0.102292  0.121299  0  1.009126  0
H  H6  1  0.91250966  0.52971934  0.86858745  1  0  0.107008  0  0.945983  0  0  0.119165  0  1.013686  0  0  0.121586  0  1.011598  0  0  0.099016  0.117389  0  1.015255  0
H  H7  1  0.08749282  0.47026498  0.13140760  1  0  0.106979  0  0.946024  0  0  0.119179  0  1.013679  0  0  0.121599  0  1.011596  0  0  0.099001  0.117399  0  1.015261  0
H  H8  1  0.02063559  0.59991763  0.57924938  1  0  0.094538  0  0.953601  0  0  0.108042  0  1.009591  0  0  0.110506  0  1.008906  0  0  0.102112  0.106238  0  1.010262  0
H  H9  1  0.97937688  0.40007193  0.42074828  1  0  0.094456  0  0.953716  0  0  0.108023  0  1.009641  0  0  0.110486  0  1.008964  0  0  0.102081  0.106236  0  1.010291  0
H  H10  1  0.34174936  0.66553220  0.51254989  1  0  0.103247  0  0.962644  0  0  0.112809  0  1.023779  0  0  0.115773  0  1.02301  0  0  0.102593  0.110661  0  1.024471  0
H  H11  1  0.65826518  0.33448020  0.48745759  1  0  0.103256  0  0.962597  0  0  0.112785  0  1.023789  0  0  0.115753  0  1.023002  0  0  0.102579  0.110639  0  1.024478  0
H  H12  1  0.62539267  0.66587070  0.63732659  1  0  0.087717  0  0.956955  0  0  0.097647  0  1.020879  0  0  0.100598  0  1.01908  0  0  0.100831  0.095514  0  1.022262  0
H  H13  1  0.37461332  0.33414481  0.36268533  1  0  0.087683  0  0.957043  0  0  0.097608  0  1.020964  0  0  0.100557  0  1.019166  0  0  0.100812  0.095474  0  1.022348  0
H  H14  1  0.58855109  0.60620401  0.83554996  1  0  0.097989  0  0.970601  0  0  0.106204  0  1.0386  0  0  0.109922  0  1.035944  0  0  0.097541  0.103596  0  1.040443  0
H  H15  1  0.41145596  0.39381463  0.16446472  1  0  0.098053  0  0.970487  0  0  0.106255  0  1.038506  0  0  0.10997  0  1.035854  0  0  0.097595  0.10365  0  1.040344  0
H  H16  1  0.63829503  0.97438972  0.15719590  1  0  0.115639  0  0.945279  0  0  0.129827  0  1.00853  0  0  0.131848  0  1.007396  0  0  0.104123  0.12846  0  1.009286  0
H  H17  1  0.36169417  0.02559240  0.84278859  1  0  0.11545  0  0.945465  0  0  0.12968  0  1.008725  0  0  0.131707  0  1.00759  0  0  0.104071  0.128313  0  1.009482  0
H  H18  1  0.78757824  0.14423135  0.21244773  1  0  0.1143  0  0.948603  0  0  0.12837  0  1.012405  0  0  0.129205  0  1.014254  0  0  0.103752  0.127842  0  1.011033  0
H  H19  1  0.21241856  0.85576443  0.78756062  1  0  0.114385  0  0.948473  0  0  0.128421  0  1.012393  0  0  0.129243  0  1.01426  0  0  0.103722  0.127906  0  1.011012  0
H  H20  1  0.07010812  0.67705550  0.03677679  1  0  0.105257  0  0.981389  0  0  0.111273  0  1.050141  0  0  0.114872  0  1.047995  0  0  0.098098  0.108584  0  1.052022  0
H  H21  1  0.92988328  0.32294537  0.96322245  1  0  0.105281  0  0.98141  0  0  0.111267  0  1.050189  0  0  0.114866  0  1.048043  0  0  0.098108  0.108579  0  1.05207  0
H  H22  1  0.37421173  0.83739178  0.03461104  1  0  0.084642  0  0.958533  0  0  0.094861  0  1.022089  0  0  0.098061  0  1.019714  0  0  0.096593  0.092561  0  1.023765  0
H  H23  1  0.62579063  0.16260405  0.96540003  1  0  0.084645  0  0.958634  0  0  0.094909  0  1.022129  0  0  0.098106  0  1.019759  0  0  0.0966  0.09261  0  1.023804  0
H  H24  1  0.40285853  0.09436606  0.11085455  1  0  0.09255  0  0.967516  0  0  0.101991  0  1.031954  0  0  0.104444  0  1.031994  0  0  0.095651  0.100219  0  1.032003  0
H  H25  1  0.59714624  0.90563289  0.88915752  1  0  0.092543  0  0.96759  0  0  0.101972  0  1.032027  0  0  0.104422  0  1.032072  0  0  0.09565  0.100201  0  1.032074  0
H  H26  1  0.12191091  0.18402004  0.18617038  1  0  0.095364  0  0.947514  0  0  0.108154  0  1.006242  0  0  0.110343  0  1.006035  0  0  0.100301  0.106619  0  1.006406  0
H  H27  1  0.87809387  0.81598398  0.81382818  1  0  0.095333  0  0.947587  0  0  0.108142  0  1.006275  0  0  0.110333  0  1.006066  0  0  0.100277  0.106606  0  1.006443  0
H  H28  1  0.78999519  0.73785815  0.39199870  1  0  0.437493  0  0.853214  0  0  0.403275  0  0.921774  0  0  0.414163  0  0.905985  0  0  0.292378  0.395533  0  0.932962  0
H  H29  1  0.21000554  0.26213758  0.60799989  1  0  0.437352  0  0.853352  0  0  0.40314  0  0.921912  0  0  0.414029  0  0.906121  0  0  0.292306  0.395396  0  0.933103  0
H  H30  1  0.57049019  0.73561839  0.37693945  1  0  0.4333  0  0.854377  0  0  0.403237  0  0.916534  0  0  0.413373  0  0.901739  0  0  0.294073  0.395992  0  0.927091  0
H  H31  1  0.42951413  0.26438039  0.62305126  1  0  0.433344  0  0.85431  0  0  0.40327  0  0.916491  0  0  0.413407  0  0.901697  0  0  0.294104  0.396024  0  0.927048  0
Pb  Pb32  1  0.76074412  0.02239429  0.60701413  1  0  1.353383  0  1.422547  0  0  1.176946  0  1.811511  0  0  1.235393  0  1.772359  0  0  0.645269  1.133951  0  1.839186  0
Pb  Pb33  1  0.23926199  0.97762815  0.39295646  1  0  1.35337  0  1.422473  0  0  1.176947  0  1.811389  0  0  1.235382  0  1.772265  0  0  0.645267  1.133952  0  1.839061  0
C  C34  1  0.85463794  0.34269260  0.70883112  1  0  0.691632  0  3.876876  0  0  0.646619  0  4.176255  0  0  0.678487  0  4.172378  0  0  0.204723  0.625001  0  4.177826  0
C  C35  1  0.14536868  0.65731251  0.29117312  1  0  0.691718  0  3.87675  0  0  0.64673  0  4.176125  0  0  0.678602  0  4.172246  0  0  0.204774  0.62511  0  4.177698  0
C  C36  1  0.92381634  0.50179506  0.76623984  1  0  -0.289354  0  3.702027  0  0  -0.338004  0  3.951093  0  0  -0.342008  0  3.95834  0  0  -0.164724  -0.335147  0  3.946086  0
C  C37  1  0.07619022  0.49820172  0.23375825  1  0  -0.289345  0  3.701781  0  0  -0.338066  0  3.950917  0  0  -0.342068  0  3.958159  0  0  -0.164772  -0.335214  0  3.945918  0
C  C38  1  0.12040381  0.55701267  0.73900800  1  0  0.018047  0  3.756962  0  0  0.034089  0  3.995386  0  0  0.032172  0  4.018979  0  0  -0.024001  0.035207  0  3.979473  0
C  C39  1  0.87960216  0.44298206  0.26099388  1  0  0.018092  0  3.756709  0  0  0.03413  0  3.995188  0  0  0.032214  0  4.018785  0  0  -0.023905  0.03525  0  3.979279  0
C  C40  1  0.14611758  0.59785653  0.63307800  1  0  -0.113695  0  3.752119  0  0  -0.131384  0  3.99824  0  0  -0.13287  0  4.018387  0  0  -0.092725  -0.130352  0  3.984889  0
C  C41  1  0.85388661  0.40213299  0.36691869  1  0  -0.113699  0  3.752319  0  0  -0.13142  0  3.998432  0  0  -0.132913  0  4.018587  0  0  -0.092734  -0.1304  0  3.98507  0
C  C42  1  0.32534306  0.63543481  0.59572616  1  0  -0.070896  0  3.760863  0  0  -0.089903  0  4.016469  0  0  -0.091911  0  4.036879  0  0  -0.096897  -0.088642  0  4.003017  0
C  C43  1  0.67466322  0.36456095  0.40427427  1  0  -0.07088  0  3.761112  0  0  -0.08987  0  4.016682  0  0  -0.09188  0  4.037117  0  0  -0.096918  -0.088605  0  4.003227  0
C  C44  1  0.48563495  0.63738834  0.66761103  1  0  -0.041628  0  3.77798  0  0  -0.055906  0  4.031114  0  0  -0.056285  0  4.05206  0  0  -0.08908  -0.055459  0  4.016818  0
C  C45  1  0.51437039  0.36261265  0.33239636  1  0  -0.041556  0  3.778133  0  0  -0.055799  0  4.031229  0  0  -0.056179  0  4.052172  0  0  -0.089049  -0.055351  0  4.016925  0
C  C46  1  0.46505517  0.60355579  0.77687702  1  0  -0.21228  0  3.80311  0  0  -0.233445  0  4.062257  0  0  -0.237894  0  4.081306  0  0  -0.112389  -0.230337  0  4.049163  0
C  C47  1  0.53495252  0.39645245  0.22313087  1  0  -0.21243  0  3.803129  0  0  -0.233598  0  4.062313  0  0  -0.238046  0  4.081365  0  0  -0.112463  -0.230488  0  4.049223  0
C  C48  1  0.28408829  0.56279931  0.81097820  1  0  0.254148  0  3.767349  0  0  0.239197  0  4.033318  0  0  0.247471  0  4.050561  0  0  0.070074  0.233436  0  4.021445  0
C  C49  1  0.71591249  0.43720474  0.18902655  1  0  0.254193  0  3.767335  0  0  0.239196  0  4.033357  0  0  0.24747  0  4.050597  0  0  0.070057  0.233426  0  4.021496  0
C  C50  1  0.76526702  0.04315845  0.34741997  1  0  0.734164  0  3.806101  0  0  0.682992  0  4.100828  0  0  0.718952  0  4.092151  0  0  0.228729  0.658251  0  4.10616  0
C  C51  1  0.23471043  0.95682985  0.65256546  1  0  0.733771  0  3.806871  0  0  0.682776  0  4.101394  0  0  0.71874  0  4.092709  0  0  0.228498  0.658036  0  4.106733  0
C  C52  1  0.77467751  0.03781533  0.21095987  1  0  -0.292235  0  3.698515  0  0  -0.335096  0  3.932414  0  0  -0.339801  0  3.939383  0  0  -0.160183  -0.331881  0  3.927681  0
C  C53  1  0.22530834  0.96217305  0.78903187  1  0  -0.2921  0  3.698639  0  0  -0.335029  0  3.93241  0  0  -0.339744  0  3.939423  0  0  -0.160123  -0.331827  0  3.927676  0
C  C54  1  0.93803619  0.98349137  0.15399478  1  0  0.003293  0  3.768767  0  0  0.023887  0  3.993864  0  0  0.020953  0  4.018659  0  0  -0.020979  0.025724  0  3.977257  0
C  C55  1  0.06196420  0.01650747  0.84600567  1  0  0.00325  0  3.768853  0  0  0.023888  0  3.994006  0  0  0.020964  0  4.018793  0  0  -0.020996  0.025725  0  3.9774  0
C  C56  1  0.92383249  0.83942841  0.10999396  1  0  0.274365  0  3.806994  0  0  0.265062  0  4.064655  0  0  0.274701  0  4.081891  0  0  0.078156  0.258435  0  4.053022  0
C  C57  1  0.07616475  0.16056937  0.89000347  1  0  0.274436  0  3.80682  0  0  0.265096  0  4.064508  0  0  0.274736  0  4.081744  0  0  0.078188  0.25847  0  4.052873  0
C  C58  1  0.08107943  0.78823033  0.06724763  1  0  -0.219652  0  3.795946  0  0  -0.240278  0  4.054016  0  0  -0.246675  0  4.076368  0  0  -0.113504  -0.236058  0  4.039151  0
C  C59  1  0.91891193  0.21177053  0.93274983  1  0  -0.219675  0  3.795923  0  0  -0.240264  0  4.054002  0  0  -0.246663  0  4.076356  0  0  -0.113514  -0.236043  0  4.039136  0
C  C60  1  0.25273538  0.87922131  0.06693308  1  0  -0.064331  0  3.827984  0  0  -0.079751  0  4.08576  0  0  -0.079799  0  4.107255  0  0  -0.096648  -0.079472  0  4.070842  0
C  C61  1  0.74726088  0.12077752  0.93306734  1  0  -0.064384  0  3.828162  0  0  -0.079836  0  4.085925  0  0  -0.079888  0  4.107434  0  0  -0.096667  -0.079557  0  4.071007  0
C  C62  1  0.26896518  0.02219713  0.10912274  1  0  -0.128916  0  3.846908  0  0  -0.143214  0  4.102495  0  0  -0.147907  0  4.127177  0  0  -0.108907  -0.140099  0  4.085736  0
C  C63  1  0.73102942  0.97780067  0.89088001  1  0  -0.128897  0  3.846923  0  0  -0.143193  0  4.10256  0  0  -0.147885  0  4.127237  0  0  -0.108962  -0.140082  0  4.085806  0
C  C64  1  0.11122967  0.07254752  0.15219676  1  0  -0.125175  0  3.800711  0  0  -0.141801  0  4.045004  0  0  -0.143782  0  4.069059  0  0  -0.091891  -0.140334  0  4.028696  0
C  C65  1  0.88876835  0.92745236  0.84780578  1  0  -0.125149  0  3.80067  0  0  -0.141794  0  4.044945  0  0  -0.143772  0  4.06899  0  0  -0.091836  -0.140329  0  4.028639  0
O  O66  1  0.67928180  0.28836120  0.70472072  1  0  -0.676539  0  1.913014  0  0  -0.619501  0  2.138498  0  0  -0.6467  0  2.130878  0  0  -0.326773  -0.600285  0  2.142949  0
O  O67  1  0.32072265  0.71164594  0.29527970  1  0  -0.676572  0  1.913152  0  0  -0.619532  0  2.138574  0  0  -0.646732  0  2.130953  0  0  -0.32679  -0.600316  0  2.143028  0
O  O68  1  0.97826844  0.27306441  0.67117525  1  0  -0.671482  0  1.998879  0  0  -0.598525  0  2.223925  0  0  -0.628503  0  2.219164  0  0  -0.303066  -0.577212  0  2.226266  0
O  O69  1  0.02173789  0.72693968  0.32883134  1  0  -0.671495  0  1.998735  0  0  -0.598564  0  2.223783  0  0  -0.628536  0  2.219011  0  0  -0.30305  -0.577251  0  2.226122  0
O  O70  1  0.75316277  0.75392562  0.11237206  1  0  -0.519637  0  2.097274  0  0  -0.473508  0  2.313276  0  0  -0.489945  0  2.302423  0  0  -0.365756  -0.461755  0  2.320598  0
O  O71  1  0.24683188  0.24607312  0.88761678  1  0  -0.519766  0  2.097024  0  0  -0.47368  0  2.313022  0  0  -0.490109  0  2.302142  0  0  -0.36586  -0.461926  0  2.320349  0
O  O72  1  0.26225642  0.52419741  0.91854853  1  0  -0.532268  0  2.116008  0  0  -0.473705  0  2.319472  0  0  -0.489894  0  2.309145  0  0  -0.348586  -0.462185  0  2.326502  0
O  O73  1  0.73775032  0.47580774  0.08146194  1  0  -0.532274  0  2.115954  0  0  -0.473624  0  2.319345  0  0  -0.489805  0  2.309025  0  0  -0.34853  -0.462109  0  2.326381  0
O  O74  1  0.91351402  0.04260115  0.41017225  1  0  -0.674227  0  2.05251  0  0  -0.589714  0  2.287887  0  0  -0.623196  0  2.282125  0  0  -0.281936  -0.565781  0  2.291165  0
O  O75  1  0.08647401  0.95741103  0.58981896  1  0  -0.674086  0  2.052871  0  0  -0.589558  0  2.288043  0  0  -0.623078  0  2.282358  0  0  -0.281782  -0.565614  0  2.291297  0
O  O76  1  0.61289441  0.05132425  0.39876224  1  0  -0.688787  0  2.012766  0  0  -0.61345  0  2.256847  0  0  -0.646506  0  2.250608  0  0  -0.29086  -0.589707  0  2.260602  0
O  O77  1  0.38707788  0.94866091  0.60122217  1  0  -0.68862  0  2.012986  0  0  -0.613358  0  2.256959  0  0  -0.64641  0  2.250723  0  0  -0.290816  -0.589598  0  2.260668  0
O  O78  1  0.68204792  0.76085926  0.43912820  1  0  -0.846703  0  1.778459  0  0  -0.783933  0  1.94583  0  0  -0.806167  0  1.916633  0  0  -0.568605  -0.768033  0  1.96643  0
O  O79  1  0.31795196  0.23914263  0.56086521  1  0  -0.846579  0  1.77852  0  0  -0.783803  0  1.945864  0  0  -0.80604  0  1.916661  0  0  -0.568531  -0.767902  0  1.966463  0
