# generated using pymatgen
data_MnH21C24SN4O7
_symmetry_space_group_name_H-M   'P 1'
_cell_length_a   8.51376122
_cell_length_b   13.08699694
_cell_length_c   27.48636894
_cell_angle_alpha   92.45961331
_cell_angle_beta   90.02641213
_cell_angle_gamma   109.00159935
_symmetry_Int_Tables_number   1
_chemical_formula_structural   MnH21C24SN4O7
_chemical_formula_sum   'Mn4 H84 C96 S4 N16 O28'
_cell_volume   2892.63564643
_cell_formula_units_Z   4
loop_
 _symmetry_equiv_pos_site_id
 _symmetry_equiv_pos_as_xyz
  1  'x, y, z'
loop_
 _atom_site_type_symbol
 _atom_site_label
 _atom_site_symmetry_multiplicity
 _atom_site_fract_x
 _atom_site_fract_y
 _atom_site_fract_z
 _atom_site_occupancy
 _atom_site_pbe_bader_charge
 _atom_site_pbe_bader_spin_density
 _atom_site_pbe_cm5_charge
 _atom_site_pbe_ddec_charge
 _atom_site_pbe_ddec_spin_density
 _atom_site_pbe_ddec_sum_bond_order
 _atom_site_pbe_magmom
Mn  Mn0  1  0.66722921  0.54082886  0.20271379  1  1.510129  4.538143  0.602944  0.919245  4.673059  2.37082  4.467
Mn  Mn1  1  0.12644144  0.45916755  0.29717637  1  1.511739  4.534789  0.604681  0.920891  4.666755  2.372063  4.464
Mn  Mn2  1  0.33280212  0.45917052  0.79728078  1  1.510036  4.538155  0.602891  0.919196  4.673073  2.370935  4.467
Mn  Mn3  1  0.87356947  0.54083797  0.70282928  1  1.51194  4.534706  0.604722  0.920966  4.666622  2.37196  4.464
H  H4  1  0.93825847  0.58215555  0.15338268  1  0.62496  0.001025  0.284682  0.362355  0.001071  0.998352  0.002
H  H5  1  0.35615807  0.41805910  0.34671315  1  0.622625  0.001044  0.284524  0.362074  0.001069  0.998682  0.002
H  H6  1  0.06174424  0.41784531  0.84661630  1  0.624869  0.001024  0.284673  0.36232  0.00107  0.998421  0.002
H  H7  1  0.64384071  0.58194331  0.65328842  1  0.622651  0.001044  0.284543  0.362113  0.001069  0.998634  0.002
H  H8  1  0.99410388  0.53146187  0.20049264  1  0.64771  0.001975  0.293221  0.38235  0.000787  0.965489  0.003
H  H9  1  0.46280341  0.46875688  0.29959417  1  0.66622  0.001872  0.293129  0.382357  0.000791  0.965792  0.003
H  H10  1  0.00589804  0.46853976  0.79950745  1  0.647774  0.001973  0.293235  0.382352  0.000786  0.965486  0.003
H  H11  1  0.53720002  0.53124309  0.70040770  1  0.666217  0.001871  0.293091  0.382327  0.00079  0.965847  0.003
H  H12  1  0.04503326  0.49719400  0.09896694  1  0.50993  0.000117  0.305746  0.293799  9.7e-05  0.988567  0.0
H  H13  1  0.54830849  0.50285791  0.40112944  1  0.520908  0.000114  0.305777  0.294227  9.7e-05  0.988132  0.0
H  H14  1  0.95496906  0.50280844  0.90103354  1  0.509916  0.000117  0.305728  0.293859  9.7e-05  0.988461  0.0
H  H15  1  0.45169072  0.49714536  0.59887033  1  0.521048  0.000114  0.305778  0.294246  9.7e-05  0.988126  0.0
H  H16  1  0.29168086  0.60562233  0.13416503  1  0.126213  0.000794  0.116854  0.116833  0.000411  1.018844  0.0
H  H17  1  0.68576501  0.39419754  0.36575686  1  0.136667  0.000779  0.116562  0.116702  0.000406  1.01878  0.0
H  H18  1  0.70832027  0.39438008  0.86583654  1  0.12623  0.000794  0.116844  0.116817  0.000411  1.018858  0.0
H  H19  1  0.31424043  0.60580645  0.63424585  1  0.13667  0.000779  0.116561  0.116677  0.000406  1.018761  0.0
H  H20  1  0.37620275  0.50065784  0.12380818  1  0.09295  0.000965  0.110839  0.105329  0.000333  1.03936  0.0
H  H21  1  0.87551660  0.49900684  0.37606367  1  0.110736  0.000941  0.111321  0.106145  0.000324  1.038954  0.0
H  H22  1  0.62379996  0.49934539  0.87619304  1  0.092768  0.000966  0.110847  0.105343  0.000333  1.039339  0.0
H  H23  1  0.12448624  0.50100368  0.62393702  1  0.110341  0.000941  0.111335  0.106127  0.000324  1.039075  0.0
H  H24  1  0.41312553  0.31214820  0.08554957  1  0.096895  5.2e-05  0.104044  0.106166  -0.000123  1.029689  0.0
H  H25  1  0.10215974  0.68722879  0.41458295  1  0.09828  5.8e-05  0.104108  0.106362  -0.000117  1.029812  0.0
H  H26  1  0.58688709  0.68786075  0.91444962  1  0.096858  5.2e-05  0.104076  0.106238  -0.000123  1.029703  0.0
H  H27  1  0.89783482  0.31277927  0.58541877  1  0.098095  5.8e-05  0.104147  0.106399  -0.000117  1.029732  0.0
H  H28  1  0.60794726  0.33327625  0.01575204  1  0.090889  1.6e-05  0.108497  0.116095  -9e-06  0.977978  0.0
H  H29  1  0.27542220  0.66616875  0.48454829  1  0.092245  1.8e-05  0.108021  0.114987  -7e-06  0.978548  0.0
H  H30  1  0.39205833  0.66673273  0.98424642  1  0.090726  1.6e-05  0.108478  0.116098  -9e-06  0.977901  0.0
H  H31  1  0.72457271  0.33383766  0.51545484  1  0.092449  1.8e-05  0.107972  0.114951  -7e-06  0.978526  0.0
H  H32  1  0.52457571  0.38008818  0.93462108  1  0.100823  0.000248  0.107343  0.107818  -2.5e-05  1.025043  0.0
H  H33  1  0.14495034  0.62000822  0.56565965  1  0.11078  0.000248  0.10704  0.107333  -2.5e-05  1.025829  0.0
H  H34  1  0.47542389  0.61991351  0.06537720  1  0.100881  0.000248  0.107362  0.107836  -2.5e-05  1.025025  0.0
H  H35  1  0.85503551  0.37999417  0.43434228  1  0.110839  0.000249  0.107061  0.107376  -2.5e-05  1.025963  0.0
H  H36  1  0.05867643  0.38522619  0.99250247  1  0.140083  6.8e-05  0.109388  0.120503  2.7e-05  1.001058  0.0
H  H37  1  0.67425192  0.61479138  0.50741574  1  0.142048  6.7e-05  0.109875  0.121709  2.7e-05  1.000881  0.0
H  H38  1  0.94132074  0.61477064  0.00749604  1  0.140043  6.8e-05  0.109404  0.120534  2.7e-05  1.001  0.0
H  H39  1  0.32573541  0.38520222  0.49258231  1  0.142175  6.7e-05  0.109847  0.121671  2.7e-05  1.000867  0.0
H  H40  1  0.39962080  0.32641743  0.23918161  1  0.132447  0.001152  0.122406  0.097267  0.000153  1.016655  0.001
H  H41  1  0.07267534  0.67334490  0.26090278  1  0.124205  0.001181  0.122394  0.096853  0.000167  1.016493  0.001
H  H42  1  0.60037908  0.67358013  0.76081946  1  0.132552  0.001152  0.122422  0.097251  0.000153  1.016595  0.001
H  H43  1  0.92732660  0.32665911  0.73909920  1  0.124181  0.001181  0.122327  0.096793  0.000167  1.016575  0.001
H  H44  1  0.31503115  0.12859246  0.22414728  1  0.075095  0.00063  0.102066  0.102639  0.000339  1.03185  0.0
H  H45  1  0.18634585  0.87117404  0.27589564  1  0.036299  0.000691  0.101992  0.10247  0.000376  1.031205  0.0
H  H46  1  0.68497108  0.87140510  0.77585379  1  0.075054  0.00063  0.102056  0.102614  0.000339  1.031884  0.0
H  H47  1  0.81364977  0.12882910  0.72410850  1  0.036362  0.000691  0.101987  0.102515  0.000376  1.0311  0.0
H  H48  1  0.68956859  0.18605143  0.11219482  1  0.105955  0.000504  0.108072  0.123331  0.000254  1.028221  0.0
H  H49  1  0.50356514  0.81359329  0.38784733  1  0.105723  0.000514  0.108102  0.12354  0.000257  1.028834  0.0
H  H50  1  0.31043174  0.81394938  0.88780598  1  0.105917  0.000504  0.108088  0.123346  0.000254  1.028238  0.0
H  H51  1  0.49643953  0.18640914  0.61215314  1  0.105631  0.000514  0.10812  0.123592  0.000257  1.028794  0.0
H  H52  1  0.75974960  0.37880066  0.13288234  1  0.119711  0.001353  0.118527  0.084624  0.000906  1.029289  0.001
H  H53  1  0.38081302  0.62085632  0.36714729  1  0.126181  0.001382  0.118923  0.085093  0.000931  1.028373  0.001
H  H54  1  0.24025034  0.62119936  0.86711771  1  0.119689  0.001352  0.118533  0.084657  0.000905  1.02934  0.001
H  H55  1  0.61919948  0.37914535  0.63285172  1  0.126224  0.001381  0.118877  0.085068  0.00093  1.028415  0.001
H  H56  1  0.21638589  0.97201904  0.19484718  1  0.049057  0.000146  0.097705  0.095215  0.000104  1.052827  0.0
H  H57  1  0.24532651  0.02800004  0.30508101  1  0.051151  0.000218  0.097574  0.095164  0.000163  1.052799  0.0
H  H58  1  0.78362568  0.02797840  0.80515790  1  0.04905  0.000146  0.09769  0.095226  0.000104  1.052823  0.0
H  H59  1  0.75467471  0.97200723  0.69492032  1  0.051463  0.000218  0.097571  0.095135  0.000163  1.052822  0.0
H  H60  1  0.15409408  0.77566867  0.17634141  1  0.123019  0.000498  0.109149  0.078833  7.4e-05  1.017067  0.0
H  H61  1  0.37972647  0.22427531  0.32380533  1  0.119567  0.000511  0.109686  0.079649  9.1e-05  1.015984  0.0
H  H62  1  0.84591441  0.22432965  0.82366114  1  0.123033  0.000498  0.109134  0.07888  7.3e-05  1.017088  0.0
H  H63  1  0.62028504  0.77573610  0.67619284  1  0.119482  0.000511  0.109651  0.079582  9.1e-05  1.016007  0.0
H  H64  1  0.58524291  0.82761364  0.09784864  1  0.068676  9.4e-05  0.110774  0.075267  3.1e-05  0.998209  0.0
H  H65  1  0.75769688  0.17166469  0.40273587  1  0.102329  9.2e-05  0.110421  0.074944  2.8e-05  0.998201  0.0
H  H66  1  0.41475313  0.17238563  0.90214920  1  0.069129  9.4e-05  0.110784  0.075305  3.1e-05  0.998169  0.0
H  H67  1  0.24230154  0.82833934  0.59726538  1  0.102346  9.2e-05  0.110436  0.074919  2.8e-05  0.998234  0.0
H  H68  1  0.66935283  0.02554116  0.11366708  1  0.079292  0.000163  0.108793  0.114727  0.000114  1.005656  0.0
H  H69  1  0.64330045  0.97380724  0.38682799  1  0.075452  0.000171  0.108722  0.115092  0.00011  1.00581  0.0
H  H70  1  0.33064984  0.97445730  0.88633111  1  0.079211  0.000163  0.108783  0.114744  0.000114  1.005682  0.0
H  H71  1  0.35669882  0.02620083  0.61317337  1  0.075419  0.000171  0.108706  0.115079  0.00011  1.005774  0.0
H  H72  1  0.66197231  0.69637380  0.29044640  1  0.141154  0.001172  0.121106  0.094299  0.000348  1.024144  0.001
H  H73  1  0.96603701  0.30413926  0.20936101  1  0.140922  0.001185  0.121279  0.094591  0.000369  1.024572  0.001
H  H74  1  0.33803506  0.30362463  0.70955288  1  0.141283  0.001172  0.121107  0.094344  0.000349  1.024054  0.001
H  H75  1  0.03395742  0.69585680  0.79063602  1  0.140889  0.001187  0.121277  0.094584  0.000369  1.024559  0.001
H  H76  1  0.76712460  0.89127578  0.31573199  1  0.104303  0.000665  0.10686  0.111652  0.000365  1.022643  0.0
H  H77  1  0.87648920  0.10933439  0.18395541  1  0.102467  0.000673  0.106693  0.111668  0.000367  1.022511  0.0
H  H78  1  0.23288200  0.10872347  0.68426659  1  0.104191  0.000665  0.10683  0.111607  0.000365  1.022681  0.0
H  H79  1  0.12349897  0.89066088  0.81604087  1  0.10236  0.000672  0.106673  0.111619  0.000367  1.022593  0.0
H  H80  1  0.92708933  0.95628770  0.16733699  1  0.085018  0.000852  0.110796  0.118179  0.000485  0.997231  0.0
H  H81  1  0.97125319  0.04404523  0.33237214  1  0.089589  0.000874  0.110621  0.118024  0.000497  0.997094  0.0
H  H82  1  0.07290860  0.04370594  0.83265962  1  0.084677  0.000852  0.110801  0.118162  0.000485  0.997229  0.0
H  H83  1  0.02874599  0.95595330  0.66762386  1  0.089481  0.000874  0.110629  0.118016  0.000497  0.99719  0.0
H  H84  1  0.81521103  0.75786475  0.14876237  1  0.111625  0.001314  0.1208  0.087802  0.00061  1.006402  0.001
H  H85  1  0.05726673  0.24238413  0.35106374  1  0.116971  0.001318  0.120859  0.087617  0.000613  1.007014  0.001
H  H86  1  0.18478451  0.24212884  0.85123642  1  0.11184  0.001314  0.120825  0.087789  0.000609  1.006351  0.001
H  H87  1  0.94273910  0.75761358  0.64893225  1  0.116801  0.001318  0.120878  0.08763  0.000613  1.00693  0.001
C  C88  1  0.27580320  0.50781655  0.19465519  1  1.577119  0.015979  0.231202  0.630479  0.016122  4.097969  0.015
C  C89  1  0.76770764  0.49220317  0.30528218  1  1.572188  0.015853  0.231312  0.630259  0.016011  4.100382  0.014
C  C90  1  0.72419595  0.49218423  0.80534633  1  1.57667  0.015995  0.2313  0.630665  0.016137  4.097825  0.015
C  C91  1  0.23229266  0.50779522  0.69471818  1  1.572175  0.015858  0.231329  0.630305  0.016016  4.100418  0.014
C  C92  1  0.26929231  0.51878452  0.13974997  1  0.276892  0.003306  -0.068965  -0.167922  0.002264  3.916076  0.002
C  C93  1  0.75037068  0.48100395  0.36018428  1  0.26451  0.003302  -0.069359  -0.16833  0.002254  3.915194  0.002
C  C94  1  0.73070527  0.48121547  0.86025117  1  0.276961  0.003307  -0.069004  -0.167956  0.002265  3.916091  0.002
C  C95  1  0.24963167  0.51900089  0.63981699  1  0.265011  0.003303  -0.069401  -0.168344  0.002255  3.915402  0.002
C  C96  1  0.22670590  0.34878034  0.04312581  1  -0.26146  8.1e-05  -0.023879  -0.09987  1.1e-05  4.001866  0.0
C  C97  1  0.87892823  0.65097460  0.45688937  1  -0.185051  9.2e-05  -0.02381  -0.099719  3.2e-05  4.001965  0.0
C  C98  1  0.77329486  0.65122132  0.95687356  1  -0.261547  8.1e-05  -0.023855  -0.099803  1.1e-05  4.001912  0.0
C  C99  1  0.12106704  0.34902781  0.54311183  1  -0.185457  9.2e-05  -0.023831  -0.099843  3.2e-05  4.001797  0.0
C  C100  1  0.38023174  0.33365889  0.05006215  1  0.024752  0.001167  -0.078826  -0.074727  0.000819  3.963769  0.001
C  C101  1  0.04752272  0.66585986  0.45004460  1  -0.030672  0.001152  -0.078947  -0.075324  0.000804  3.964904  0.001
C  C102  1  0.61977063  0.66634601  0.94993730  1  0.024719  0.001167  -0.078761  -0.074712  0.000819  3.963587  0.001
C  C103  1  0.95246862  0.33414175  0.54995658  1  -0.030331  0.001152  -0.079039  -0.075361  0.000805  3.964777  0.001
C  C104  1  0.48793256  0.34511366  0.01079305  1  -0.047416  -0.000139  -0.086388  -0.080049  -0.000187  3.987534  0.0
C  C105  1  0.14357406  0.65450291  0.48940509  1  -0.054996  -0.000134  -0.085639  -0.078065  -0.000183  3.986942  0.0
C  C106  1  0.51206900  0.65488961  0.98920636  1  -0.047258  -0.000139  -0.086433  -0.080122  -0.000187  3.987315  0.0
C  C107  1  0.85641496  0.34550110  0.51059689  1  -0.054894  -0.000134  -0.085609  -0.078041  -0.000183  3.986922  0.0
C  C108  1  0.44196345  0.37142063  0.96550586  1  -0.074817  0.001229  -0.077218  -0.082524  0.00077  3.950942  0.001
C  C109  1  0.07114176  0.62847408  0.53467828  1  -0.02445  0.001205  -0.0775  -0.08312  0.000751  3.950779  0.001
C  C110  1  0.55803573  0.62858022  0.03449348  1  -0.074823  0.001229  -0.077238  -0.082577  0.000771  3.950986  0.001
C  C111  1  0.92884683  0.37152674  0.46532215  1  -0.024803  0.001205  -0.077486  -0.08316  0.000752  3.950834  0.001
C  C112  1  0.28784853  0.38684092  0.95888306  1  -0.039883  0.001677  -0.019939  -0.041852  0.001077  3.98564  0.001
C  C113  1  0.90157882  0.61317955  0.54118755  1  -0.007861  0.001675  -0.019548  -0.040566  0.001094  3.984098  0.001
C  C114  1  0.71215024  0.61315911  0.04111663  1  -0.03989  0.001677  -0.019955  -0.041799  0.001077  3.985598  0.001
C  C115  1  0.09840582  0.38681806  0.45881207  1  -0.007891  0.001674  -0.01961  -0.040705  0.001094  3.984298  0.001
C  C116  1  0.17951155  0.37516898  0.99796987  1  0.04129  0.001742  -0.076318  -0.097237  0.001377  3.945549  0.001
C  C117  1  0.80511194  0.62475512  0.50201040  1  -0.06141  0.001735  -0.077419  -0.099782  0.001356  3.947488  0.001
C  C118  1  0.82048682  0.62483027  0.00202906  1  0.041374  0.001743  -0.076309  -0.097286  0.001377  3.94549  0.001
C  C119  1  0.19487423  0.37524086  0.49798917  1  -0.061219  0.001735  -0.077323  -0.099595  0.001357  3.947291  0.001
C  C120  1  0.23618110  0.41415800  0.91011210  1  1.564137  0.006717  0.211203  0.56772  0.006208  4.217026  0.006
C  C121  1  0.82240053  0.58598013  0.58993009  1  1.557291  0.006629  0.212151  0.566982  0.006161  4.217323  0.006
C  C122  1  0.76381489  0.58583884  0.08988605  1  1.564194  0.006718  0.211216  0.567713  0.006209  4.217085  0.006
C  C123  1  0.17759113  0.41401743  0.41007098  1  1.557259  0.006632  0.212035  0.566828  0.006163  4.217472  0.006
C  C124  1  0.46114390  0.29150881  0.21142862  1  0.440214  0.008764  0.056756  0.111006  0.006487  3.912835  0.006
C  C125  1  0.16931563  0.70824306  0.28862823  1  0.429759  0.008981  0.056932  0.111923  0.006633  3.911749  0.006
C  C126  1  0.53885405  0.70848959  0.78857175  1  0.439792  0.008765  0.056722  0.111014  0.006487  3.912655  0.006
C  C127  1  0.83068625  0.29175850  0.71137441  1  0.429638  0.008979  0.057005  0.111919  0.006632  3.911762  0.006
C  C128  1  0.41422186  0.18015034  0.20255766  1  -0.000695  -0.00092  -0.080517  -0.162316  -0.001468  3.929003  -0.001
C  C129  1  0.23409233  0.81961810  0.29745506  1  0.083214  -0.000951  -0.080864  -0.162438  -0.001528  3.927404  -0.001
C  C130  1  0.58577767  0.81984887  0.79744237  1  -0.000624  -0.00092  -0.080503  -0.162246  -0.001469  3.92892  -0.001
C  C131  1  0.76590447  0.18038505  0.70254871  1  0.083201  -0.000951  -0.080898  -0.162524  -0.001528  3.927258  -0.001
C  C132  1  0.49476065  0.13646849  0.16675825  1  0.017021  0.007403  0.01272  0.104283  0.005685  3.968893  0.005
C  C133  1  0.35837095  0.86324974  0.33329323  1  -0.037054  0.007886  0.012151  0.102935  0.006055  3.96998  0.005
C  C134  1  0.50524005  0.86353069  0.83324251  1  0.017052  0.007403  0.012798  0.104313  0.005685  3.968872  0.005
C  C135  1  0.64162906  0.13675747  0.66670992  1  -0.037219  0.007885  0.012118  0.102973  0.006055  3.96972  0.005
C  C136  1  0.62094244  0.21078106  0.14120219  1  -0.002191  -0.001053  -0.081574  -0.174485  -0.001639  3.928326  -0.001
C  C137  1  0.41017485  0.78887560  0.35882944  1  0.002958  -0.001015  -0.081936  -0.174889  -0.001622  3.929581  -0.001
C  C138  1  0.37905357  0.78921817  0.85879748  1  -0.002215  -0.001053  -0.081611  -0.174502  -0.001639  3.928405  -0.001
C  C139  1  0.58983261  0.21113007  0.64117113  1  0.010019  -0.00102  -0.082004  -0.175051  -0.001622  3.929293  -0.001
C  C140  1  0.66135464  0.32088611  0.15245713  1  0.446981  0.008469  0.053714  0.102424  0.006734  3.943401  0.006
C  C141  1  0.34024812  0.67878468  0.34759750  1  0.44784  0.008783  0.053889  0.10246  0.006992  3.942056  0.006
C  C142  1  0.33864137  0.67911310  0.84754290  1  0.447007  0.008469  0.053704  0.102364  0.006733  3.943493  0.006
C  C143  1  0.65976287  0.32122100  0.65240270  1  0.440864  0.008788  0.054089  0.102612  0.006991  3.941993  0.006
C  C144  1  0.45058799  0.01835179  0.15636294  1  -0.029145  -0.00043  0.007601  0.100633  -0.00055  3.976191  -0.001
C  C145  1  0.43243693  0.98131569  0.34380685  1  -0.023661  -0.000154  0.007935  0.101801  -0.000275  3.976736  0.0
C  C146  1  0.54942055  0.98164899  0.84363895  1  -0.028964  -0.000429  0.007497  0.100568  -0.00055  3.976212  -0.001
C  C147  1  0.56755912  0.01868828  0.65619621  1  -0.023895  -0.000154  0.007903  0.101691  -0.000275  3.976598  0.0
C  C148  1  0.30414502  0.94434371  0.17368421  1  -0.115528  0.001921  -0.089835  -0.183427  0.001491  3.957636  0.001
C  C149  1  0.36051431  0.05550647  0.32639807  1  -0.082947  0.001792  -0.089481  -0.18252  0.001387  3.95858  0.001
C  C150  1  0.69586814  0.05565457  0.82631980  1  -0.115443  0.001921  -0.089822  -0.183458  0.001491  3.957703  0.001
C  C151  1  0.63948451  0.94449834  0.67360393  1  -0.083322  0.001791  -0.089443  -0.182439  0.001387  3.958539  0.001
C  C152  1  0.26794487  0.83386920  0.16304484  1  0.535768  8.1e-05  0.042082  0.0922  -1.1e-05  3.986585  0.0
C  C153  1  0.43504237  0.16593967  0.33714714  1  0.538564  0.000132  0.041577  0.090938  1.6e-05  3.98645  0.0
C  C154  1  0.73206437  0.16612829  0.83695842  1  0.535841  8.1e-05  0.042093  0.092094  -1.1e-05  3.986734  0.0
C  C155  1  0.56496314  0.83406681  0.66285344  1  0.538671  0.000132  0.041557  0.090999  1.6e-05  3.986396  0.0
C  C156  1  0.50630568  0.86247941  0.11965358  1  0.568516  -0.000297  0.042777  0.08863  -0.000407  4.013595  0.0
C  C157  1  0.64403806  0.13696190  0.38080254  1  0.536376  -0.000341  0.042669  0.089619  -0.000464  4.016668  0.0
C  C158  1  0.49369504  0.13751985  0.88034500  1  0.568147  -0.000297  0.042779  0.088634  -0.000406  4.013642  0.0
C  C159  1  0.35595924  0.86304458  0.61919805  1  0.536453  -0.000341  0.042648  0.089695  -0.000464  4.016312  0.0
C  C160  1  0.55318367  0.97413252  0.12852473  1  -0.092719  0.001707  -0.086167  -0.181007  0.001331  3.952988  0.001
C  C161  1  0.57894465  0.02533897  0.37187340  1  -0.117663  0.002131  -0.085883  -0.182658  0.00166  3.955194  0.001
C  C162  1  0.44681705  0.02586671  0.87147457  1  -0.09267  0.001707  -0.086145  -0.180998  0.001331  3.95298  0.001
C  C163  1  0.42105575  0.97466666  0.62812862  1  -0.117462  0.002131  -0.085778  -0.182545  0.001659  3.95491  0.001
C  C164  1  0.72041090  0.75697264  0.26429843  1  0.41734  0.00913  0.058881  0.112686  0.006995  3.91319  0.005
C  C165  1  0.96383850  0.24347580  0.23547490  1  0.555415  0.008958  0.059066  0.113922  0.00697  3.911601  0.005
C  C166  1  0.27958939  0.24302338  0.73570006  1  0.417228  0.009128  0.058929  0.112742  0.006993  3.913117  0.005
C  C167  1  0.03615750  0.75651871  0.76451991  1  0.556144  0.008963  0.059158  0.11404  0.006975  3.911294  0.005
C  C168  1  0.78119935  0.86616952  0.27817222  1  0.014507  0.002187  -0.080608  -0.16493  0.001468  3.933654  0.001
C  C169  1  0.91556043  0.13432606  0.22154139  1  -0.122406  0.001976  -0.080396  -0.166089  0.001079  3.933557  0.001
C  C170  1  0.21880058  0.13382814  0.72182558  1  0.014352  0.00219  -0.080572  -0.164923  0.00147  3.933847  0.001
C  C171  1  0.08443437  0.86566840  0.77845523  1  -0.122498  0.001976  -0.080378  -0.166023  0.001078  3.933423  0.001
C  C172  1  0.85569066  0.94183617  0.24346235  1  -0.051345  0.008997  0.004665  0.090822  0.006903  4.012483  0.005
C  C173  1  0.91422311  0.05858327  0.25624136  1  0.007293  0.009147  0.004976  0.091315  0.007098  4.012228  0.005
C  C174  1  0.14430061  0.05815828  0.75653427  1  -0.051921  0.008994  0.004677  0.090885  0.006901  4.012673  0.005
C  C175  1  0.08577524  0.94141359  0.74375605  1  0.007025  0.009156  0.00501  0.091255  0.007105  4.012251  0.005
C  C176  1  0.86856307  0.90196474  0.19589793  1  0.0057  0.002145  -0.086364  -0.19095  0.001449  3.983935  0.001
C  C177  1  0.96698708  0.09838245  0.30382310  1  0.052593  0.001959  -0.086815  -0.190919  0.001316  3.982784  0.001
C  C178  1  0.13143170  0.09802730  0.80409826  1  0.006598  0.002149  -0.086415  -0.191024  0.001453  3.983874  0.001
C  C179  1  0.03301247  0.90161446  0.69617286  1  0.052965  0.001957  -0.086823  -0.190879  0.001314  3.982624  0.001
C  C180  1  0.80655383  0.79136756  0.18527056  1  0.459262  0.007486  0.05251  0.09732  0.005713  3.965945  0.005
C  C181  1  0.01535795  0.20894556  0.31451944  1  0.39303  0.008028  0.053031  0.097742  0.006098  3.964476  0.005
C  C182  1  0.19344172  0.20862605  0.81472750  1  0.459798  0.007483  0.052536  0.097484  0.005712  3.965692  0.005
C  C183  1  0.98464553  0.79105216  0.68547654  1  0.392888  0.008034  0.053068  0.097886  0.006102  3.964253  0.005
S  S184  1  0.08676538  0.33520219  0.09232274  1  2.959117  0.000255  0.550794  1.079458  0.00024  5.997165  0.0
S  S185  1  0.75275511  0.66471538  0.40761154  1  2.969596  0.000252  0.551541  1.081488  0.000239  5.995879  0.0
S  S186  1  0.91323968  0.66480102  0.90767885  1  2.959131  0.000255  0.550775  1.079396  0.00024  5.997055  0.0
S  S187  1  0.24723782  0.33528706  0.59238893  1  2.969442  0.000252  0.551643  1.081648  0.000239  5.995636  0.0
N  N188  1  0.11314524  0.45615894  0.11563515  1  -1.331429  0.001228  -0.464351  -0.467387  0.000382  3.503937  0.0
N  N189  1  0.65732746  0.54375704  0.38438002  1  -1.361914  0.001238  -0.463948  -0.467957  0.000386  3.503754  0.0
N  N190  1  0.88685551  0.54384272  0.88436421  1  -1.330866  0.001228  -0.464314  -0.467451  0.000382  3.503692  0.0
N  N191  1  0.34266901  0.45624544  0.61561900  1  -1.361897  0.001238  -0.463912  -0.467963  0.000386  3.503734  0.0
N  N192  1  0.58382416  0.36175262  0.18703574  1  -1.26147  0.048714  -0.31509  -0.249328  0.03228  3.491616  0.013
N  N193  1  0.22149057  0.63794642  0.31307294  1  -1.25125  0.049049  -0.315748  -0.249877  0.032363  3.493279  0.013
N  N194  1  0.41616829  0.63824417  0.81296422  1  -1.261284  0.048739  -0.31508  -0.249352  0.032282  3.491553  0.013
N  N195  1  0.77851607  0.36205761  0.68692831  1  -1.251172  0.049048  -0.315801  -0.249758  0.032359  3.493244  0.013
N  N196  1  0.36651915  0.79205928  0.13641424  1  -1.187955  0.002086  -0.310332  -0.243278  0.001508  3.30264  0.002
N  N197  1  0.57521475  0.20754786  0.36393788  1  -1.197428  0.002315  -0.311072  -0.244595  0.001682  3.304723  0.002
N  N198  1  0.63348391  0.20793994  0.86358543  1  -1.188317  0.002087  -0.3103  -0.243239  0.001508  3.302768  0.002
N  N199  1  0.42478880  0.79245703  0.63606157  1  -1.197278  0.002315  -0.311096  -0.244714  0.001682  3.304535  0.002
N  N200  1  0.73214569  0.71967775  0.21854967  1  -1.260003  0.053127  -0.311555  -0.224178  0.035895  3.469807  0.021
N  N201  1  0.01251148  0.28066413  0.28127305  1  -1.266176  0.053217  -0.312286  -0.224567  0.035576  3.469554  0.02
N  N202  1  0.26785300  0.28031743  0.78144989  1  -1.260396  0.053128  -0.311656  -0.224399  0.035897  3.469723  0.021
N  N203  1  0.98749319  0.71933361  0.71872220  1  -1.266462  0.053228  -0.312448  -0.224815  0.03558  3.469681  0.02
O  O204  1  0.41660779  0.53209234  0.21506111  1  -1.208944  0.06636  -0.303038  -0.547391  0.047237  2.351468  0.032
O  O205  1  0.88421097  0.46801386  0.28484709  1  -1.205378  0.066126  -0.302756  -0.546988  0.047189  2.349961  0.032
O  O206  1  0.58339170  0.46790443  0.78493921  1  -1.208825  0.066356  -0.303027  -0.547374  0.04725  2.351522  0.032
O  O207  1  0.11579009  0.53198372  0.71515325  1  -1.205416  0.066145  -0.3028  -0.547057  0.047198  2.350008  0.032
O  O208  1  0.13994757  0.47915207  0.21821957  1  -1.214864  0.066598  -0.299685  -0.554159  0.047674  2.366517  0.033
O  O209  1  0.66050563  0.52100504  0.28176560  1  -1.214928  0.066029  -0.29988  -0.55469  0.04717  2.368161  0.033
O  O210  1  0.86005040  0.52084873  0.78178159  1  -1.214824  0.066625  -0.299697  -0.554264  0.047688  2.366691  0.033
O  O211  1  0.33949310  0.47899256  0.71823402  1  -1.214975  0.066042  -0.29983  -0.554631  0.047175  2.368366  0.033
O  O212  1  0.13676953  0.27461080  0.12866720  1  -1.322751  0.000307  -0.322841  -0.543665  2.7e-05  2.165229  0.0
O  O213  1  0.86359247  0.72487392  0.37121794  1  -1.321233  0.000307  -0.323886  -0.544981  2.2e-05  2.164991  0.0
O  O214  1  0.86324658  0.72539807  0.87133454  1  -1.322722  0.000307  -0.322908  -0.543774  2.7e-05  2.165283  0.0
O  O215  1  0.13640129  0.27513253  0.62878337  1  -1.32127  0.000307  -0.323836  -0.544889  2.2e-05  2.164873  0.0
O  O216  1  0.91975667  0.29744083  0.07180814  1  -1.320886  0.000147  -0.326269  -0.553171  2.5e-05  2.169438  0.0
O  O217  1  0.62405457  0.70301760  0.42805656  1  -1.320019  0.000141  -0.326025  -0.552881  2.1e-05  2.169254  0.0
O  O218  1  0.08024667  0.70255424  0.92819505  1  -1.320944  0.000147  -0.326241  -0.553066  2.5e-05  2.169333  0.0
O  O219  1  0.37594225  0.29698559  0.57194575  1  -1.320007  0.000141  -0.326181  -0.553069  2.1e-05  2.16918  0.0
O  O220  1  0.08680043  0.41325659  0.90495589  1  -1.186248  0.005293  -0.322978  -0.5598  0.003193  2.198806  0.004
O  O221  1  0.67375790  0.58662364  0.59496319  1  -1.187408  0.005274  -0.32404  -0.560506  0.003179  2.197172  0.004
O  O222  1  0.91319596  0.58674104  0.09504264  1  -1.186299  0.005295  -0.322973  -0.559799  0.003194  2.198864  0.004
O  O223  1  0.32623293  0.41337226  0.40503930  1  -1.18771  0.005277  -0.323904  -0.560348  0.003181  2.197193  0.004
O  O224  1  0.34444209  0.43397229  0.87667778  1  -1.19932  0.053532  -0.309367  -0.566045  0.039415  2.318177  0.025
O  O225  1  0.91085471  0.56645586  0.62346805  1  -1.206467  0.053622  -0.30937  -0.565204  0.039516  2.319483  0.026
O  O226  1  0.65555706  0.56602617  0.12332041  1  -1.199251  0.053535  -0.309391  -0.566064  0.039422  2.318219  0.025
O  O227  1  0.08913652  0.43353848  0.37653222  1  -1.20618  0.053611  -0.309366  -0.565159  0.039521  2.319587  0.026
O  O228  1  0.93060062  0.57902417  0.18998116  1  -1.297376  0.064045  -0.583169  -0.782181  0.046915  2.194187  0.029
O  O229  1  0.35165125  0.42120527  0.31010947  1  -1.311531  0.063881  -0.583176  -0.782319  0.046849  2.193847  0.029
O  O230  1  0.06939892  0.42097508  0.81001777  1  -1.297296  0.063996  -0.583205  -0.782197  0.0469  2.194103  0.029
O  O231  1  0.64834947  0.57879631  0.68989244  1  -1.311605  0.063876  -0.583159  -0.78233  0.046842  2.193755  0.029
