# generated using pymatgen
data_CdH10C12N4O7
_symmetry_space_group_name_H-M   'P 1'
_cell_length_a   6.97681660
_cell_length_b   9.55963256
_cell_length_c   20.82730000
_cell_angle_alpha   90.00000000
_cell_angle_beta   93.28277782
_cell_angle_gamma   90.00000000
_symmetry_Int_Tables_number   1
_chemical_formula_structural   CdH10C12N4O7
_chemical_formula_sum   'Cd4 H40 C48 N16 O28'
_cell_volume   1386.81410166
_cell_formula_units_Z   4
loop_
 _symmetry_equiv_pos_site_id
 _symmetry_equiv_pos_as_xyz
  1  'x, y, z'
loop_
 _atom_site_type_symbol
 _atom_site_label
 _atom_site_symmetry_multiplicity
 _atom_site_fract_x
 _atom_site_fract_y
 _atom_site_fract_z
 _atom_site_occupancy
 _atom_site_hle17_bader_spin_density
 _atom_site_hle17_ddec_charge
 _atom_site_hle17_ddec_spin_density
 _atom_site_hle17_ddec_sum_bond_order
 _atom_site_hle17_magmom
 _atom_site_hse06_10hf_bader_spin_density
 _atom_site_hse06_10hf_ddec_charge
 _atom_site_hse06_10hf_ddec_spin_density
 _atom_site_hse06_10hf_ddec_sum_bond_order
 _atom_site_hse06_10hf_magmom
 _atom_site_hse06_bader_spin_density
 _atom_site_hse06_ddec_charge
 _atom_site_hse06_ddec_spin_density
 _atom_site_hse06_ddec_sum_bond_order
 _atom_site_hse06_magmom
 _atom_site_pbe_bader_charge
 _atom_site_pbe_bader_spin_density
 _atom_site_pbe_cm5_charge
 _atom_site_pbe_ddec_charge
 _atom_site_pbe_ddec_spin_density
 _atom_site_pbe_ddec_sum_bond_order
 _atom_site_pbe_magmom
Cd  Cd0  1  0.70033053  0.41459962  0.28363667  1  0  1.146657  0  1.616741  0  0  0.944959  0  2.063665  0  0  1.004353  0  2.008726  0  1.316066  0  0.784986  0.902314  0  2.1015  0
Cd  Cd1  1  0.29966973  0.91460105  0.21636429  1  0  1.14667  0  1.616725  0  0  0.945  0  2.063608  0  0  1.004376  0  2.008701  0  1.316066  0  0.784998  0.902355  0  2.101444  0
Cd  Cd2  1  0.29966973  0.58539907  0.71636333  1  0  1.146688  0  1.616673  0  0  0.944989  0  2.063591  0  0  1.004383  0  2.008651  0  1.316081  0  0.785011  0.902343  0  2.101425  0
Cd  Cd3  1  0.70033053  0.08539763  0.78363715  1  0  1.14666  0  1.616719  0  0  0.944952  0  2.06365  0  0  1.004355  0  2.008695  0  1.31605  0  0.784984  0.902307  0  2.101486  0
H  H4  1  0.76356050  0.75891201  0.28461815  1  0  0.076133  0  0.957093  0  0  0.083684  0  1.025526  0  0  0.08584  0  1.022919  0  0.127809  0  0.115053  0.082042  0  1.027441  0
H  H5  1  0.23643402  0.25891581  0.21538174  1  0  0.076136  0  0.957086  0  0  0.083677  0  1.025514  0  0  0.085834  0  1.022905  0  0.127805  0  0.115062  0.082025  0  1.027438  0
H  H6  1  0.23643546  0.24108563  0.71538081  1  0  0.076082  0  0.957101  0  0  0.083642  0  1.025527  0  0  0.085813  0  1.022903  0  0.127844  0  0.115064  0.081983  0  1.02746  0
H  H7  1  0.76356050  0.74108497  0.78461911  1  0  0.076155  0  0.957107  0  0  0.083724  0  1.025537  0  0  0.08588  0  1.022931  0  0.127809  0  0.115071  0.082128  0  1.027401  0
H  H8  1  0.85922091  0.94726863  0.36284472  1  0  0.106245  0  0.958104  0  0  0.113357  0  1.022318  0  0  0.116131  0  1.022141  0  0.078756  0  0.106363  0.112127  0  1.021097  0
H  H9  1  0.14077504  0.44727451  0.13715376  1  0  0.106338  0  0.958003  0  0  0.11338  0  1.022296  0  0  0.116151  0  1.022121  0  0.079088  0  0.106391  0.11215  0  1.021075  0
H  H10  1  0.14077648  0.05272901  0.63715234  1  0  0.106339  0  0.958062  0  0  0.113422  0  1.022282  0  0  0.116193  0  1.022104  0  0.078996  0  0.106406  0.112192  0  1.02106  0
H  H11  1  0.85921804  0.55272417  0.86284611  1  0  0.106296  0  0.958057  0  0  0.113372  0  1.022301  0  0  0.116144  0  1.022123  0  0.079032  0  0.10639  0.112141  0  1.021081  0
H  H12  1  0.88483478  0.88886680  0.48105559  1  0  0.105313  0  0.93753  0  0  0.118543  0  0.995177  0  0  0.121024  0  0.993697  0  0.072977  0  0.112032  0.116661  0  0.996158  0
H  H13  1  0.11516118  0.38886223  0.01894289  1  0  0.105292  0  0.937528  0  0  0.118506  0  0.995207  0  0  0.120985  0  0.993717  0  0.073008  0  0.112033  0.116625  0  0.996187  0
H  H14  1  0.11517266  0.11113502  0.51894023  1  0  0.105289  0  0.937573  0  0  0.118516  0  0.995225  0  0  0.12099  0  0.993758  0  0.072748  0  0.112018  0.116634  0  0.996205  0
H  H15  1  0.88483191  0.61113123  0.98105602  1  0  0.105313  0  0.937487  0  0  0.118537  0  0.995143  0  0  0.121011  0  0.993671  0  0.073298  0  0.112024  0.116655  0  0.996123  0
H  H16  1  0.85464686  0.71271045  0.56740953  1  0  0.109116  0  0.965194  0  0  0.116347  0  1.032074  0  0  0.119822  0  1.029707  0  0.125902  0  0.101974  0.113952  0  1.034001  0
H  H17  1  0.14534910  0.21270692  0.93259087  1  0  0.109068  0  0.96505  0  0  0.116285  0  1.031963  0  0  0.119747  0  1.02961  0  0.125878  0  0.101958  0.11389  0  1.03389  0
H  H18  1  0.14535197  0.28729033  0.43258901  1  0  0.109111  0  0.96518  0  0  0.116345  0  1.032056  0  0  0.119822  0  1.029685  0  0.125784  0  0.10198  0.11395  0  1.033983  0
H  H19  1  0.85465116  0.78728758  0.06741009  1  0  0.109119  0  0.965163  0  0  0.116344  0  1.032048  0  0  0.119835  0  1.029661  0  0.125828  0  0.101985  0.11395  0  1.033974  0
H  H20  1  0.78346612  0.46986743  0.59999618  1  0  0.106254  0  0.964969  0  0  0.113275  0  1.033129  0  0  0.116454  0  1.031261  0  0.117118  0  0.102694  0.110872  0  1.034512  0
H  H21  1  0.21652696  0.96986364  0.90000369  1  0  0.106252  0  0.964814  0  0  0.113244  0  1.033015  0  0  0.116425  0  1.031149  0  0.11712  0  0.102664  0.110842  0  1.034398  0
H  H22  1  0.21653127  0.53013544  0.40000233  1  0  0.106163  0  0.965024  0  0  0.113215  0  1.033162  0  0  0.116391  0  1.031297  0  0.117034  0  0.102649  0.110819  0  1.034528  0
H  H23  1  0.78347474  0.03013087  0.09999490  1  0  0.106233  0  0.964863  0  0  0.11326  0  1.033023  0  0  0.116441  0  1.031159  0  0.117166  0  0.102679  0.110857  0  1.034406  0
H  H24  1  0.69150975  0.22562060  0.57036639  1  0  0.111495  0  0.940298  0  0  0.118238  0  1.006995  0  0  0.121585  0  1.004521  0  0.148407  0  0.108038  0.115761  0  1.008775  0
H  H25  1  0.30849195  0.72561994  0.92963316  1  0  0.111431  0  0.940281  0  0  0.118183  0  1.006967  0  0  0.121534  0  1.004498  0  0.148458  0  0.108012  0.115705  0  1.008749  0
H  H26  1  0.30848477  0.77437914  0.42963206  1  0  0.11149  0  0.940324  0  0  0.118228  0  1.007022  0  0  0.121579  0  1.004552  0  0.148368  0  0.108024  0.115751  0  1.008802  0
H  H27  1  0.69151549  0.27437875  0.07036650  1  0  0.111443  0  0.94037  0  0  0.118203  0  1.00705  0  0  0.121547  0  1.004581  0  0.148393  0  0.108022  0.115727  0  1.008829  0
H  H28  1  0.61553530  0.05029587  0.48344282  1  0  0.100622  0  0.975804  0  0  0.109482  0  1.039762  0  0  0.112291  0  1.038988  0  0.099707  0  0.106183  0.107504  0  1.040203  0
H  H29  1  0.38446783  0.55029416  0.01655964  1  0  0.100581  0  0.975804  0  0  0.109442  0  1.039774  0  0  0.11225  0  1.039  0  0.099728  0  0.10618  0.107461  0  1.040219  0
H  H30  1  0.38446209  0.94970282  0.51655665  1  0  0.10067  0  0.975732  0  0  0.109503  0  1.039729  0  0  0.112326  0  1.038935  0  0.099741  0  0.106185  0.107527  0  1.040176  0
H  H31  1  0.61553674  0.44970348  0.98344285  1  0  0.100699  0  0.975744  0  0  0.109502  0  1.039773  0  0  0.112342  0  1.03896  0  0.099723  0  0.106176  0.107526  0  1.04022  0
H  H32  1  0.59320770  0.12926020  0.36872318  1  0  0.079096  0  0.969204  0  0  0.08353  0  1.040583  0  0  0.08573  0  1.038705  0  0.113333  0  0.111408  0.082349  0  1.040965  0
H  H33  1  0.40678970  0.62926163  0.13127773  1  0  0.07906  0  0.969308  0  0  0.08349  0  1.040683  0  0  0.08569  0  1.038805  0  0.113311  0  0.111403  0.08231  0  1.041066  0
H  H34  1  0.40679544  0.87074267  0.63127592  1  0  0.079069  0  0.969149  0  0  0.083498  0  1.040542  0  0  0.085697  0  1.038664  0  0.113344  0  0.111391  0.082318  0  1.040923  0
H  H35  1  0.59320482  0.37073810  0.86872457  1  0  0.079069  0  0.969113  0  0  0.083513  0  1.040479  0  0  0.085713  0  1.038601  0  0.113052  0  0.111416  0.082333  0  1.04086  0
H  H36  1  0.12525827  0.39314377  0.30320748  1  0  0.416629  0  0.884909  0  0  0.383605  0  0.952825  0  0  0.394859  0  0.936292  0  0.648912  0  0.290417  0.375594  0  0.964545  0
H  H37  1  0.87474055  0.89314416  0.19679202  1  0  0.416621  0  0.884918  0  0  0.383587  0  0.952846  0  0  0.394842  0  0.936313  0  0.648913  0  0.290421  0.375575  0  0.964569  0
H  H38  1  0.87474199  0.60685805  0.69679204  1  0  0.416595  0  0.884961  0  0  0.383549  0  0.952885  0  0  0.394798  0  0.936363  0  0.648925  0  0.290403  0.375537  0  0.964607  0
H  H39  1  0.12525827  0.10685453  0.80320700  1  0  0.41665  0  0.884868  0  0  0.383621  0  0.952793  0  0  0.394876  0  0.936259  0  0.64891  0  0.290425  0.37561  0  0.964515  0
H  H40  1  0.04422595  0.23863783  0.30866839  1  0  0.418012  0  0.88373  0  0  0.384803  0  0.951959  0  0  0.395867  0  0.93578  0  0.625923  0  0.288605  0.37686  0  0.963584  0
H  H41  1  0.95577719  0.73863927  0.19133071  1  0  0.417952  0  0.883791  0  0  0.384737  0  0.952034  0  0  0.3958  0  0.935856  0  0.625972  0  0.288597  0.376793  0  0.96366  0
H  H42  1  0.95577719  0.76136294  0.69133215  1  0  0.417908  0  0.883853  0  0  0.384684  0  0.952109  0  0  0.39575  0  0.935928  0  0.625918  0  0.288566  0.376741  0  0.963737  0
H  H43  1  0.04422308  0.26136046  0.80866833  1  0  0.417981  0  0.883777  0  0  0.384809  0  0.951959  0  0  0.395873  0  0.935779  0  0.625939  0  0.288612  0.376866  0  0.963584  0
C  C44  1  0.77435246  0.73735052  0.33591965  1  0  0.177301  0  3.67625  0  0  0.143252  0  3.93301  0  0  0.152798  0  3.948966  0  0.546991  0  0.058836  0.137172  0  3.923411  0
C  C45  1  0.22564493  0.23735013  0.16408030  1  0  0.177268  0  3.676138  0  0  0.143283  0  3.932818  0  0  0.152831  0  3.94877  0  0.547074  0  0.058817  0.137209  0  3.923222  0
C  C46  1  0.22563775  0.26264922  0.66407920  1  0  0.177327  0  3.676267  0  0  0.143263  0  3.933015  0  0  0.152798  0  3.948966  0  0.546553  0  0.058799  0.137195  0  3.923418  0
C  C47  1  0.77435246  0.76264647  0.83591917  1  0  0.177342  0  3.676032  0  0  0.143249  0  3.932833  0  0  0.152794  0  3.948788  0  0.547008  0  0.05882  0.137134  0  3.923222  0
C  C48  1  0.82728434  0.84301043  0.38026180  1  0  -0.1017  0  3.704485  0  0  -0.115482  0  3.959325  0  0  -0.122629  0  3.980556  0  0.023612  0  -0.08281  -0.112328  0  3.944693  0
C  C49  1  0.17271018  0.34301737  0.11973521  1  0  -0.10179  0  3.704311  0  0  -0.115549  0  3.959149  0  0  -0.122694  0  3.980374  0  0.023409  0  -0.082831  -0.112395  0  3.944517  0
C  C50  1  0.17270731  0.15698825  0.61973372  1  0  -0.101772  0  3.704532  0  0  -0.115515  0  3.959333  0  0  -0.122655  0  3.980561  0  0.023903  0  -0.082801  -0.11236  0  3.944696  0
C  C51  1  0.82728865  0.65698550  0.88026477  1  0  -0.101734  0  3.704517  0  0  -0.115491  0  3.959396  0  0  -0.122633  0  3.980619  0  0.023256  0  -0.082819  -0.11234  0  3.944778  0
C  C52  1  0.84117018  0.81082091  0.44494122  1  0  -0.042912  0  3.678084  0  0  -0.06701  0  3.924442  0  0  -0.064629  0  3.943272  0  -0.023041  0  -0.059958  -0.067852  0  3.910041  0
C  C53  1  0.15883152  0.31081634  0.05506025  1  0  -0.042843  0  3.678334  0  0  -0.066905  0  3.924667  0  0  -0.064516  0  3.943492  0  -0.023279  0  -0.059954  -0.067749  0  3.910267  0
C  C54  1  0.15882721  0.18918719  0.55505729  1  0  -0.042872  0  3.678373  0  0  -0.066989  0  3.924635  0  0  -0.064609  0  3.943466  0  -0.022891  0  -0.05996  -0.067832  0  3.910236  0
C  C55  1  0.84117305  0.68918235  0.94493744  1  0  -0.042914  0  3.678389  0  0  -0.067001  0  3.924711  0  0  -0.06462  0  3.943541  0  -0.023385  0  -0.059934  -0.067842  0  3.910304  0
C  C56  1  0.79840288  0.67384807  0.46523639  1  0  0.023025  0  3.794541  0  0  0.039964  0  4.02367  0  0  0.037172  0  4.048703  0  -0.012802  0  -0.000701  0.043186  0  4.005217  0
C  C57  1  0.20160313  0.17385082  0.03476276  1  0  0.022931  0  3.794727  0  0  0.039849  0  4.023872  0  0  0.037056  0  4.048902  0  -0.012761  0  -0.000732  0.04307  0  4.00542  0
C  C58  1  0.20159882  0.32615270  0.53476028  1  0  0.022918  0  3.794669  0  0  0.039994  0  4.023637  0  0  0.037204  0  4.048672  0  -0.012953  0  -0.000776  0.043214  0  4.005186  0
C  C59  1  0.79840144  0.82614786  0.96523925  1  0  0.022925  0  3.794458  0  0  0.039919  0  4.023507  0  0  0.037128  0  4.048543  0  -0.012776  0  -0.000767  0.043141  0  4.005052  0
C  C60  1  0.81076547  0.63430890  0.53155315  1  0  -0.090292  0  3.723029  0  0  -0.113833  0  3.980167  0  0  -0.117092  0  4.003169  0  0.010462  0  -0.085149  -0.112918  0  3.965049  0
C  C61  1  0.18923623  0.13430223  0.96844880  1  0  -0.090137  0  3.723241  0  0  -0.113648  0  3.980356  0  0  -0.116898  0  4.003367  0  0.01091  0  -0.085065  -0.112735  0  3.965237  0
C  C62  1  0.18923192  0.36569397  0.46844535  1  0  -0.09031  0  3.723034  0  0  -0.113891  0  3.980175  0  0  -0.117152  0  4.003174  0  0.01055  0  -0.085176  -0.112978  0  3.965059  0
C  C63  1  0.81076260  0.86569436  0.03155358  1  0  -0.090221  0  3.723286  0  0  -0.113766  0  3.98041  0  0  -0.117039  0  4.003409  0  0.010999  0  -0.085136  -0.112851  0  3.96529  0
C  C64  1  0.77082932  0.50073786  0.54954371  1  0  -0.091823  0  3.724095  0  0  -0.117315  0  3.984153  0  0  -0.120377  0  4.006562  0  -0.103361  0  -0.086308  -0.114008  0  3.968674  0
C  C65  1  0.22916807  0.00073957  0.95045816  1  0  -0.091821  0  3.72417  0  0  -0.117305  0  3.9842  0  0  -0.120371  0  4.006609  0  -0.103787  0  -0.086324  -0.113998  0  3.96872  0
C  C66  1  0.22916233  0.49926396  0.45045469  1  0  -0.091699  0  3.723867  0  0  -0.117218  0  3.98395  0  0  -0.120274  0  4.00635  0  -0.103418  0  -0.086232  -0.11391  0  3.968477  0
C  C67  1  0.77083363  0.99925493  0.04954235  1  0  -0.091831  0  3.724153  0  0  -0.117373  0  3.984205  0  0  -0.120443  0  4.006625  0  -0.103997  0  -0.08633  -0.114066  0  3.968726  0
C  C68  1  0.71745956  0.39659369  0.50265178  1  0  0.023763  0  3.792268  0  0  0.041448  0  4.022366  0  0  0.039232  0  4.046602  0  0.015718  0  -0.001503  0.041444  0  4.006979  0
C  C69  1  0.28253639  0.89658990  0.99734958  1  0  0.023708  0  3.792237  0  0  0.041484  0  4.022262  0  0  0.039268  0  4.046498  0  0.015768  0  -0.001469  0.041478  0  4.006876  0
C  C70  1  0.28253639  0.60340918  0.49734814  1  0  0.023829  0  3.792115  0  0  0.041507  0  4.022222  0  0  0.039291  0  4.046458  0  0.016059  0  -0.001464  0.041502  0  4.006836  0
C  C71  1  0.71747105  0.10341088  0.00265152  1  0  0.023779  0  3.792208  0  0  0.041568  0  4.022145  0  0  0.039354  0  4.046378  0  0.015937  0  -0.001451  0.041564  0  4.006759  0
C  C72  1  0.68256119  0.25640421  0.51980558  1  0  -0.042629  0  3.675627  0  0  -0.068206  0  3.926036  0  0  -0.06606  0  3.944013  0  -0.117413  0  -0.061916  -0.068336  0  3.913702  0
C  C73  1  0.31743764  0.75639936  0.98019919  1  0  -0.04261  0  3.675717  0  0  -0.068224  0  3.92614  0  0  -0.066086  0  3.944125  0  -0.117286  0  -0.061908  -0.068353  0  3.913806  0
C  C74  1  0.31743476  0.74359657  0.48019242  1  0  -0.04259  0  3.675375  0  0  -0.068147  0  3.925754  0  0  -0.06601  0  3.94374  0  -0.117659  0  -0.061913  -0.068279  0  3.913426  0
C  C75  1  0.68257268  0.24359304  0.01980676  1  0  -0.042433  0  3.675326  0  0  -0.068043  0  3.925674  0  0  -0.065896  0  3.943653  0  -0.117633  0  -0.061849  -0.068175  0  3.913345  0
C  C76  1  0.63938616  0.15955425  0.47198281  1  0  -0.114726  0  3.735175  0  0  -0.129206  0  3.992354  0  0  -0.135874  0  4.013283  0  -0.055863  0  -0.085145  -0.125066  0  3.976879  0
C  C77  1  0.36061267  0.65955568  0.02801813  1  0  -0.114551  0  3.73519  0  0  -0.129039  0  3.992382  0  0  -0.135704  0  4.013308  0  -0.056476  0  -0.085119  -0.124898  0  3.976907  0
C  C78  1  0.36061123  0.84044967  0.52801810  1  0  -0.11479  0  3.734988  0  0  -0.129268  0  3.992214  0  0  -0.135951  0  4.013149  0  -0.055875  0  -0.085142  -0.125134  0  3.976747  0
C  C79  1  0.63938760  0.34045346  0.97198140  1  0  -0.114906  0  3.734907  0  0  -0.129388  0  3.99216  0  0  -0.136089  0  4.01309  0  -0.055817  0  -0.085182  -0.125254  0  3.976693  0
C  C80  1  0.62771700  0.20320132  0.40751636  1  0  0.147256  0  3.692811  0  0  0.11558  0  3.945648  0  0  0.123681  0  3.963618  0  0.536663  0  0.0509  0.110657  0  3.931237  0
C  C81  1  0.37228326  0.70320067  0.09248605  1  0  0.147222  0  3.692749  0  0  0.115573  0  3.945552  0  0  0.123673  0  3.96352  0  0.537074  0  0.050904  0.110648  0  3.931141  0
C  C82  1  0.37227896  0.79679945  0.59248308  1  0  0.14727  0  3.692974  0  0  0.115591  0  3.945821  0  0  0.12369  0  3.963795  0  0.536559  0  0.050903  0.110668  0  3.931408  0
C  C83  1  0.62772131  0.29679279  0.90751740  1  0  0.147234  0  3.693115  0  0  0.115578  0  3.945898  0  0  0.123675  0  3.963877  0  0.536928  0  0.050853  0.110656  0  3.931484  0
C  C84  1  0.70456577  0.43154378  0.43609868  1  0  0.133072  0  3.748495  0  0  0.126147  0  3.984656  0  0  0.130751  0  4.007077  0  0.535469  0  0.117883  0.122295  0  3.969843  0
C  C85  1  0.29542731  0.93154208  0.06390310  1  0  0.133053  0  3.748533  0  0  0.126064  0  3.984768  0  0  0.13067  0  4.007187  0  0.535536  0  0.117861  0.122213  0  3.969954  0
C  C86  1  0.29543018  0.56845804  0.56390076  1  0  0.132927  0  3.74846  0  0  0.126036  0  3.984621  0  0  0.13064  0  4.007042  0  0.535469  0  0.117853  0.122184  0  3.969807  0
C  C87  1  0.70458013  0.06845661  0.93609944  1  0  0.132957  0  3.748339  0  0  0.126022  0  3.984456  0  0  0.130627  0  4.006873  0  0.535407  0  0.117835  0.122171  0  3.969642  0
C  C88  1  0.74570358  0.57343104  0.41702878  1  0  0.13602  0  3.735103  0  0  0.129716  0  3.970143  0  0  0.134345  0  3.992504  0  0.461922  0  0.117806  0.127748  0  3.953724  0
C  C89  1  0.25429668  0.07343169  0.08297315  1  0  0.13603  0  3.735008  0  0  0.129723  0  3.970102  0  0  0.134351  0  3.992465  0  0.462141  0  0.117774  0.127758  0  3.95368  0
C  C90  1  0.25429955  0.42656870  0.58297080  1  0  0.136115  0  3.734878  0  0  0.129685  0  3.97001  0  0  0.134313  0  3.992374  0  0.462065  0  0.117779  0.12772  0  3.953589  0
C  C91  1  0.74570646  0.92656804  0.91702787  1  0  0.136109  0  3.734976  0  0  0.129767  0  3.970014  0  0  0.134395  0  3.992376  0  0.46215  0  0.117799  0.127801  0  3.95359  0
N  N92  1  0.73657844  0.60694069  0.35355412  1  0  -0.362252  0  3.24465  0  0  -0.290146  0  3.506541  0  0  -0.311584  0  3.526483  0  -1.233733  0  -0.32589  -0.276812  0  3.493195  0
N  N93  1  0.26341608  0.10694135  0.14644577  1  0  -0.362248  0  3.244811  0  0  -0.290165  0  3.506692  0  0  -0.311603  0  3.526635  0  -1.233774  0  -0.325873  -0.276831  0  3.493342  0
N  N94  1  0.26342039  0.39305799  0.64644489  1  0  -0.362213  0  3.244654  0  0  -0.290082  0  3.506576  0  0  -0.311522  0  3.526527  0  -1.233699  0  -0.325843  -0.276746  0  3.493221  0
N  N95  1  0.73658131  0.89305734  0.85355562  1  0  -0.362327  0  3.244766  0  0  -0.290207  0  3.506678  0  0  -0.311647  0  3.526623  0  -1.233686  0  -0.325871  -0.276875  0  3.493349  0
N  N96  1  0.65882232  0.33485387  0.39012367  1  0  -0.353523  0  3.247342  0  0  -0.28139  0  3.503498  0  0  -0.302319  0  3.52422  0  -1.214361  0  -0.324424  -0.266147  0  3.48857  0
N  N97  1  0.34117220  0.83485740  0.10987719  1  0  -0.353506  0  3.247351  0  0  -0.28137  0  3.503511  0  0  -0.302302  0  3.524239  0  -1.214641  0  -0.324425  -0.266124  0  3.488582  0
N  N98  1  0.34117364  0.66515004  0.60987673  1  0  -0.353482  0  3.247476  0  0  -0.281335  0  3.503601  0  0  -0.302266  0  3.524325  0  -1.214249  0  -0.324397  -0.266091  0  3.48867  0
N  N99  1  0.65882950  0.16515175  0.89012285  1  0  -0.353412  0  3.247488  0  0  -0.28128  0  3.503604  0  0  -0.30221  0  3.524326  0  -1.214413  0  -0.324374  -0.266035  0  3.488672  0
N  N100  1  0.30965915  0.60674508  0.27484720  1  0  0.700064  0  4.114296  0  0  0.72653  0  4.409567  0  0  0.755928  0  4.415278  0  0.851207  0  0.101813  0.718376  0  4.388627  0
N  N101  1  0.69033824  0.10674678  0.22515275  1  0  0.700066  0  4.114335  0  0  0.726523  0  4.409628  0  0  0.755922  0  4.415339  0  0.851259  0  0.101816  0.718374  0  4.38868  0
N  N102  1  0.69033968  0.39325256  0.72515230  1  0  0.699995  0  4.114393  0  0  0.726463  0  4.409667  0  0  0.755865  0  4.415377  0  0.851202  0  0.101774  0.718312  0  4.388709  0
N  N103  1  0.30965772  0.89325086  0.77484813  1  0  0.700019  0  4.11444  0  0  0.726487  0  4.409703  0  0  0.755889  0  4.415414  0  0.851208  0  0.101793  0.718344  0  4.38874  0
N  N104  1  0.76629402  0.51567568  0.15512956  1  0  0.688825  0  4.128119  0  0  0.716535  0  4.425554  0  0  0.74381  0  4.431998  0  0.839475  0  0.09649  0.696965  0  4.421511  0
N  N105  1  0.23370624  0.01567424  0.34487237  1  0  0.688912  0  4.128369  0  0  0.71669  0  4.425723  0  0  0.743974  0  4.432162  0  0.839608  0  0.096495  0.697119  0  4.421682  0
N  N106  1  0.23370911  0.48432824  0.84487147  1  0  0.688926  0  4.128163  0  0  0.716817  0  4.425393  0  0  0.744121  0  4.431827  0  0.839616  0  0.096485  0.697245  0  4.421356  0
N  N107  1  0.76629690  0.98432549  0.65512913  1  0  0.688792  0  4.128172  0  0  0.716707  0  4.425357  0  0  0.744009  0  4.431797  0  0.839477  0  0.096505  0.697135  0  4.421317  0
O  O108  1  0.34784235  0.47593461  0.28317545  1  0  -0.501145  0  1.818169  0  0  -0.470143  0  2.047435  0  0  -0.489744  0  2.037566  0  -0.590994  0  -0.18936  -0.460271  0  2.049505  0
O  O109  1  0.65215505  0.97593500  0.21682498  1  0  -0.501155  0  1.818167  0  0  -0.470122  0  2.047414  0  0  -0.489729  0  2.037547  0  -0.591003  0  -0.189362  -0.460262  0  2.049504  0
O  O110  1  0.65215648  0.52406303  0.71682549  1  0  -0.501076  0  1.818139  0  0  -0.470062  0  2.047382  0  0  -0.489665  0  2.037515  0  -0.590944  0  -0.189322  -0.460205  0  2.049483  0
O  O111  1  0.34784378  0.02406369  0.78317499  1  0  -0.501087  0  1.818082  0  0  -0.470068  0  2.047332  0  0  -0.48968  0  2.037473  0  -0.590934  0  -0.189337  -0.460214  0  2.049432  0
O  O112  1  0.16921862  0.65982557  0.29991483  1  0  -0.409356  0  1.782802  0  0  -0.40126  0  1.996949  0  0  -0.414195  0  1.992667  0  -0.493514  0  -0.15642  -0.396132  0  1.994941  0
O  O113  1  0.83078021  0.15982518  0.20008514  1  0  -0.409331  0  1.782869  0  0  -0.401254  0  1.997033  0  0  -0.414191  0  1.992754  0  -0.493564  0  -0.156408  -0.39612  0  1.995008  0
O  O114  1  0.83078164  0.34017416  0.70008517  1  0  -0.409332  0  1.782944  0  0  -0.401243  0  1.997093  0  0  -0.414181  0  1.992812  0  -0.493548  0  -0.156391  -0.39611  0  1.995073  0
O  O115  1  0.16921575  0.84017351  0.79991478  1  0  -0.409374  0  1.782989  0  0  -0.401287  0  1.997145  0  0  -0.414224  0  1.992863  0  -0.49358  0  -0.156425  -0.396161  0  1.995136  0
O  O116  1  0.41931739  0.67855851  0.24056914  1  0  -0.478328  0  1.828571  0  0  -0.451822  0  2.06483  0  0  -0.471812  0  2.057546  0  -0.56529  0  -0.183553  -0.441698  0  2.064887  0
O  O117  1  0.58068000  0.17856021  0.25942985  1  0  -0.478371  0  1.82859  0  0  -0.451855  0  2.064835  0  0  -0.471844  0  2.057547  0  -0.565314  0  -0.18358  -0.441732  0  2.064888  0
O  O118  1  0.58067857  0.32143809  0.75942934  1  0  -0.47837  0  1.828529  0  0  -0.45186  0  2.064761  0  0  -0.471855  0  2.057478  0  -0.565306  0  -0.183595  -0.441735  0  2.064813  0
O  O119  1  0.41931739  0.82143743  0.74057106  1  0  -0.478331  0  1.828562  0  0  -0.451824  0  2.064841  0  0  -0.471815  0  2.057554  0  -0.565271  0  -0.183571  -0.441702  0  2.064897  0
O  O120  1  0.63398085  0.43037324  0.16902325  1  0  -0.468815  0  1.816308  0  0  -0.450276  0  2.056893  0  0  -0.469649  0  2.050658  0  -0.537734  0  -0.185714  -0.43678  0  2.06159  0
O  O121  1  0.36602085  0.93036944  0.33097966  1  0  -0.468853  0  1.816217  0  0  -0.45036  0  2.056809  0  0  -0.469738  0  2.050577  0  -0.537443  0  -0.185725  -0.436863  0  2.061505  0
O  O122  1  0.36601942  0.56963068  0.83097963  1  0  -0.468884  0  1.816271  0  0  -0.450421  0  2.056815  0  0  -0.469807  0  2.050582  0  -0.537443  0  -0.185719  -0.436925  0  2.061512  0
O  O123  1  0.63398085  0.06962611  0.66902373  1  0  -0.468818  0  1.816295  0  0  -0.450325  0  2.05677  0  0  -0.469712  0  2.050535  0  -0.537724  0  -0.185723  -0.43683  0  2.061469  0
O  O124  1  0.87424668  0.56467756  0.20230894  1  0  -0.509439  0  1.812266  0  0  -0.478716  0  2.035346  0  0  -0.498307  0  2.027627  0  -0.587591  0  -0.195621  -0.464712  0  2.040739  0
O  O125  1  0.12575645  0.06467613  0.29769112  1  0  -0.50945  0  1.812307  0  0  -0.478743  0  2.035341  0  0  -0.498343  0  2.027643  0  -0.587985  0  -0.195581  -0.464741  0  2.040733  0
O  O126  1  0.12575358  0.43532531  0.79769250  1  0  -0.509443  0  1.812291  0  0  -0.478788  0  2.035284  0  0  -0.498394  0  2.02758  0  -0.587959  0  -0.195587  -0.464783  0  2.040675  0
O  O127  1  0.87424812  0.93532361  0.70230897  1  0  -0.509472  0  1.812331  0  0  -0.478813  0  2.035326  0  0  -0.49841  0  2.027596  0  -0.587571  0  -0.195625  -0.464809  0  2.040723  0
O  O128  1  0.79111253  0.54977636  0.09859393  1  0  -0.411668  0  1.756858  0  0  -0.406245  0  1.969377  0  0  -0.417255  0  1.964391  0  -0.513139  0  -0.157923  -0.398632  0  1.973691  0
O  O129  1  0.20888630  0.04977597  0.40140509  1  0  -0.411687  0  1.75714  0  0  -0.406308  0  1.96967  0  0  -0.417319  0  1.964683  0  -0.513149  0  -0.157933  -0.398689  0  1.973977  0
O  O130  1  0.20888774  0.45022442  0.90140704  1  0  -0.411699  0  1.75692  0  0  -0.406335  0  1.969368  0  0  -0.417355  0  1.964376  0  -0.513196  0  -0.157944  -0.398711  0  1.973673  0
O  O131  1  0.79111396  0.95022794  0.59859443  1  0  -0.41159  0  1.756914  0  0  -0.406248  0  1.969358  0  0  -0.417269  0  1.964368  0  -0.513144  0  -0.157916  -0.398628  0  1.973665  0
O  O132  1  0.01202951  0.33852138  0.31490429  1  0  -0.826322  0  1.904895  0  0  -0.767967  0  2.108287  0  0  -0.790162  0  2.074145  0  -1.247623  0  -0.58909  -0.75221  0  2.132127  0
O  O133  1  0.98797075  0.83852177  0.18509524  1  0  -0.826231  0  1.904895  0  0  -0.767885  0  2.108333  0  0  -0.790054  0  2.074142  0  -1.247634  0  -0.589066  -0.752124  0  2.132174  0
O  O134  1  0.98797075  0.66147940  0.68509476  1  0  -0.826183  0  1.904988  0  0  -0.767796  0  2.108487  0  0  -0.789975  0  2.074307  0  -1.247625  0  -0.589036  -0.752037  0  2.132329  0
O  O135  1  0.01202951  0.16147901  0.81490477  1  0  -0.826298  0  1.904906  0  0  -0.767985  0  2.108255  0  0  -0.790173  0  2.074092  0  -1.247629  0  -0.589094  -0.752226  0  2.132096  0
