# generated using pymatgen
data_La2H15C21(NO5)3
_symmetry_space_group_name_H-M   'P 1'
_cell_length_a   8.97200158
_cell_length_b   9.43434441
_cell_length_c   14.51260000
_cell_angle_alpha   99.04671785
_cell_angle_beta   95.37724208
_cell_angle_gamma   105.03756961
_symmetry_Int_Tables_number   1
_chemical_formula_structural   La2H15C21(NO5)3
_chemical_formula_sum   'La4 H30 C42 N6 O30'
_cell_volume   1159.88439391
_cell_formula_units_Z   2
loop_
 _symmetry_equiv_pos_site_id
 _symmetry_equiv_pos_as_xyz
  1  'x, y, z'
loop_
 _atom_site_type_symbol
 _atom_site_label
 _atom_site_symmetry_multiplicity
 _atom_site_fract_x
 _atom_site_fract_y
 _atom_site_fract_z
 _atom_site_occupancy
 _atom_site_hle17_bader_spin_density
 _atom_site_hle17_ddec_charge
 _atom_site_hle17_ddec_spin_density
 _atom_site_hle17_ddec_sum_bond_order
 _atom_site_hle17_magmom
 _atom_site_hse06_10hf_bader_spin_density
 _atom_site_hse06_10hf_ddec_charge
 _atom_site_hse06_10hf_ddec_spin_density
 _atom_site_hse06_10hf_ddec_sum_bond_order
 _atom_site_hse06_10hf_magmom
 _atom_site_hse06_bader_spin_density
 _atom_site_hse06_ddec_charge
 _atom_site_hse06_ddec_spin_density
 _atom_site_hse06_ddec_sum_bond_order
 _atom_site_hse06_magmom
 _atom_site_pbe_bader_charge
 _atom_site_pbe_bader_spin_density
 _atom_site_pbe_cm5_charge
 _atom_site_pbe_ddec_charge
 _atom_site_pbe_ddec_spin_density
 _atom_site_pbe_ddec_sum_bond_order
 _atom_site_pbe_magmom
La  La0  1  0.85288063  0.73251105  0.72463939  1  0  2.167226  0  1.695848  0  0  2.051256  0  2.209167  0  0  2.155176  0  2.103052  0  2.285645  0  1.3797  1.971367  0  2.286525  0
La  La1  1  0.14711898  0.26748855  0.27535958  1  0  2.167201  0  1.69589  0  0  2.051189  0  2.209276  0  0  2.155105  0  2.103167  0  2.285643  0  1.379657  1.971292  0  2.286637  0
La  La2  1  0.54719040  0.14208527  0.15621600  1  0  2.138759  0  1.772875  0  0  2.016521  0  2.301005  0  0  2.119972  0  2.198708  0  2.269446  0  1.398164  1.937816  0  2.374737  0
La  La3  1  0.45280921  0.85791433  0.84378435  1  0  2.138761  0  1.772889  0  0  2.016523  0  2.301021  0  0  2.119975  0  2.198725  0  2.269445  0  1.39817  1.937814  0  2.374759  0
H  H4  1  0.96423357  0.42354217  0.64282039  1  0  0.399532  0  0.915802  0  0  0.356663  0  0.999469  0  0  0.368808  0  0.982269  0  0.643608  0  0.284602  0.347998  0  1.011708  0
H  H5  1  0.03576715  0.57645743  0.35718071  1  0  0.399554  0  0.915769  0  0  0.356683  0  0.999437  0  0  0.36883  0  0.982236  0  0.643622  0  0.284625  0.348018  0  1.011676  0
H  H6  1  0.83548733  0.45723138  0.57114251  1  0  0.414795  0  0.858043  0  0  0.390833  0  0.927191  0  0  0.39891  0  0.915646  0  0.627956  0  0.305804  0.384618  0  0.934874  0
H  H7  1  0.16451372  0.54276933  0.42885804  1  0  0.414801  0  0.858037  0  0  0.390825  0  0.927204  0  0  0.398902  0  0.915658  0  0.627943  0  0.305796  0.384609  0  0.934891  0
H  H8  1  0.64707329  0.68443661  0.51180038  1  0  0.393492  0  0.92272  0  0  0.350833  0  1.005765  0  0  0.362928  0  0.988791  0  0.644927  0  0.281622  0.342087  0  1.017879  0
H  H9  1  0.35292743  0.31556299  0.48819865  1  0  0.393486  0  0.922723  0  0  0.350835  0  1.005765  0  0  0.36293  0  0.988791  0  0.644924  0  0.281628  0.342089  0  1.017879  0
H  H10  1  0.82936270  0.70067601  0.52138157  1  0  0.418121  0  0.853546  0  0  0.39389  0  0.922225  0  0  0.403717  0  0.908293  0  0.628272  0  0.306577  0.387017  0  0.929892  0
H  H11  1  0.17063691  0.29932359  0.47861671  1  0  0.41815  0  0.853555  0  0  0.393914  0  0.92224  0  0  0.403742  0  0.908272  0  0.628264  0  0.306597  0.38704  0  0.929909  0
H  H12  1  0.46032884  0.82821288  0.04578962  1  0  0.425906  0  0.852604  0  0  0.401577  0  0.918821  0  0  0.411548  0  0.904296  0  0.625192  0  0.314578  0.394035  0  0.928388  0
H  H13  1  0.53967109  0.17178784  0.95421017  1  0  0.425902  0  0.852593  0  0  0.401576  0  0.918813  0  0  0.411546  0  0.904289  0  0.625185  0  0.314596  0.394034  0  0.928367  0
H  H14  1  0.28421145  0.84600134  0.05169210  1  0  0.389503  0  0.934541  0  0  0.346829  0  1.016164  0  0  0.359593  0  0.998716  0  0.638609  0  0.290801  0.337395  0  1.029014  0
H  H15  1  0.71578815  0.15399826  0.94830756  1  0  0.389466  0  0.934601  0  0  0.346807  0  1.016195  0  0  0.359571  0  0.998748  0  0.638612  0  0.290806  0.337372  0  1.029047  0
H  H16  1  0.96871087  0.10644129  0.02610319  1  0  0.098438  0  0.929368  0  0  0.102956  0  0.9994  0  0  0.106493  0  0.995278  0  0.12687  0  0.133005  0.100586  0  1.001941  0
H  H17  1  0.03128794  0.89355943  0.97389723  1  0  0.0984  0  0.929374  0  0  0.102911  0  0.999414  0  0  0.106448  0  0.995293  0  0.126855  0  0.132983  0.100541  0  1.001956  0
H  H18  1  0.31707101  0.47423414  0.96184387  1  0  0.127189  0  0.920562  0  0  0.135254  0  0.98312  0  0  0.139598  0  0.978699  0  0.174997  0  0.1213  0.132096  0  0.986167  0
H  H19  1  0.68292827  0.52576434  0.03815497  1  0  0.127193  0  0.920578  0  0  0.135283  0  0.983104  0  0  0.139645  0  0.978667  0  0.174984  0  0.12131  0.132125  0  0.986152  0
H  H20  1  0.82972173  0.37532467  0.85422118  1  0  0.106041  0  0.923613  0  0  0.113886  0  0.986644  0  0  0.117762  0  0.982414  0  0.150085  0  0.127926  0.110939  0  0.989962  0
H  H21  1  0.17027755  0.62467382  0.14577835  1  0  0.106035  0  0.923624  0  0  0.113878  0  0.98666  0  0  0.117754  0  0.982432  0  0.150062  0  0.127919  0.110933  0  0.989976  0
H  H22  1  0.25181352  0.53224558  0.65762955  1  0  0.087374  0  0.957001  0  0  0.093231  0  1.026109  0  0  0.096541  0  1.022346  0  0.119632  0  0.124053  0.090747  0  1.029038  0
H  H23  1  0.74818641  0.46775514  0.34237162  1  0  0.087353  0  0.95696  0  0  0.093208  0  1.026072  0  0  0.096518  0  1.022308  0  0.119627  0  0.124033  0.090723  0  1.029003  0
H  H24  1  0.45922760  0.26602444  0.81649256  1  0  0.118219  0  0.925445  0  0  0.126894  0  0.988795  0  0  0.131606  0  0.983157  0  0.127564  0  0.122277  0.12298  0  0.993723  0
H  H25  1  0.54077168  0.73397405  0.18350766  1  0  0.118216  0  0.925461  0  0  0.126891  0  0.988806  0  0  0.131603  0  0.983168  0  0.127565  0  0.122279  0.122976  0  0.993734  0
H  H26  1  0.97256731  0.13053775  0.70274476  1  0  0.091448  0  0.97127  0  0  0.096274  0  1.04149  0  0  0.099589  0  1.038331  0  0.151353  0  0.12079  0.093676  0  1.043994  0
H  H27  1  0.02743150  0.86946297  0.29725497  1  0  0.091471  0  0.971275  0  0  0.096296  0  1.041481  0  0  0.09961  0  1.038325  0  0.151365  0  0.120812  0.093696  0  1.043986  0
H  H28  1  0.57784489  0.30943159  0.40057777  1  0  0.094993  0  0.978093  0  0  0.099791  0  1.047126  0  0  0.103618  0  1.043606  0  0.140777  0  0.124402  0.096868  0  1.050017  0
H  H29  1  0.42215471  0.69056801  0.59942258  1  0  0.094988  0  0.978105  0  0  0.099776  0  1.047149  0  0  0.103602  0  1.043634  0  0.14075  0  0.1244  0.096858  0  1.050034  0
H  H30  1  0.84443051  0.05713185  0.53298051  1  0  0.119115  0  0.9182  0  0  0.128381  0  0.98008  0  0  0.132676  0  0.975387  0  0.139692  0  0.119074  0.125261  0  0.983561  0
H  H31  1  0.15556975  0.94286999  0.46702011  1  0  0.119106  0  0.918195  0  0  0.12837  0  0.98008  0  0  0.132668  0  0.975384  0  0.139468  0  0.119066  0.125251  0  0.98356  0
H  H32  1  0.45287546  0.16634043  0.64529047  1  0  0.073953  0  0.974831  0  0  0.080881  0  1.044827  0  0  0.083012  0  1.043293  0  0.112605  0  0.113129  0.079356  0  1.04599  0
H  H33  1  0.54712447  0.83366028  0.35471001  1  0  0.073975  0  0.974811  0  0  0.080909  0  1.044801  0  0  0.08304  0  1.043267  0  0.112594  0  0.113141  0.079384  0  1.04596  0
C  C34  1  0.00366421  0.19908300  0.98907166  1  0  0.16432  0  3.608997  0  0  0.116521  0  3.868226  0  0  0.128489  0  3.87958  0  0.524141  0  0.079753  0.108931  0  3.860381  0
C  C35  1  0.99633540  0.80091660  0.01092800  1  0  0.164392  0  3.608965  0  0  0.116618  0  3.868185  0  0  0.128589  0  3.879537  0  0.524139  0  0.079823  0.10903  0  3.86034  0
C  C36  1  0.16022215  0.28139207  0.99838800  1  0  -0.115252  0  3.728719  0  0  -0.088193  0  3.968696  0  0  -0.101602  0  3.990502  0  -0.032784  0  -0.005163  -0.080023  0  3.95464  0
C  C37  1  0.83977857  0.71860753  0.00161172  1  0  -0.115216  0  3.728743  0  0  -0.088161  0  3.96873  0  0  -0.101571  0  3.99054  0  -0.032782  0  -0.005166  -0.079993  0  3.954673  0
C  C38  1  0.19709824  0.40498700  0.95466548  1  0  -0.002879  0  3.646303  0  0  -0.043994  0  3.895499  0  0  -0.035917  0  3.910266  0  -0.036958  0  -0.046325  -0.048604  0  3.88533  0
C  C39  1  0.80290104  0.59501148  0.04533405  1  0  -0.002898  0  3.646294  0  0  -0.044033  0  3.895504  0  0  -0.035978  0  3.910264  0  -0.036945  0  -0.046336  -0.048644  0  3.885337  0
C  C40  1  0.07736515  0.44175533  0.90350879  1  0  -0.141128  0  3.768776  0  0  -0.116956  0  4.010242  0  0  -0.131428  0  4.034822  0  0.00285  0  -0.016104  -0.107888  0  3.994153  0
C  C41  1  0.92263525  0.55824315  0.09649080  1  0  -0.141141  0  3.768782  0  0  -0.116974  0  4.010264  0  0  -0.131446  0  4.034848  0  0.002778  0  -0.016127  -0.107908  0  3.994176  0
C  C42  1  0.92513129  0.35002562  0.89491407  1  0  0.138759  0  3.639685  0  0  0.09425  0  3.893573  0  0  0.104349  0  3.907525  0  0.468589  0  0.068067  0.087879  0  3.883996  0
C  C43  1  0.07486799  0.64997286  0.10508546  1  0  0.138748  0  3.639684  0  0  0.094241  0  3.893586  0  0  0.104341  0  3.907537  0  0.468664  0  0.068075  0.087872  0  3.884009  0
C  C44  1  0.28380933  0.24027721  0.05607850  1  0  0.674153  0  3.903119  0  0  0.624289  0  4.198079  0  0  0.659521  0  4.195101  0  1.567158  0  0.220173  0.59986  0  4.199447  0
C  C45  1  0.71619139  0.75972239  0.94392123  1  0  0.674104  0  3.903227  0  0  0.62423  0  4.198209  0  0  0.659462  0  4.195226  0  1.567152  0  0.220152  0.599803  0  4.199573  0
C  C46  1  0.11055805  0.58099172  0.86271384  1  0  0.716393  0  3.887589  0  0  0.66708  0  4.182394  0  0  0.704355  0  4.175015  0  1.617459  0  0.240146  0.641248  0  4.187212  0
C  C47  1  0.88944123  0.41900676  0.13728569  1  0  0.716443  0  3.887554  0  0  0.66714  0  4.182349  0  0  0.704413  0  4.174968  0  1.617453  0  0.240181  0.641308  0  4.187167  0
C  C48  1  0.24401401  0.43149981  0.68680837  1  0  0.144415  0  3.656277  0  0  0.102281  0  3.910064  0  0  0.113192  0  3.92311  0  0.513114  0  0.065594  0.095177  0  3.901347  0
C  C49  1  0.75598625  0.56850203  0.31319362  1  0  0.144446  0  3.65623  0  0  0.102329  0  3.910001  0  0  0.11324  0  3.923046  0  0.513015  0  0.065632  0.095226  0  3.901283  0
C  C50  1  0.37633398  0.41170182  0.73620711  1  0  -0.111791  0  3.72133  0  0  -0.085603  0  3.960451  0  0  -0.098715  0  3.9823  0  -0.014363  0  -0.004057  -0.077111  0  3.945812  0
C  C51  1  0.62366595  0.58829890  0.26379268  1  0  -0.111796  0  3.721318  0  0  -0.085612  0  3.960428  0  0  -0.098724  0  3.982277  0  -0.014357  0  -0.004058  -0.077121  0  3.945791  0
C  C52  1  0.35926499  0.28452260  0.77659781  1  0  -0.000941  0  3.646801  0  0  -0.040948  0  3.896592  0  0  -0.031977  0  3.908651  0  -0.047595  0  -0.044539  -0.046375  0  3.888934  0
C  C53  1  0.64073461  0.71547700  0.22340254  1  0  -0.000997  0  3.646846  0  0  -0.04099  0  3.896647  0  0  -0.032018  0  3.908703  0  -0.0476  0  -0.044557  -0.046414  0  3.888989  0
C  C54  1  0.21177806  0.18246807  0.76593266  1  0  -0.13208  0  3.731279  0  0  -0.105977  0  3.96991  0  0  -0.120001  0  3.993413  0  0.008365  0  -0.010748  -0.097715  0  3.954867  0
C  C55  1  0.78822042  0.81753153  0.23406694  1  0  -0.131952  0  3.731169  0  0  -0.105892  0  3.96981  0  0  -0.119914  0  3.993309  0  0.00836  0  -0.010728  -0.097632  0  3.954768  0
C  C56  1  0.08769470  0.21010747  0.71269640  1  0  0.139849  0  3.654219  0  0  0.097043  0  3.909166  0  0  0.106905  0  3.924503  0  0.467358  0  0.062241  0.09079  0  3.899323  0
C  C57  1  0.91230411  0.78989325  0.28730333  1  0  0.139798  0  3.65423  0  0  0.097011  0  3.90918  0  0  0.106872  0  3.924515  0  0.467743  0  0.06224  0.09076  0  3.899337  0
C  C58  1  0.53068486  0.52542682  0.74437744  1  0  0.657754  0  3.918236  0  0  0.610205  0  4.212263  0  0  0.644602  0  4.210254  0  1.559179  0  0.214548  0.586625  0  4.212082  0
C  C59  1  0.46931474  0.47457279  0.25562222  1  0  0.657828  0  3.91819  0  0  0.610262  0  4.212233  0  0  0.644657  0  4.210225  0  1.559197  0  0.214584  0.586683  0  4.21205  0
C  C60  1  0.18254463  0.04960450  0.81381062  1  0  0.704959  0  3.89626  0  0  0.65465  0  4.194044  0  0  0.691291  0  4.187734  0  1.612545  0  0.235463  0.629629  0  4.197104  0
C  C61  1  0.81745386  0.95039510  0.18618897  1  0  0.704933  0  3.896312  0  0  0.654654  0  4.194062  0  0  0.691291  0  4.187752  0  1.612535  0  0.235452  0.629631  0  4.197122  0
C  C62  1  0.60320404  0.25333580  0.45788426  1  0  0.114825  0  3.672833  0  0  0.07466  0  3.92605  0  0  0.083952  0  3.939669  0  0.455378  0  0.057887  0.068499  0  3.917504  0
C  C63  1  0.39679701  0.74666492  0.54211629  1  0  0.114803  0  3.67287  0  0  0.074654  0  3.926102  0  0  0.083945  0  3.93972  0  0.455368  0  0.057888  0.06849  0  3.917555  0
C  C64  1  0.72590233  0.18708060  0.45797502  1  0  -0.131334  0  3.754514  0  0  -0.103144  0  3.991747  0  0  -0.115729  0  4.012821  0  -0.004084  0  -0.012598  -0.094908  0  3.977788  0
C  C65  1  0.27409872  0.81292012  0.54202483  1  0  -0.131302  0  3.754519  0  0  -0.103147  0  3.991796  0  0  -0.115727  0  4.012868  0  -0.004031  0  -0.012584  -0.094911  0  3.977838  0
C  C66  1  0.75130437  0.11179594  0.53090176  1  0  -0.00305  0  3.658411  0  0  -0.045317  0  3.909486  0  0  -0.036658  0  3.922916  0  -0.094162  0  -0.048935  -0.050677  0  3.900547  0
C  C67  1  0.24869701  0.88820590  0.46909824  1  0  -0.002994  0  3.658386  0  0  -0.045247  0  3.909469  0  0  -0.036589  0  3.922897  0  -0.093941  0  -0.048884  -0.050608  0  3.900529  0
C  C68  1  0.65148237  0.10317776  0.59936818  1  0  -0.126583  0  3.731075  0  0  -0.098874  0  3.967627  0  0  -0.112415  0  3.990047  0  0.021037  0  -0.01119  -0.090652  0  3.953309  0
C  C69  1  0.34851789  0.89682407  0.40063175  1  0  -0.126593  0  3.731198  0  0  -0.098901  0  3.967724  0  0  -0.112436  0  3.990144  0  0.021012  0  -0.011227  -0.090675  0  3.9534  0
C  C70  1  0.53262091  0.17376384  0.59311178  1  0  0.146667  0  3.674591  0  0  0.102369  0  3.932493  0  0  0.112552  0  3.94796  0  0.518245  0  0.061042  0.096053  0  3.921828  0
C  C71  1  0.46737902  0.82623688  0.40688939  1  0  0.146645  0  3.674584  0  0  0.10234  0  3.932487  0  0  0.112518  0  3.947956  0  0.518284  0  0.061027  0.096024  0  3.921821  0
C  C72  1  0.82189869  0.19502036  0.37858685  1  0  0.683534  0  3.910159  0  0  0.636665  0  4.20364  0  0  0.672785  0  4.197168  0  1.605063  0  0.223052  0.611657  0  4.207168  0
C  C73  1  0.17810092  0.80497924  0.62141350  1  0  0.68347  0  3.910091  0  0  0.636602  0  4.203601  0  0  0.672715  0  4.197136  0  1.605077  0  0.223027  0.611595  0  4.207127  0
C  C74  1  0.66202790  0.01217229  0.67471609  1  0  0.698471  0  3.89501  0  0  0.650788  0  4.191366  0  0  0.687612  0  4.183988  0  1.593637  0  0.232675  0.625152  0  4.196057  0
C  C75  1  0.33797283  0.98782731  0.32528363  1  0  0.698327  0  3.895227  0  0  0.650709  0  4.191477  0  0  0.687527  0  4.184107  0  1.593585  0  0.232624  0.625073  0  4.196166  0
N  N76  1  0.88940537  0.23130475  0.93725899  1  0  -0.291091  0  3.165021  0  0  -0.222234  0  3.412141  0  0  -0.237691  0  3.424351  0  -1.229812  0  -0.295327  -0.211687  0  3.403889  0
N  N77  1  0.11059424  0.76869485  0.06274136  1  0  -0.291119  0  3.164951  0  0  -0.222278  0  3.412094  0  0  -0.237736  0  3.424305  0  -1.22979  0  -0.295354  -0.211732  0  3.403843  0
N  N78  1  0.10260790  0.33265404  0.67405833  1  0  -0.324152  0  3.138934  0  0  -0.261443  0  3.395412  0  0  -0.276943  0  3.408339  0  -1.23546  0  -0.307958  -0.251045  0  3.386883  0
N  N79  1  0.89739203  0.66734667  0.32594147  1  0  -0.324197  0  3.138961  0  0  -0.261501  0  3.395445  0  0  -0.276997  0  3.408366  0  -1.235725  0  -0.308019  -0.251103  0  3.386915  0
N  N80  1  0.50889901  0.24882833  0.52457476  1  0  -0.311284  0  3.139953  0  0  -0.248921  0  3.39572  0  0  -0.264178  0  3.409433  0  -1.221428  0  -0.303311  -0.238303  0  3.386167  0
N  N81  1  0.49110204  0.75117239  0.47542510  1  0  -0.311282  0  3.139957  0  0  -0.248913  0  3.395711  0  0  -0.264169  0  3.409426  0  -1.221442  0  -0.303318  -0.238297  0  3.38616  0
O  O82  1  0.90672001  0.49842783  0.62962858  1  0  -0.867879  0  1.900144  0  0  -0.816429  0  2.10481  0  0  -0.841355  0  2.075014  0  -1.287741  0  -0.624594  -0.798382  0  2.125295  0
O  O83  1  0.09328328  0.50157289  0.37037141  1  0  -0.8679  0  1.900104  0  0  -0.81642  0  2.104786  0  0  -0.841347  0  2.074988  0  -1.287736  0  -0.624603  -0.798372  0  2.125275  0
O  O84  1  0.73260134  0.64708822  0.54145577  1  0  -0.854418  0  1.846107  0  0  -0.803162  0  2.043721  0  0  -0.828064  0  2.012901  0  -1.286888  0  -0.608215  -0.784188  0  2.063732  0
O  O85  1  0.26740018  0.35291027  0.45854251  1  0  -0.854437  0  1.846116  0  0  -0.803189  0  2.043713  0  0  -0.828084  0  2.01285  0  -1.28687  0  -0.608237  -0.784213  0  2.063726  0
O  O86  1  0.39660379  0.89749690  0.03987064  1  0  -0.898234  0  1.91953  0  0  -0.84417  0  2.138962  0  0  -0.875399  0  2.108427  0  -1.278992  0  -0.618468  -0.821008  0  2.160084  0
O  O87  1  0.60339503  0.10250382  0.96012978  1  0  -0.898216  0  1.919565  0  0  -0.844149  0  2.138983  0  0  -0.875378  0  2.108451  0  -1.279244  0  -0.6185  -0.820989  0  2.160095  0
O  O88  1  0.24412105  0.16354520  0.12000240  1  0  -0.728276  0  1.996631  0  0  -0.678728  0  2.253894  0  0  -0.715589  0  2.248335  0  -1.207529  0  -0.370895  -0.651875  0  2.255826  0
O  O89  1  0.75587744  0.83645440  0.87999720  1  0  -0.728269  0  1.996728  0  0  -0.678723  0  2.253991  0  0  -0.715584  0  2.248437  0  -1.207531  0  -0.370889  -0.651872  0  2.255921  0
O  O90  1  0.42430174  0.28173296  0.04081056  1  0  -0.659782  0  1.957846  0  0  -0.611014  0  2.197275  0  0  -0.640593  0  2.188299  0  -1.185505  0  -0.34764  -0.589282  0  2.202824  0
O  O91  1  0.57569964  0.71826888  0.95918943  1  0  -0.659782  0  1.957909  0  0  -0.610995  0  2.197311  0  0  -0.640588  0  2.188361  0  -1.185464  0  -0.347634  -0.589262  0  2.202857  0
O  O92  1  0.99656760  0.61851223  0.82620347  1  0  -0.693775  0  2.060889  0  0  -0.649169  0  2.331857  0  0  -0.684466  0  2.323703  0  -1.196329  0  -0.384479  -0.624047  0  2.336989  0
O  O93  1  0.00343201  0.38148737  0.17379688  1  0  -0.693792  0  2.060885  0  0  -0.649198  0  2.331877  0  0  -0.684493  0  2.323724  0  -1.196326  0  -0.384495  -0.624074  0  2.337011  0
O  O94  1  0.25275567  0.65395056  0.87030997  1  0  -0.700615  0  2.079481  0  0  -0.655831  0  2.353097  0  0  -0.691222  0  2.344401  0  -1.202393  0  -0.404776  -0.630279  0  2.358397  0
O  O95  1  0.74724393  0.34604904  0.12968969  1  0  -0.700637  0  2.079473  0  0  -0.655841  0  2.35306  0  0  -0.691242  0  2.344382  0  -1.202406  0  -0.404784  -0.630291  0  2.358359  0
O  O96  1  0.53122295  0.65698497  0.72876569  1  0  -0.75948  0  2.050888  0  0  -0.706492  0  2.30841  0  0  -0.743859  0  2.303462  0  -1.213931  0  -0.38299  -0.678327  0  2.310302  0
O  O97  1  0.46877665  0.34301463  0.27123466  1  0  -0.7595  0  2.05086  0  0  -0.706506  0  2.30839  0  0  -0.743875  0  2.303443  0  -1.213937  0  -0.382985  -0.67834  0  2.310281  0
O  O98  1  0.65517659  0.49113966  0.76369709  1  0  -0.629558  0  1.934175  0  0  -0.590522  0  2.171963  0  0  -0.619336  0  2.165093  0  -1.166442  0  -0.332113  -0.569466  0  2.176034  0
O  O99  1  0.34482414  0.50885994  0.23630264  1  0  -0.629598  0  1.934165  0  0  -0.590553  0  2.171967  0  0  -0.619368  0  2.165098  0  -1.16645  0  -0.332147  -0.569498  0  2.176039  0
O  O100  1  0.04506705  0.96534027  0.80408334  1  0  -0.686319  0  2.056155  0  0  -0.648491  0  2.330636  0  0  -0.681103  0  2.320268  0  -1.19174  0  -0.377307  -0.623904  0  2.336319  0
O  O101  1  0.95493144  0.03465933  0.19591625  1  0  -0.686299  0  2.05615  0  0  -0.648473  0  2.330619  0  0  -0.681081  0  2.32025  0  -1.191715  0  -0.377268  -0.623883  0  2.336299  0
O  O102  1  0.29870393  0.03257939  0.86398012  1  0  -0.700676  0  2.03888  0  0  -0.652327  0  2.304963  0  0  -0.686133  0  2.295249  0  -1.205002  0  -0.397566  -0.62746  0  2.310561  0
O  O103  1  0.70129423  0.96741909  0.13601934  1  0  -0.700688  0  2.038955  0  0  -0.652339  0  2.305008  0  0  -0.686142  0  2.295291  0  -1.205063  0  -0.397574  -0.627473  0  2.310606  0
O  O104  1  0.75917832  0.21276300  0.30059570  1  0  -0.702527  0  2.034476  0  0  -0.658319  0  2.298361  0  0  -0.691879  0  2.291264  0  -1.207489  0  -0.353295  -0.633481  0  2.301766  0
O  O105  1  0.24082161  0.78723772  0.69940478  1  0  -0.702463  0  2.034405  0  0  -0.658248  0  2.298286  0  0  -0.691806  0  2.291196  0  -1.207501  0  -0.353281  -0.633407  0  2.301682  0
O  O106  1  0.96054599  0.18503642  0.39441536  1  0  -0.688871  0  1.977151  0  0  -0.64058  0  2.219946  0  0  -0.672473  0  2.209898  0  -1.197968  0  -0.363977  -0.617942  0  2.22676  0
O  O107  1  0.03945506  0.81496430  0.60558518  1  0  -0.688864  0  1.977138  0  0  -0.640572  0  2.219927  0  0  -0.672465  0  2.209879  0  -1.197966  0  -0.363976  -0.617937  0  2.226739  0
O  O108  1  0.57110645  0.01643387  0.73671710  1  0  -0.695731  0  1.999406  0  0  -0.652516  0  2.262442  0  0  -0.686166  0  2.25274  0  -1.214874  0  -0.386833  -0.628711  0  2.269536  0
O  O109  1  0.42889460  0.98356685  0.26328344  1  0  -0.695642  0  1.999527  0  0  -0.652443  0  2.262514  0  0  -0.686091  0  2.252815  0  -1.214852  0  -0.386799  -0.62864  0  2.269608  0
O  O110  1  0.75847233  0.93504087  0.67027256  1  0  -0.690467  0  2.042764  0  0  -0.647382  0  2.308649  0  0  -0.680234  0  2.298301  0  -1.181745  0  -0.369022  -0.622985  0  2.315235  0
O  O111  1  0.24152695  0.06495761  0.32972697  1  0  -0.690451  0  2.042761  0  0  -0.647376  0  2.308594  0  0  -0.680235  0  2.29827  0  -1.181729  0  -0.369011  -0.622979  0  2.315181  0
