# generated using pymatgen
data_NdAgH12C14N2O13
_symmetry_space_group_name_H-M   'P 1'
_cell_length_a   6.53824264
_cell_length_b   6.53822294
_cell_length_c   20.42802489
_cell_angle_alpha   96.03164623
_cell_angle_beta   96.03239804
_cell_angle_gamma   102.97192899
_symmetry_Int_Tables_number   1
_chemical_formula_structural   NdAgH12C14N2O13
_chemical_formula_sum   'Nd2 Ag2 H24 C28 N4 O26'
_cell_volume   838.77690927
_cell_formula_units_Z   2
loop_
 _symmetry_equiv_pos_site_id
 _symmetry_equiv_pos_as_xyz
  1  'x, y, z'
loop_
 _atom_site_type_symbol
 _atom_site_label
 _atom_site_symmetry_multiplicity
 _atom_site_fract_x
 _atom_site_fract_y
 _atom_site_fract_z
 _atom_site_occupancy
 _atom_site_hle17_bader_spin_density
 _atom_site_hle17_ddec_charge
 _atom_site_hle17_ddec_spin_density
 _atom_site_hle17_ddec_sum_bond_order
 _atom_site_hle17_magmom
 _atom_site_hse06_10hf_bader_spin_density
 _atom_site_hse06_10hf_ddec_charge
 _atom_site_hse06_10hf_ddec_spin_density
 _atom_site_hse06_10hf_ddec_sum_bond_order
 _atom_site_hse06_10hf_magmom
 _atom_site_hse06_bader_spin_density
 _atom_site_hse06_ddec_charge
 _atom_site_hse06_ddec_spin_density
 _atom_site_hse06_ddec_sum_bond_order
 _atom_site_hse06_magmom
 _atom_site_pbe_bader_spin_density
 _atom_site_pbe_cm5_charge
 _atom_site_pbe_ddec_charge
 _atom_site_pbe_ddec_spin_density
 _atom_site_pbe_ddec_sum_bond_order
 _atom_site_pbe_magmom
Nd  Nd0  1  0.96303752  0.03695966  0.74999985  1  0  2.2438  0  1.609624  0  0  2.052817  0  2.092586  0  0  2.095763  0  2.049356  0  0  1.458217  2.020053  0  2.125576  0
Nd  Nd1  1  0.03696098  0.96304356  0.25000065  1  0  2.243768  0  1.609635  0  0  2.0527  0  2.09273  0  0  2.095716  0  2.049389  0  0  1.458198  2.019935  0  2.125719  0
Ag  Ag2  1  0.37844328  0.62155592  0.75000063  1  0  0.741696  0  1.092648  0  0  0.634384  0  1.475235  0  0  0.670517  0  1.421253  0  0  0.481025  0.607688  0  1.513487  0
Ag  Ag3  1  0.62154988  0.37845056  0.24999882  1  0  0.741656  0  1.092751  0  0  0.634374  0  1.475278  0  0  0.67051  0  1.421296  0  0  0.481007  0.607676  0  1.513524  0
H  H4  1  0.57396156  0.62870322  0.49965467  1  0  0.134165  0  0.99486  0  0  0.142004  0  1.055423  0  0  0.146613  0  1.052086  0  0  0.113709  0.138741  0  1.057811  0
H  H5  1  0.37130328  0.42602556  0.00034601  1  0  0.134251  0  0.994794  0  0  0.142077  0  1.055351  0  0  0.146686  0  1.052011  0  0  0.113738  0.138817  0  1.057741  0
H  H6  1  0.42602809  0.37129537  0.50034685  1  0  0.134225  0  0.9948  0  0  0.142073  0  1.055352  0  0  0.146682  0  1.052014  0  0  0.113721  0.138806  0  1.057748  0
H  H7  1  0.62870167  0.57397278  0.99965258  1  0  0.134197  0  0.994792  0  0  0.142031  0  1.055368  0  0  0.146637  0  1.052026  0  0  0.113717  0.13876  0  1.057756  0
H  H8  1  0.87687257  0.28381254  0.49439730  1  0  0.154421  0  0.929302  0  0  0.160713  0  0.992188  0  0  0.16558  0  0.989072  0  0  0.118536  0.157205  0  0.994567  0
H  H9  1  0.71618879  0.12312470  0.00560296  1  0  0.154431  0  0.929257  0  0  0.160703  0  0.992175  0  0  0.165575  0  0.98906  0  0  0.118524  0.157193  0  0.994554  0
H  H10  1  0.12313418  0.71617465  0.50560097  1  0  0.154429  0  0.929212  0  0  0.160697  0  0.99213  0  0  0.165567  0  0.98901  0  0  0.118501  0.157187  0  0.994511  0
H  H11  1  0.28381612  0.87686731  0.99439836  1  0  0.154449  0  0.929242  0  0  0.160738  0  0.992137  0  0  0.165604  0  0.989022  0  0  0.118533  0.157226  0  0.994523  0
H  H12  1  0.56743000  0.77200471  0.40625969  1  0  0.416403  0  0.873093  0  0  0.384646  0  0.952391  0  0  0.396218  0  0.938206  0  0  0.315268  0.376522  0  0.961511  0
H  H13  1  0.22799639  0.43256951  0.09373992  1  0  0.416487  0  0.873075  0  0  0.384707  0  0.952388  0  0  0.396279  0  0.938139  0  0  0.315289  0.376579  0  0.961518  0
H  H14  1  0.43256530  0.22798585  0.59374028  1  0  0.416501  0  0.872974  0  0  0.384711  0  0.952311  0  0  0.396283  0  0.938112  0  0  0.315319  0.376587  0  0.961437  0
H  H15  1  0.77201163  0.56742880  0.90626023  1  0  0.416438  0  0.873061  0  0  0.384665  0  0.952375  0  0  0.396235  0  0.938183  0  0  0.315291  0.376543  0  0.961492  0
H  H16  1  0.27900410  0.97024120  0.65173621  1  0  0.434046  0  0.859485  0  0  0.406653  0  0.915601  0  0  0.417035  0  0.900529  0  0  0.307054  0.399297  0  0.926262  0
H  H17  1  0.02975852  0.72099549  0.84826559  1  0  0.43401  0  0.859531  0  0  0.406613  0  0.915668  0  0  0.416998  0  0.90059  0  0  0.307033  0.399257  0  0.926329  0
H  H18  1  0.72099700  0.02975404  0.34826459  1  0  0.433971  0  0.859588  0  0  0.4066  0  0.915678  0  0  0.416981  0  0.900607  0  0  0.307032  0.399242  0  0.926338  0
H  H19  1  0.97024765  0.27900763  0.15173662  1  0  0.434028  0  0.859496  0  0  0.40663  0  0.915634  0  0  0.417015  0  0.900557  0  0  0.307041  0.399273  0  0.926294  0
H  H20  1  0.14848911  0.74238542  0.65394527  1  0  0.416973  0  0.899385  0  0  0.382862  0  0.969661  0  0  0.394891  0  0.952267  0  0  0.287097  0.374383  0  0.981889  0
H  H21  1  0.25761664  0.85150995  0.84605582  1  0  0.416925  0  0.899457  0  0  0.382808  0  0.969742  0  0  0.394836  0  0.95235  0  0  0.287075  0.374326  0  0.981975  0
H  H22  1  0.85150778  0.25761146  0.34605398  1  0  0.416984  0  0.899369  0  0  0.382871  0  0.969652  0  0  0.394901  0  0.952258  0  0  0.287095  0.374391  0  0.981882  0
H  H23  1  0.74238652  0.14849956  0.15394553  1  0  0.416968  0  0.899396  0  0  0.382857  0  0.969677  0  0  0.394884  0  0.952285  0  0  0.287096  0.374377  0  0.981907  0
H  H24  1  0.58160728  0.26493576  0.76919206  1  0  0.437536  0  0.854019  0  0  0.406075  0  0.919163  0  0  0.417312  0  0.902292  0  0  0.299425  0.398018  0  0.931261  0
H  H25  1  0.73506233  0.41839190  0.73080790  1  0  0.43755  0  0.854003  0  0  0.406087  0  0.91915  0  0  0.417324  0  0.902279  0  0  0.299436  0.398031  0  0.931249  0
H  H26  1  0.41838928  0.73506589  0.23080733  1  0  0.437518  0  0.854059  0  0  0.406052  0  0.919211  0  0  0.417291  0  0.902338  0  0  0.299423  0.397996  0  0.931307  0
H  H27  1  0.26493577  0.58160973  0.26919253  1  0  0.437507  0  0.854071  0  0  0.406031  0  0.919241  0  0  0.417269  0  0.902367  0  0  0.299415  0.397974  0  0.93134  0
C  C28  1  0.66687876  0.63886850  0.63452010  1  0  0.642944  0  3.905017  0  0  0.587608  0  4.208103  0  0  0.62131  0  4.197706  0  0  0.221991  0.5646  0  4.214676  0
C  C29  1  0.36113321  0.33311728  0.86547975  1  0  0.643055  0  3.904848  0  0  0.587673  0  4.207976  0  0  0.621372  0  4.197588  0  0  0.22203  0.564665  0  4.214551  0
C  C30  1  0.33312435  0.36113466  0.36548201  1  0  0.642999  0  3.904916  0  0  0.587586  0  4.208083  0  0  0.621287  0  4.197691  0  0  0.221999  0.564568  0  4.214668  0
C  C31  1  0.63886680  0.66688590  0.13451834  1  0  0.642994  0  3.904959  0  0  0.587621  0  4.208123  0  0  0.621326  0  4.197733  0  0  0.22197  0.564605  0  4.214714  0
C  C32  1  0.71999197  0.81613921  0.59291815  1  0  0.147961  0  3.779039  0  0  0.150658  0  4.027697  0  0  0.154155  0  4.043688  0  0  0.117848  0.14814  0  4.017032  0
C  C33  1  0.18386238  0.28000393  0.90708339  1  0  0.148037  0  3.779079  0  0  0.150742  0  4.027672  0  0  0.154244  0  4.043661  0  0  0.117849  0.148221  0  4.017007  0
C  C34  1  0.28000574  0.18386086  0.40708319  1  0  0.147993  0  3.778986  0  0  0.150703  0  4.027644  0  0  0.154201  0  4.043636  0  0  0.117837  0.148188  0  4.016974  0
C  C35  1  0.81613724  0.71999769  0.09291660  1  0  0.147963  0  3.779017  0  0  0.150605  0  4.027733  0  0  0.154097  0  4.043729  0  0  0.117791  0.148089  0  4.017061  0
C  C36  1  0.66044899  0.78259552  0.52488097  1  0  -0.22227  0  3.652372  0  0  -0.255916  0  3.90462  0  0  -0.262798  0  3.920624  0  0  -0.0877  -0.25123  0  3.894079  0
C  C37  1  0.21741120  0.33954238  0.97511858  1  0  -0.222431  0  3.652416  0  0  -0.256019  0  3.904564  0  0  -0.262902  0  3.920565  0  0  -0.087723  -0.251319  0  3.894041  0
C  C38  1  0.33954331  0.21740144  0.47511911  1  0  -0.222504  0  3.65239  0  0  -0.256164  0  3.904651  0  0  -0.263047  0  3.920652  0  0  -0.087807  -0.25147  0  3.894113  0
C  C39  1  0.78259569  0.66045754  0.02488159  1  0  -0.222341  0  3.652332  0  0  -0.25594  0  3.904524  0  0  -0.262814  0  3.920523  0  0  -0.08773  -0.251242  0  3.893975  0
C  C40  1  0.71310651  0.95078223  0.48787403  1  0  0.390496  0  3.787644  0  0  0.375916  0  4.052862  0  0  0.390719  0  4.066919  0  0  0.104335  0.365629  0  4.043492  0
C  C41  1  0.04922124  0.28689252  0.01212606  1  0  0.390552  0  3.787468  0  0  0.375955  0  4.052642  0  0  0.390756  0  4.066704  0  0  0.104334  0.365622  0  4.043331  0
C  C42  1  0.28689033  0.04920831  0.51212648  1  0  0.390636  0  3.787399  0  0  0.376036  0  4.052588  0  0  0.390839  0  4.066644  0  0  0.104429  0.365739  0  4.043236  0
C  C43  1  0.95078677  0.71310578  0.98787311  1  0  0.390453  0  3.78762  0  0  0.375894  0  4.052776  0  0  0.390696  0  4.066833  0  0  0.104376  0.365602  0  4.04341  0
C  C44  1  0.82917112  0.14849115  0.52097764  1  0  -0.211661  0  3.598492  0  0  -0.24424  0  3.854555  0  0  -0.25099  0  3.870806  0  0  -0.08155  -0.239592  0  3.843936  0
C  C45  1  0.85151558  0.17082711  0.97902090  1  0  -0.211725  0  3.598527  0  0  -0.244319  0  3.854641  0  0  -0.251076  0  3.870901  0  0  -0.081577  -0.239656  0  3.844034  0
C  C46  1  0.17083150  0.85150405  0.47902076  1  0  -0.211622  0  3.598451  0  0  -0.244186  0  3.854509  0  0  -0.250937  0  3.870765  0  0  -0.081514  -0.239541  0  3.843896  0
C  C47  1  0.14849090  0.82917122  0.02097872  1  0  -0.211786  0  3.598595  0  0  -0.244381  0  3.854682  0  0  -0.25113  0  3.870933  0  0  -0.081611  -0.239736  0  3.844075  0
C  C48  1  0.88702925  0.16523070  0.58940749  1  0  0.137968  0  3.757694  0  0  0.14006  0  4.009  0  0  0.143524  0  4.024898  0  0  0.116159  0.137543  0  3.998464  0
C  C49  1  0.83476742  0.11296976  0.91059382  1  0  0.138054  0  3.757814  0  0  0.140088  0  4.00911  0  0  0.143551  0  4.025008  0  0  0.116149  0.137567  0  3.998574  0
C  C50  1  0.11297072  0.83476615  0.41059333  1  0  0.137996  0  3.757798  0  0  0.140038  0  4.009089  0  0  0.1435  0  4.024991  0  0  0.11614  0.137531  0  3.998536  0
C  C51  1  0.16523068  0.88703187  0.08940612  1  0  0.13814  0  3.757729  0  0  0.140202  0  4.009074  0  0  0.143666  0  4.024973  0  0  0.116183  0.137685  0  3.998538  0
C  C52  1  0.02672460  0.36509786  0.62892924  1  0  0.642858  0  3.869981  0  0  0.588129  0  4.165807  0  0  0.622324  0  4.15773  0  0  0.22223  0.564805  0  4.170539  0
C  C53  1  0.63491406  0.97327684  0.87106937  1  0  0.642763  0  3.870087  0  0  0.588159  0  4.165703  0  0  0.622356  0  4.15763  0  0  0.222286  0.564836  0  4.170429  0
C  C54  1  0.97327082  0.63490539  0.37106920  1  0  0.642584  0  3.870043  0  0  0.587959  0  4.165697  0  0  0.622156  0  4.157625  0  0  0.22218  0.564635  0  4.170422  0
C  C55  1  0.36509560  0.02673414  0.12892881  1  0  0.642756  0  3.8701  0  0  0.588016  0  4.165955  0  0  0.622212  0  4.15788  0  0  0.222192  0.564691  0  4.170692  0
N  N56  1  0.83146888  0.00424581  0.62499475  1  0  -0.471697  0  3.311626  0  0  -0.427862  0  3.569208  0  0  -0.44024  0  3.585739  0  0  -0.408868  -0.41936  0  3.558228  0
N  N57  1  0.99575698  0.16852657  0.87500486  1  0  -0.471667  0  3.311475  0  0  -0.42782  0  3.569046  0  0  -0.440204  0  3.585579  0  0  -0.408794  -0.419314  0  3.558064  0
N  N58  1  0.16852882  0.99575423  0.37500463  1  0  -0.471605  0  3.311385  0  0  -0.427745  0  3.568958  0  0  -0.440131  0  3.585491  0  0  -0.408804  -0.419243  0  3.55797  0
N  N59  1  0.00424457  0.83147660  0.12499476  1  0  -0.471621  0  3.311361  0  0  -0.427736  0  3.568939  0  0  -0.440123  0  3.585472  0  0  -0.408743  -0.419231  0  3.557951  0
O  O60  1  0.74297119  0.67947593  0.69673951  1  0  -0.738149  0  2.075256  0  0  -0.66668  0  2.327857  0  0  -0.693249  0  2.31501  0  0  -0.372387  -0.647697  0  2.336145  0
O  O61  1  0.32052193  0.25701828  0.80326056  1  0  -0.738186  0  2.075151  0  0  -0.666758  0  2.327864  0  0  -0.693307  0  2.314971  0  0  -0.372424  -0.647776  0  2.336156  0
O  O62  1  0.25703305  0.32052562  0.30326161  1  0  -0.738142  0  2.075093  0  0  -0.666649  0  2.327743  0  0  -0.69323  0  2.3149  0  0  -0.372369  -0.647661  0  2.336034  0
O  O63  1  0.67947802  0.74297855  0.19673830  1  0  -0.738132  0  2.075204  0  0  -0.666697  0  2.327877  0  0  -0.693252  0  2.314964  0  0  -0.372387  -0.647714  0  2.336169  0
O  O64  1  0.55269525  0.46527150  0.60661770  1  0  -0.602277  0  2.057087  0  0  -0.554118  0  2.299663  0  0  -0.577692  0  2.289963  0  0  -0.300098  -0.53779  0  2.305982  0
O  O65  1  0.53472351  0.44730277  0.89338115  1  0  -0.602351  0  2.057171  0  0  -0.55415  0  2.299747  0  0  -0.577723  0  2.290047  0  0  -0.300107  -0.537816  0  2.306059  0
O  O66  1  0.44730433  0.53472377  0.39338453  1  0  -0.602329  0  2.057318  0  0  -0.554096  0  2.299858  0  0  -0.577668  0  2.29016  0  0  -0.300091  -0.537763  0  2.306175  0
O  O67  1  0.46527616  0.55270519  0.10661709  1  0  -0.60237  0  2.05725  0  0  -0.554133  0  2.299795  0  0  -0.577706  0  2.290079  0  0  -0.300108  -0.537807  0  2.30612  0
O  O68  1  0.65283111  0.92237471  0.42168724  1  0  -0.533617  0  2.161219  0  0  -0.464673  0  2.364351  0  0  -0.487442  0  2.356027  0  0  -0.325747  -0.448529  0  2.369347  0
O  O69  1  0.07762833  0.34716790  0.07831277  1  0  -0.533744  0  2.161217  0  0  -0.46474  0  2.364326  0  0  -0.487509  0  2.355949  0  0  -0.325771  -0.448581  0  2.369343  0
O  O70  1  0.34716573  0.07761583  0.57831327  1  0  -0.533866  0  2.161224  0  0  -0.464794  0  2.364284  0  0  -0.487564  0  2.355948  0  0  -0.325858  -0.448646  0  2.369281  0
O  O71  1  0.92238082  0.65282879  0.92168688  1  0  -0.533642  0  2.161296  0  0  -0.464656  0  2.364421  0  0  -0.487428  0  2.356092  0  0  -0.32578  -0.448523  0  2.369433  0
O  O72  1  0.06391789  0.53166558  0.60224928  1  0  -0.57562  0  1.973802  0  0  -0.518036  0  2.192089  0  0  -0.542979  0  2.183837  0  0  -0.291556  -0.500681  0  2.197382  0
O  O73  1  0.46832937  0.93607678  0.89775366  1  0  -0.575632  0  1.973476  0  0  -0.518054  0  2.191663  0  0  -0.543001  0  2.183415  0  0  -0.29156  -0.500702  0  2.196968  0
O  O74  1  0.93607854  0.46832337  0.39775068  1  0  -0.575514  0  1.973607  0  0  -0.517967  0  2.191839  0  0  -0.542908  0  2.183583  0  0  -0.291553  -0.500626  0  2.197159  0
O  O75  1  0.53166309  0.06393291  0.10224978  1  0  -0.57558  0  1.974018  0  0  -0.517974  0  2.192291  0  0  -0.542923  0  2.184052  0  0  -0.291531  -0.500597  0  2.197532  0
O  O76  1  0.10003722  0.34742484  0.68880930  1  0  -0.725807  0  2.098657  0  0  -0.649349  0  2.368048  0  0  -0.679808  0  2.356334  0  0  -0.373088  -0.62744  0  2.375323  0
O  O77  1  0.65257537  0.89996428  0.81119254  1  0  -0.725779  0  2.09884  0  0  -0.649375  0  2.368182  0  0  -0.679828  0  2.356465  0  0  -0.373159  -0.627468  0  2.375457  0
O  O78  1  0.89995475  0.65257689  0.31119142  1  0  -0.725655  0  2.098703  0  0  -0.649222  0  2.36803  0  0  -0.679689  0  2.356314  0  0  -0.373028  -0.627315  0  2.375306  0
O  O79  1  0.34741826  0.10005014  0.18880816  1  0  -0.725798  0  2.098585  0  0  -0.649333  0  2.367996  0  0  -0.679801  0  2.356282  0  0  -0.373085  -0.627426  0  2.375271  0
O  O80  1  0.21207820  0.88235156  0.68367058  1  0  -0.914787  0  1.908507  0  0  -0.859274  0  2.123976  0  0  -0.880605  0  2.089023  0  0  -0.635212  -0.843632  0  2.148293  0
O  O81  1  0.11765214  0.78792272  0.81633242  1  0  -0.914724  0  1.908607  0  0  -0.859197  0  2.124037  0  0  -0.88053  0  2.089086  0  0  -0.635185  -0.84355  0  2.148357  0
O  O82  1  0.78792024  0.11764531  0.31633019  1  0  -0.914766  0  1.908596  0  0  -0.859246  0  2.124023  0  0  -0.880587  0  2.089066  0  0  -0.635206  -0.843604  0  2.148341  0
O  O83  1  0.88235136  0.21208203  0.18366926  1  0  -0.91478  0  1.908603  0  0  -0.859257  0  2.124036  0  0  -0.880597  0  2.089082  0  0  -0.635213  -0.843619  0  2.14835  0
O  O84  1  0.71643886  0.28356077  0.75000038  1  0  -0.905214  0  1.84319  0  0  -0.857581  0  2.038379  0  0  -0.874076  0  2.003517  0  0  -0.634118  -0.845617  0  2.063067  0
O  O85  1  0.28355924  0.71644087  0.25000005  1  0  -0.905147  0  1.843244  0  0  -0.857492  0  2.038437  0  0  -0.874  0  2.003567  0  0  -0.634083  -0.845526  0  2.063124  0
