# generated using pymatgen
data_NiH30C26N4O7
_symmetry_space_group_name_H-M   'P 1'
_cell_length_a   9.69648501
_cell_length_b   10.17165021
_cell_length_c   15.12609194
_cell_angle_alpha   75.04927186
_cell_angle_beta   81.44143075
_cell_angle_gamma   64.65578116
_symmetry_Int_Tables_number   1
_chemical_formula_structural   NiH30C26N4O7
_chemical_formula_sum   'Ni2 H60 C52 N8 O14'
_cell_volume   1301.38425996
_cell_formula_units_Z   2
loop_
 _symmetry_equiv_pos_site_id
 _symmetry_equiv_pos_as_xyz
  1  'x, y, z'
loop_
 _atom_site_type_symbol
 _atom_site_label
 _atom_site_symmetry_multiplicity
 _atom_site_fract_x
 _atom_site_fract_y
 _atom_site_fract_z
 _atom_site_occupancy
 _atom_site_pbe_cm5_charge
 _atom_site_pbe_ddec_charge
 _atom_site_pbe_ddec_spin_density
 _atom_site_pbe_ddec_sum_bond_order
 _atom_site_pbe_magmom
Ni  Ni0  1  0.36759520  0.73802344  0.14030088  1  0.599467  0.5539  -0.010058  2.649048  -0.013
Ni  Ni1  1  0.63240370  0.26197711  0.85970287  1  0.599406  0.553815  -0.010051  2.649098  -0.013
H  H2  1  0.03431193  0.18130764  0.74934591  1  0.304253  0.27575  -3e-06  1.014421  0.0
H  H3  1  0.96570015  0.81868592  0.25065715  1  0.304292  0.275772  -3e-06  1.014494  0.0
H  H4  1  0.77597537  0.24754092  0.49455577  1  0.321413  0.274022  6e-06  0.941815  0.0
H  H5  1  0.22403609  0.75245148  0.50544493  1  0.321395  0.27399  5e-06  0.94181  0.0
H  H6  1  0.38354708  0.25595150  0.20231294  1  0.088829  0.090364  -5e-06  1.012397  0.0
H  H7  1  0.61644954  0.74404677  0.79768684  1  0.088811  0.090358  -6e-06  1.012398  0.0
H  H8  1  0.32839382  0.31993366  0.08733420  1  0.094528  0.111766  -5.3e-05  1.004973  0.0
H  H9  1  0.67160236  0.68006575  0.91266607  1  0.094527  0.111759  -5.3e-05  1.004992  0.0
H  H10  1  0.14572795  0.01993647  0.03808267  1  0.120375  0.089037  0.000398  1.056151  0.0
H  H11  1  0.85426225  0.98005423  0.96191784  1  0.120401  0.089119  0.000397  1.055959  0.0
H  H12  1  0.38879801  0.70415586  0.81551858  1  0.112648  0.115595  0.00015  1.029067  0.0
H  H13  1  0.61120432  0.29584114  0.18448020  1  0.112661  0.115631  0.000152  1.029027  0.0
H  H14  1  0.44499886  0.45321915  0.27734086  1  0.128002  0.104584  0.000267  1.010197  0.0
H  H15  1  0.55500487  0.54678240  0.72266289  1  0.127997  0.104571  0.000266  1.010277  0.0
H  H16  1  0.07349823  0.12707598  0.87785700  1  0.112616  0.124715  9.7e-05  1.049266  0.0
H  H17  1  0.92648959  0.87291811  0.12214377  1  0.11262  0.124737  9.8e-05  1.0492  0.0
H  H18  1  0.44909876  0.61479029  0.97985897  1  0.123538  0.094276  0.000504  1.019782  0.001
H  H19  1  0.55090964  0.38520990  0.02014059  1  0.123541  0.094271  0.000503  1.019662  0.001
H  H20  1  0.52559240  0.83399258  0.24113565  1  0.122438  0.093195  0.000266  1.055639  0.0
H  H21  1  0.47440861  0.16600784  0.75886527  1  0.122446  0.093174  0.000265  1.055673  0.0
H  H22  1  0.01893839  0.51372274  0.30151943  1  0.087479  0.090276  9e-06  0.999004  0.0
H  H23  1  0.98105454  0.48628221  0.69847816  1  0.087488  0.090326  9e-06  0.998991  0.0
H  H24  1  0.20100489  0.37052869  0.32957867  1  0.09  0.099442  3.1e-05  0.99556  0.0
H  H25  1  0.79898364  0.62947427  0.67042303  1  0.090073  0.099548  3.1e-05  0.995508  0.0
H  H26  1  0.12251483  0.26204762  0.03916390  1  0.090173  0.098573  2.4e-05  1.024746  0.0
H  H27  1  0.87747915  0.73795736  0.96083555  1  0.090178  0.098579  2.4e-05  1.024742  0.0
H  H28  1  0.03461265  0.15867216  0.12270398  1  0.085689  0.083566  -5e-05  1.025865  0.0
H  H29  1  0.96537897  0.84133615  0.87729377  1  0.085688  0.083534  -5e-05  1.025888  0.0
H  H30  1  0.67700302  0.72794260  0.38138181  1  0.116828  0.130383  0.000128  0.994743  0.0
H  H31  1  0.32301312  0.27206165  0.61861159  1  0.116884  0.130405  0.000127  0.994795  0.0
H  H32  1  0.82505028  0.15656815  0.65335972  1  0.108459  0.086048  3.2e-05  0.99857  0.0
H  H33  1  0.17495433  0.84343106  0.34664106  1  0.108466  0.086059  3.2e-05  0.998513  0.0
H  H34  1  0.82297857  0.32994562  0.65696244  1  0.113631  0.094184  6e-06  1.014458  0.0
H  H35  1  0.17702411  0.67005575  0.34303483  1  0.113639  0.094185  6e-06  1.014493  0.0
H  H36  1  0.59409508  0.33188577  0.41407969  1  0.119351  0.127961  8.5e-05  0.991334  0.0
H  H37  1  0.40591797  0.66811324  0.58592095  1  0.119368  0.12801  8.4e-05  0.991354  0.0
H  H38  1  0.94021958  0.60755072  0.13663810  1  0.085816  0.07291  4e-06  1.03858  0.0
H  H39  1  0.05977863  0.39245419  0.86336227  1  0.085774  0.072836  3e-06  1.038558  0.0
H  H40  1  0.06530715  0.52795830  0.04857878  1  0.093019  0.094792  3.4e-05  1.012859  0.0
H  H41  1  0.93469043  0.47204552  0.95142185  1  0.093015  0.094772  3.4e-05  1.012867  0.0
H  H42  1  0.25821649  0.10218010  0.31939460  1  0.086742  0.085827  2e-06  0.982656  0.0
H  H43  1  0.74177214  0.89783055  0.68060500  1  0.086753  0.085832  2e-06  0.982511  0.0
H  H44  1  0.11407197  0.06661693  0.28221973  1  0.086841  0.086932  -8.5e-05  1.02456  0.0
H  H45  1  0.88592245  0.93338697  0.71778120  1  0.086809  0.086912  -8.5e-05  1.024563  0.0
H  H46  1  0.86252648  0.42894641  0.09049872  1  0.090174  0.058889  -3e-06  0.977529  0.0
H  H47  1  0.13746742  0.57106400  0.90949708  1  0.090162  0.058873  -3e-06  0.977585  0.0
H  H48  1  0.81730068  0.46027749  0.25198774  1  0.0763  0.065173  -8e-06  1.0517  0.0
H  H49  1  0.18268865  0.53972864  0.74800933  1  0.07632  0.065222  -8e-06  1.051804  0.0
H  H50  1  0.84964404  0.27730586  0.24759999  1  0.082812  0.084882  5e-06  1.0456  0.0
H  H51  1  0.15034678  0.72269906  0.75239516  1  0.082807  0.084886  5e-06  1.045628  0.0
H  H52  1  0.00070369  0.27016376  0.36980033  1  0.084516  0.048966  2e-05  0.983551  0.0
H  H53  1  0.99928414  0.72984353  0.63019733  1  0.084527  0.048935  2e-05  0.983556  0.0
H  H54  1  0.08768200  0.08773781  0.57295818  1  0.106321  0.08403  -7e-06  0.987104  0.0
H  H55  1  0.91232367  0.91226142  0.42704381  1  0.106294  0.083929  -7e-06  0.987109  0.0
H  H56  1  0.07765709  0.26665928  0.57311605  1  0.107958  0.092503  6e-06  0.969777  0.0
H  H57  1  0.92234990  0.73333665  0.42688776  1  0.107958  0.092485  6e-06  0.969743  0.0
H  H58  1  0.71488537  0.69951107  0.11778702  1  0.286876  0.35353  -5e-06  0.972352  0.0
H  H59  1  0.28510782  0.30049063  0.88221313  1  0.286904  0.353559  -5e-06  0.972297  0.0
H  H60  1  0.58967696  0.85664773  0.08018475  1  0.275618  0.36084  2.8e-05  0.992555  0.0
H  H61  1  0.41031518  0.14335398  0.91981483  1  0.275607  0.360852  2.8e-05  0.992542  0.0
C  C62  1  0.28571970  0.29937789  0.15866969  1  -0.165384  -0.236597  -0.000687  3.857833  -0.001
C  C63  1  0.71427454  0.70062380  0.84133101  1  -0.165384  -0.236761  -0.000685  3.857831  -0.001
C  C64  1  0.19727911  0.95421235  0.98637320  1  0.052459  0.097472  0.000235  3.888358  0.0
C  C65  1  0.80271724  0.04577604  0.01362911  1  0.052492  0.097398  0.000235  3.888063  0.0
C  C66  1  0.34140219  0.03631466  0.14833494  1  0.222785  0.560976  0.000221  4.08151  0.001
C  C67  1  0.65859257  0.96368040  0.85166694  1  0.222735  0.560867  0.000224  4.081549  0.001
C  C68  1  0.33216338  0.77805817  0.86258147  1  -0.066504  -0.122696  0.001354  3.92936  0.001
C  C69  1  0.66784062  0.22193992  0.13741826  1  -0.066533  -0.122778  0.001351  3.929542  0.001
C  C70  1  0.49772741  0.51120067  0.30212648  1  0.055296  0.096246  0.000667  3.881036  0.0
C  C71  1  0.50227967  0.48880290  0.69787391  1  0.055243  0.096214  0.000667  3.881001  0.0
C  C72  1  0.15883967  0.01288542  0.89543526  1  -0.07637  -0.149579  0.00086  3.924144  0.001
C  C73  1  0.84115536  0.98710632  0.10456721  1  -0.076399  -0.149509  0.000857  3.92422  0.001
C  C74  1  0.19922435  0.97662491  0.72965817  1  0.234197  0.459374  9.6e-05  4.148483  0.0
C  C75  1  0.80077947  0.02337096  0.27034133  1  0.234183  0.459459  9.6e-05  4.148319  0.0
C  C76  1  0.22849739  0.92449310  0.83071434  1  0.010118  0.022139  -0.000168  3.9366  0.0
C  C77  1  0.77150160  0.07550177  0.16928451  1  0.010104  0.022024  -0.000167  3.93675  0.0
C  C78  1  0.36618660  0.72709809  0.95436067  1  0.059124  0.097873  0.001088  3.882028  0.001
C  C79  1  0.63381889  0.27289890  0.04564044  1  0.059153  0.097974  0.001088  3.882015  0.001
C  C80  1  0.22011776  0.18165629  0.17271816  1  -0.013103  0.053678  -0.001222  3.759296  -0.001
C  C81  1  0.77987675  0.81834209  0.82728313  1  -0.013046  0.053881  -0.00122  3.759112  -0.001
C  C82  1  0.54143513  0.72433732  0.28254920  1  0.040868  0.064707  0.001157  3.919413  0.001
C  C83  1  0.45856930  0.27565959  0.71744872  1  0.040924  0.064849  0.001157  3.91926  0.001
C  C84  1  0.21338295  0.56966560  0.16917615  1  0.21542  0.554481  -0.000937  4.08696  -0.001
C  C85  1  0.78662184  0.43033579  0.83082355  1  0.215292  0.554335  -0.000938  4.087197  -0.001
C  C86  1  0.10625551  0.41027037  0.28391943  1  -0.163132  -0.222266  -8.8e-05  3.858822  0.0
C  C87  1  0.89373724  0.58973241  0.71607989  1  -0.163158  -0.222479  -8.7e-05  3.858835  0.0
C  C88  1  0.16210708  0.44346023  0.18261242  1  -0.016422  0.042979  0.001497  3.79505  0.002
C  C89  1  0.83789472  0.55654351  0.81738912  1  -0.016321  0.043301  0.001496  3.794772  0.002
C  C90  1  0.08253743  0.24237068  0.11129971  1  -0.166967  -0.229099  4.8e-05  3.849566  0.0
C  C91  1  0.91745506  0.75763545  0.88869968  1  -0.167025  -0.229054  4.6e-05  3.849457  0.0
C  C92  1  0.62719293  0.66407242  0.35987250  1  -0.073956  -0.134733  0.000717  3.944368  0.001
C  C93  1  0.37282012  0.33592643  0.64012287  1  -0.074066  -0.134797  0.000717  3.944495  0.001
C  C94  1  0.86402306  0.24370775  0.61683307  1  -0.060832  -0.034945  3.8e-05  3.9124  0.0
C  C95  1  0.13598156  0.75629145  0.38316706  1  -0.060878  -0.03508  3.8e-05  3.912418  0.0
C  C96  1  0.58345992  0.44376327  0.37980224  1  -0.070485  -0.140664  0.000477  3.944491  0.0
C  C97  1  0.41655375  0.55623678  0.62019682  1  -0.070444  -0.140664  0.00048  3.944693  0.0
C  C98  1  0.02611750  0.50239799  0.12038576  1  -0.161258  -0.217824  -0.000172  3.862961  0.0
C  C99  1  0.97388027  0.49760803  0.87961444  1  -0.16117  -0.217636  -0.000171  3.862728  0.0
C  C100  1  0.16217782  0.14957847  0.27348618  1  -0.164114  -0.224694  -9.8e-05  3.874533  0.0
C  C101  1  0.83781257  0.85042773  0.72651406  1  -0.164109  -0.224743  -9.9e-05  3.87432  0.0
C  C102  1  0.95950699  0.38625906  0.13510042  1  -0.093456  0.044604  -3e-05  3.863868  0.0
C  C103  1  0.04048523  0.61375038  0.86489838  1  -0.093445  0.044476  -3e-05  3.864063  0.0
C  C104  1  0.65053143  0.52049656  0.41024028  1  0.005714  0.006244  0.000518  3.979934  0.0
C  C105  1  0.34948839  0.47950107  0.58975728  1  0.005704  0.006222  0.000515  3.979957  0.0
C  C106  1  0.90413550  0.35572594  0.23542630  1  -0.175886  -0.223132  7e-06  3.892148  0.0
C  C107  1  0.09585488  0.64428026  0.76457395  1  -0.175993  -0.223363  9e-06  3.89256  0.0
C  C108  1  0.03960191  0.29404890  0.29754623  1  -0.091545  0.054356  -2e-06  3.845666  0.0
C  C109  1  0.96038697  0.70595838  0.70245199  1  -0.091494  0.05458  -2e-06  3.845589  0.0
C  C110  1  0.03940237  0.17860227  0.61000856  1  -0.058194  -0.0268  2.6e-05  3.896574  0.0
C  C111  1  0.96060417  0.82139475  0.38999442  1  -0.058177  -0.026579  2.5e-05  3.896328  0.0
C  C112  1  0.74206449  0.46132199  0.49429997  1  0.235171  0.45584  0.000108  4.181375  0.0
C  C113  1  0.25795163  0.53866914  0.50569918  1  0.2352  0.455796  0.000108  4.181427  0.0
N  N114  1  0.30100272  0.81424454  0.01592968  1  -0.323578  -0.151307  0.015124  3.59495  0.013
N  N115  1  0.69899987  0.18574922  0.98407232  1  -0.323582  -0.151341  0.015122  3.594751  0.013
N  N116  1  0.47621163  0.64942913  0.25306382  1  -0.329488  -0.180505  0.011245  3.614436  0.008
N  N117  1  0.52379044  0.35057122  0.74693568  1  -0.329455  -0.180515  0.01124  3.614258  0.008
N  N118  1  0.09488395  0.11804411  0.70229058  1  -0.420861  -0.354376  -4.3e-05  3.539476  0.0
N  N119  1  0.90512330  0.88194845  0.29771183  1  -0.420944  -0.35454  -4.4e-05  3.539524  0.0
N  N120  1  0.79280031  0.31209289  0.52926201  1  -0.420291  -0.35813  0.000159  3.576734  0.0
N  N121  1  0.20721494  0.68790045  0.47073615  1  -0.420254  -0.358013  0.000158  3.576635  0.0
O  O122  1  0.11929069  0.69166516  0.18746306  1  -0.310686  -0.558302  0.000396  2.27711  0.001
O  O123  1  0.88072447  0.30833377  0.81253671  1  -0.310633  -0.558378  0.000395  2.277208  0.001
O  O124  1  0.35317830  0.54817458  0.14003236  1  -0.290745  -0.486734  -0.0095  2.31164  -0.009
O  O125  1  0.64682833  0.45181675  0.85996572  1  -0.290743  -0.486655  -0.009499  2.31181  -0.009
O  O126  1  0.28951071  0.93358676  0.16233240  1  -0.309346  -0.51122  -0.021867  2.472987  -0.023
O  O127  1  0.71048573  0.06640939  0.83767043  1  -0.309362  -0.511252  -0.021862  2.473  -0.023
O  O128  1  0.47438071  0.02062861  0.12060576  1  -0.297867  -0.504948  -0.00013  2.180407  0.0
O  O129  1  0.52560950  0.97937539  0.87939491  1  -0.297821  -0.504889  -0.000132  2.180387  0.0
O  O130  1  0.26860162  0.89164773  0.67614487  1  -0.324208  -0.523099  2.1e-05  2.095042  0.0
O  O131  1  0.73140246  0.10834485  0.32385588  1  -0.324146  -0.523089  2.3e-05  2.095017  0.0
O  O132  1  0.76543711  0.54663998  0.52986204  1  -0.298864  -0.488463  5.2e-05  2.102655  0.0
O  O133  1  0.23457919  0.45335343  0.47013931  1  -0.298877  -0.48845  5.5e-05  2.102751  0.0
O  O134  1  0.65245058  0.75721161  0.06509690  1  -0.590344  -0.757737  0.007011  2.003675  0.006
O  O135  1  0.34753803  0.24278578  0.93490384  1  -0.590361  -0.757769  0.007007  2.003699  0.006
