# generated using pymatgen
data_TbAgH8C18(NO2)4
_symmetry_space_group_name_H-M   'P 1'
_cell_length_a   8.53788733
_cell_length_b   17.65630180
_cell_length_c   25.00296667
_cell_angle_alpha   90.00001715
_cell_angle_beta   90.00000910
_cell_angle_gamma   89.99998079
_symmetry_Int_Tables_number   1
_chemical_formula_structural   TbAgH8C18(NO2)4
_chemical_formula_sum   'Tb8 Ag8 H64 C144 N32 O64'
_cell_volume   3769.13510367
_cell_formula_units_Z   8
loop_
 _symmetry_equiv_pos_site_id
 _symmetry_equiv_pos_as_xyz
  1  'x, y, z'
loop_
 _atom_site_type_symbol
 _atom_site_label
 _atom_site_symmetry_multiplicity
 _atom_site_fract_x
 _atom_site_fract_y
 _atom_site_fract_z
 _atom_site_occupancy
 _atom_site_pbe_bader_charge
 _atom_site_pbe_bader_spin_density
 _atom_site_pbe_cm5_charge
 _atom_site_pbe_ddec_charge
 _atom_site_pbe_ddec_spin_density
 _atom_site_pbe_ddec_sum_bond_order
 _atom_site_pbe_magmom
Tb  Tb0  1  0.66541887  0.21621700  0.97476157  1  2.179503  0  1.525852  2.101735  0  2.165352  0
Tb  Tb1  1  0.83458005  0.21621690  0.52523852  1  2.179495  0  1.525842  2.101734  0  2.165396  0
Tb  Tb2  1  0.16542022  0.28378309  0.02523824  1  2.179489  0  1.52584  2.101729  0  2.165422  0
Tb  Tb3  1  0.33458044  0.28378260  0.47476170  1  2.179502  0  1.525853  2.101734  0  2.165386  0
Tb  Tb4  1  0.33458133  0.78378302  0.02523790  1  2.179486  0  1.525835  2.101752  0  2.165353  0
Tb  Tb5  1  0.16541898  0.78378313  0.47476175  1  2.17948  0  1.525838  2.101744  0  2.165373  0
Tb  Tb6  1  0.83458115  0.71621694  0.97476163  1  2.179503  0  1.525855  2.101738  0  2.165393  0
Tb  Tb7  1  0.66541859  0.71621686  0.52523857  1  2.179496  0  1.525844  2.101718  0  2.165428  0
Ag  Ag8  1  0.96235873  0.04510342  0.27294284  1  0.505535  0  0.482155  0.30979  0  1.903867  0
Ag  Ag9  1  0.53764124  0.04510345  0.22705708  1  0.505898  0  0.482159  0.309818  0  1.903857  0
Ag  Ag10  1  0.46236147  0.45489662  0.72705698  1  0.505902  0  0.482172  0.309829  0  1.903898  0
Ag  Ag11  1  0.03764166  0.45489723  0.77294273  1  0.505539  0  0.48218  0.309834  0  1.903915  0
Ag  Ag12  1  0.03763913  0.95489661  0.72705662  1  0.505891  0  0.482186  0.30984  0  1.903918  0
Ag  Ag13  1  0.46236013  0.95489658  0.77294319  1  0.505543  0  0.482173  0.309843  0  1.903867  0
Ag  Ag14  1  0.53763991  0.54510397  0.27294328  1  0.505897  0  0.482172  0.309831  0  1.903852  0
Ag  Ag15  1  0.96235855  0.54510223  0.22705754  1  0.505541  0  0.482159  0.309808  0  1.903864  0
H  H16  1  0.56752778  0.65372521  0.08920670  1  0.538179  0  0.333773  0.298884  0  0.945648  0
H  H17  1  0.93247177  0.65372468  0.41079295  1  0.538185  0  0.333779  0.298898  0  0.945634  0
H  H18  1  0.06752717  0.84627480  0.91079281  1  0.538174  0  0.333788  0.29892  0  0.945595  0
H  H19  1  0.43247217  0.84627414  0.58920658  1  0.538175  0  0.333782  0.298907  0  0.945597  0
H  H20  1  0.43247359  0.34627482  0.91079317  1  0.538177  0  0.333778  0.298899  0  0.945617  0
H  H21  1  0.06752843  0.34627478  0.58920692  1  0.538186  0  0.333778  0.298902  0  0.945629  0
H  H22  1  0.93247187  0.15372579  0.08920706  1  0.538176  0  0.33378  0.298905  0  0.9456  0
H  H23  1  0.56752803  0.15372589  0.41079288  1  0.538174  0  0.333775  0.298895  0  0.945614  0
H  H24  1  0.21723848  0.87900798  0.12810130  1  0.56952  0  0.313109  0.29547  0  0.994812  0
H  H25  1  0.28276177  0.87900746  0.37189877  1  0.569455  0  0.3131  0.295411  0  0.994884  0
H  H26  1  0.71723714  0.62099257  0.87189862  1  0.569405  0  0.313097  0.295424  0  0.994885  0
H  H27  1  0.78276266  0.62099195  0.62810115  1  0.569409  0  0.313116  0.295474  0  0.994795  0
H  H28  1  0.78276289  0.12099262  0.87189897  1  0.569404  0  0.313098  0.295409  0  0.994892  0
H  H29  1  0.71723843  0.12099200  0.62810110  1  0.569486  0  0.313112  0.295457  0  0.994834  0
H  H30  1  0.28276306  0.37900803  0.12810125  1  0.569416  0  0.313114  0.295471  0  0.9948  0
H  H31  1  0.21723754  0.37900695  0.37189831  1  0.5694  0  0.313099  0.295405  0  0.994884  0
H  H32  1  0.91421200  0.41282480  0.14536202  1  0.093789  0  0.108054  0.121231  0  1.006956  0
H  H33  1  0.58578771  0.41282487  0.35463798  1  0.09379  0  0.108041  0.12123  0  1.006944  0
H  H34  1  0.41421271  0.08717469  0.85463780  1  0.093782  0  0.108062  0.121242  0  1.006934  0
H  H35  1  0.08578832  0.08717467  0.64536223  1  0.093797  0  0.108038  0.121226  0  1.006934  0
H  H36  1  0.08578703  0.58717523  0.85463825  1  0.093789  0  0.108055  0.121226  0  1.006948  0
H  H37  1  0.41421249  0.58717516  0.64536229  1  0.093785  0  0.108039  0.121234  0  1.006945  0
H  H38  1  0.58578749  0.91282591  0.14536206  1  0.093789  0  0.108039  0.121265  0  1.006864  0
H  H39  1  0.91421188  0.91282479  0.35463804  1  0.093805  0  0.10806  0.121253  0  1.006891  0
H  H40  1  0.76236990  0.68621389  0.16428740  1  0.165662  0  0.150241  0.123412  0  0.957843  0
H  H41  1  0.73762963  0.68621449  0.33571265  1  0.165648  0  0.150238  0.123411  0  0.957841  0
H  H42  1  0.26236927  0.81378609  0.83571252  1  0.165662  0  0.150235  0.123415  0  0.95783  0
H  H43  1  0.23762892  0.81378605  0.66428726  1  0.16565  0  0.150237  0.123398  0  0.95787  0
H  H44  1  0.23763030  0.31378614  0.83571287  1  0.165666  0  0.150244  0.123431  0  0.957838  0
H  H45  1  0.26237175  0.31378610  0.66428721  1  0.165653  0  0.150237  0.123399  0  0.957874  0
H  H46  1  0.73763093  0.18621451  0.16428774  1  0.165652  0  0.150233  0.123396  0  0.957776  0
H  H47  1  0.76237128  0.18621398  0.33571260  1  0.16566  0  0.150237  0.123408  0  0.957857  0
H  H48  1  0.45392712  0.51271266  0.04261901  1  0.090127  0  0.111555  0.126255  0  1.030662  0
H  H49  1  0.04607339  0.51271278  0.45738058  1  0.090118  0  0.111563  0.126254  0  1.030676  0
H  H50  1  0.95392674  0.98728785  0.95738052  1  0.090136  0  0.111536  0.126226  0  1.030735  0
H  H51  1  0.54607399  0.98728723  0.54261933  1  0.090252  0  0.11156  0.126256  0  1.030639  0
H  H52  1  0.54607543  0.48728737  0.95738046  1  0.090221  0  0.111506  0.126226  0  1.030682  0
H  H53  1  0.95392681  0.48728725  0.54261929  1  0.090259  0  0.11156  0.126255  0  1.030655  0
H  H54  1  0.04607464  0.01271275  0.04261935  1  0.090233  0  0.111562  0.126254  0  1.030637  0
H  H55  1  0.45392504  0.01271337  0.45738094  1  0.090074  0  0.111545  0.12621  0  1.030656  0
H  H56  1  0.38751942  0.99821865  0.06117446  1  0.142928  0  0.123095  0.146288  0  0.979434  0
H  H57  1  0.11247957  0.99821818  0.43882563  1  0.142912  0  0.1231  0.146286  0  0.979431  0
H  H58  1  0.88752054  0.50178131  0.93882587  1  0.14291  0  0.123095  0.14627  0  0.979467  0
H  H59  1  0.61247935  0.50178125  0.56117428  1  0.142914  0  0.123097  0.146267  0  0.979466  0
H  H60  1  0.61248078  0.00178138  0.93882581  1  0.14292  0  0.123087  0.146279  0  0.979447  0
H  H61  1  0.88752180  0.00178128  0.56117423  1  0.142912  0  0.123097  0.146261  0  0.979468  0
H  H62  1  0.11248083  0.49821815  0.06117440  1  0.142915  0  0.123087  0.146269  0  0.979405  0
H  H63  1  0.38752086  0.49821764  0.43882519  1  0.142912  0  0.123079  0.146254  0  0.979496  0
H  H64  1  0.04559299  0.88679786  0.20634921  1  0.206742  0  0.141192  0.114165  0  0.988853  0
H  H65  1  0.45440726  0.88679672  0.29365086  1  0.206708  0  0.141186  0.114167  0  0.988847  0
H  H66  1  0.54559279  0.61320328  0.79365110  1  0.206709  0  0.141191  0.11418  0  0.988831  0
H  H67  1  0.95440702  0.61320266  0.70634867  1  0.20672  0  0.141197  0.114186  0  0.988829  0
H  H68  1  0.95440721  0.11320273  0.79365146  1  0.206721  0  0.141201  0.114199  0  0.988827  0
H  H69  1  0.54559294  0.11320275  0.70634861  1  0.206722  0  0.141204  0.114201  0  0.988813  0
H  H70  1  0.45440741  0.38679731  0.20634877  1  0.206721  0  0.141192  0.114178  0  0.988838  0
H  H71  1  0.04559201  0.38679567  0.29365080  1  0.206677  0  0.141166  0.114141  0  0.988861  0
H  H72  1  0.17226743  0.16499155  0.20770737  1  0.075505  0  0.108091  0.12648  0  0.996243  0
H  H73  1  0.32773214  0.16499098  0.29229294  1  0.075774  0  0.108089  0.126479  0  0.996269  0
H  H74  1  0.67226825  0.33500911  0.79229243  1  0.075516  0  0.108105  0.12647  0  0.9963  0
H  H75  1  0.82773175  0.33500852  0.70770728  1  0.075762  0  0.108076  0.126459  0  0.996286  0
H  H76  1  0.82773160  0.83500848  0.79229289  1  0.075521  0  0.108096  0.126488  0  0.996234  0
H  H77  1  0.67226806  0.83500848  0.70770693  1  0.075767  0  0.108093  0.126485  0  0.996238  0
H  H78  1  0.32773312  0.66499148  0.20770703  1  0.075517  0  0.108084  0.126477  0  0.996286  0
H  H79  1  0.17226494  0.66499038  0.29229299  1  0.075774  0  0.108083  0.126487  0  0.996315  0
C  C80  1  0.80870817  0.31296300  0.07533991  1  1.601228  0  0.229925  0.652248  0  4.163012  0
C  C81  1  0.69129162  0.31296365  0.42466046  1  1.601052  0  0.229916  0.652275  0  4.162937  0
C  C82  1  0.30870767  0.18703594  0.92466030  1  1.601208  0  0.229894  0.652249  0  4.162997  0
C  C83  1  0.19129212  0.18703644  0.57533975  1  1.60105  0  0.229901  0.652223  0  4.162987  0
C  C84  1  0.19129203  0.68703647  0.92466035  1  1.601042  0  0.229915  0.652289  0  4.162969  0
C  C85  1  0.30870859  0.68703638  0.57533981  1  1.60125  0  0.229943  0.652283  0  4.162858  0
C  C86  1  0.69129253  0.81296409  0.07533996  1  1.60121  0  0.229879  0.652233  0  4.163027  0
C  C87  1  0.80870573  0.81296359  0.42466051  1  1.601022  0  0.229881  0.652256  0  4.162987  0
C  C88  1  0.74021813  0.38997460  0.08506757  1  0.036508  0  -0.007384  -0.047856  0  3.901779  0
C  C89  1  0.75977926  0.38997580  0.41493322  1  0.036487  0  -0.007363  -0.04778  0  3.901713  0
C  C90  1  0.24021885  0.11002491  0.91493225  1  0.036506  0  -0.007371  -0.04786  0  3.901816  0
C  C91  1  0.25977982  0.11002428  0.58506619  1  0.036484  0  -0.00737  -0.047791  0  3.901709  0
C  C92  1  0.25977973  0.61002486  0.91493310  1  0.036489  0  -0.00739  -0.0478  0  3.901765  0
C  C93  1  0.24022095  0.61002423  0.58506664  1  0.036496  0  -0.007364  -0.047784  0  3.901734  0
C  C94  1  0.75978252  0.88997512  0.08506762  1  0.036381  0  -0.007361  -0.047829  0  3.901788  0
C  C95  1  0.74021452  0.88997519  0.41493248  1  0.036167  0  -0.00732  -0.04781  0  3.901732  0
C  C96  1  0.81508559  0.43550566  0.12304347  1  0.026143  0  -0.081046  -0.161542  0  3.95296  0
C  C97  1  0.68491411  0.43550629  0.37695653  1  0.026144  0  -0.081044  -0.161541  0  3.952982  0
C  C98  1  0.31508516  0.06449441  0.87695595  1  0.026132  0  -0.081071  -0.161572  0  3.952999  0
C  C99  1  0.18491472  0.06449380  0.62304328  1  0.026148  0  -0.081037  -0.161542  0  3.952977  0
C  C100  1  0.18491578  0.56449437  0.87695600  1  0.026147  0  -0.081052  -0.16156  0  3.952988  0
C  C101  1  0.31508610  0.56449374  0.62304333  1  0.026136  0  -0.081049  -0.1616  0  3.952989  0
C  C102  1  0.68491504  0.93550618  0.12304432  1  0.026141  0  -0.081036  -0.16154  0  3.9529  0
C  C103  1  0.81508197  0.93550509  0.37695619  1  0.026161  0  -0.081036  -0.161487  0  3.952885  0
C  C104  1  0.76370401  0.50971090  0.12982267  1  0.331794  0  0.083594  0.120678  0  4.070678  0
C  C105  1  0.73629564  0.50971151  0.37017735  1  0.331779  0  0.08356  0.120535  0  4.07079  0
C  C106  1  0.26370444  0.99028908  0.87017685  1  0.33177  0  0.083578  0.12066  0  4.07072  0
C  C107  1  0.23629480  0.99028903  0.62982297  1  0.331779  0  0.083589  0.120613  0  4.070678  0
C  C108  1  0.23629737  0.49028970  0.87017720  1  0.331572  0  0.083614  0.120682  0  4.070615  0
C  C109  1  0.26370573  0.49028908  0.62982292  1  0.33176  0  0.083628  0.120762  0  4.070581  0
C  C110  1  0.73629693  0.00971095  0.12982342  1  0.331779  0  0.08356  0.120559  0  4.070792  0
C  C111  1  0.76370424  0.00971100  0.37017729  1  0.331777  0  0.083577  0.120583  0  4.070752  0
C  C112  1  0.73975074  0.62997957  0.14857246  1  1.036414  0  0.176384  0.197289  0  3.884436  0
C  C113  1  0.76024883  0.62997962  0.35142798  1  1.036496  0  0.17637  0.197272  0  3.884499  0
C  C114  1  0.23974891  0.87002040  0.85142746  1  1.036577  0  0.176377  0.197289  0  3.884432  0
C  C115  1  0.26024924  0.87002036  0.64857234  1  1.036494  0  0.176383  0.197303  0  3.884524  0
C  C116  1  0.26024947  0.37002045  0.85142781  1  1.03649  0  0.17635  0.197201  0  3.884454  0
C  C117  1  0.23975137  0.37002041  0.64857228  1  1.036422  0  0.176357  0.197267  0  3.884423  0
C  C118  1  0.76025013  0.12997962  0.14857240  1  1.036489  0  0.176378  0.197308  0  3.884444  0
C  C119  1  0.73974979  0.12997967  0.35142793  1  1.036485  0  0.176377  0.197273  0  3.884584  0
C  C120  1  0.64173470  0.53889198  0.09783686  1  0.402234  0  0.108652  0.176432  0  3.982026  0
C  C121  1  0.85826609  0.53889203  0.40216276  1  0.402232  0  0.108661  0.17648  0  3.982013  0
C  C122  1  0.14173518  0.96110801  0.90216265  1  0.402245  0  0.108666  0.17642  0  3.982027  0
C  C123  1  0.35826525  0.96110793  0.59783717  1  0.402261  0  0.10864  0.176432  0  3.982013  0
C  C124  1  0.35826667  0.46110805  0.90216260  1  0.402435  0  0.108628  0.176361  0  3.98202  0
C  C125  1  0.14173528  0.46110857  0.59783751  1  0.402252  0  0.108623  0.176295  0  3.982055  0
C  C126  1  0.85826502  0.03889201  0.09783722  1  0.402229  0  0.108683  0.176502  0  3.981989  0
C  C127  1  0.64173378  0.03889210  0.40216270  1  0.402249  0  0.10866  0.176451  0  3.982027  0
C  C128  1  0.55723957  0.49251817  0.06347573  1  0.051277  0  -0.083053  -0.173055  0  3.943683  0
C  C129  1  0.94276009  0.49251878  0.43652388  1  0.051297  0  -0.083041  -0.172999  0  3.94354  0
C  C130  1  0.05724037  0.00748138  0.93652407  1  0.05129  0  -0.083006  -0.172934  0  3.943576  0
C  C131  1  0.44276072  0.00748183  0.56347595  1  0.05129  0  -0.083067  -0.173062  0  3.943666  0
C  C132  1  0.44276180  0.50748186  0.93652373  1  0.051259  0  -0.083014  -0.172983  0  3.943563  0
C  C133  1  0.05723894  0.50748181  0.56347639  1  0.051288  0  -0.083084  -0.173043  0  3.943639  0
C  C134  1  0.94276100  0.99251922  0.06347620  1  0.051303  0  -0.08305  -0.173005  0  3.943473  0
C  C135  1  0.55723831  0.99251933  0.43652432  1  0.051294  0  -0.082946  -0.172829  0  3.943468  0
C  C136  1  0.60689825  0.41775052  0.05689891  1  -0.053979  0  -0.002656  -0.039958  0  3.888858  0
C  C137  1  0.89310146  0.41775115  0.44310109  1  -0.053865  0  -0.002669  -0.04002  0  3.888742  0
C  C138  1  0.10689783  0.08224901  0.94310090  1  -0.053869  0  -0.002686  -0.040027  0  3.888755  0
C  C139  1  0.39310203  0.08224891  0.55689873  1  -0.05389  0  -0.002653  -0.039959  0  3.888836  0
C  C140  1  0.39310312  0.58224950  0.94310096  1  -0.053808  0  -0.002625  -0.039978  0  3.888708  0
C  C141  1  0.10689757  0.58224888  0.55689878  1  -0.053866  0  -0.002634  -0.039934  0  3.888801  0
C  C142  1  0.89310354  0.91775102  0.05689897  1  -0.05371  0  -0.002663  -0.040009  0  3.888748  0
C  C143  1  0.60689465  0.91775169  0.44310113  1  -0.053637  0  -0.002773  -0.040163  0  3.888854  0
C  C144  1  0.51095766  0.37247887  0.01771435  1  1.612591  0  0.240909  0.658997  0  4.143616  0
C  C145  1  0.98904325  0.37247893  0.48228523  1  1.612484  0  0.240905  0.65899  0  4.143683  0
C  C146  1  0.01095840  0.12752125  0.98228545  1  1.612479  0  0.240879  0.658963  0  4.143546  0
C  C147  1  0.48904261  0.12752168  0.51771499  1  1.61249  0  0.240886  0.658937  0  4.143725  0
C  C148  1  0.48904371  0.62752173  0.98228511  1  1.612478  0  0.240888  0.658983  0  4.14366  0
C  C149  1  0.01095578  0.62752110  0.51771463  1  1.612492  0  0.240882  0.658935  0  4.143532  0
C  C150  1  0.98904297  0.87247878  0.01771442  1  1.612483  0  0.240878  0.658959  0  4.143692  0
C  C151  1  0.51095760  0.87247892  0.48228647  1  1.61258  0  0.24092  0.659056  0  4.14338  0
C  C152  1  0.45100146  0.14543643  0.04676408  1  1.528472  0  0.209524  0.613637  0  4.170091  0
C  C153  1  0.04899813  0.14543655  0.45323623  1  1.528444  0  0.209512  0.613548  0  4.170184  0
C  C154  1  0.95100117  0.35456305  0.95323615  1  1.528445  0  0.209519  0.613568  0  4.170086  0
C  C155  1  0.54899765  0.35456356  0.54676397  1  1.528458  0  0.209471  0.613555  0  4.170113  0
C  C156  1  0.54899874  0.85456416  0.95323579  1  1.528224  0  0.209519  0.613608  0  4.170115  0
C  C157  1  0.95100090  0.85456348  0.54676403  1  1.528449  0  0.209551  0.613702  0  4.169994  0
C  C158  1  0.04899786  0.64543641  0.04676412  1  1.528448  0  0.209576  0.613747  0  4.170069  0
C  C159  1  0.45100021  0.64543590  0.45323590  1  1.528436  0  0.209459  0.613467  0  4.170329  0
C  C160  1  0.36561853  0.11157545  0.09293419  1  0.07831  0  -0.01252  -0.051529  0  3.944303  0
C  C161  1  0.13438108  0.11157497  0.40706611  1  0.07831  0  -0.012515  -0.051498  0  3.944342  0
C  C162  1  0.86561937  0.38842518  0.90706603  1  0.078313  0  -0.012489  -0.051451  0  3.944258  0
C  C163  1  0.63437942  0.38842513  0.59293410  1  0.078327  0  -0.01252  -0.05146  0  3.944295  0
C  C164  1  0.63438050  0.88842514  0.90706607  1  0.078302  0  -0.012515  -0.051465  0  3.944299  0
C  C165  1  0.86562030  0.88842506  0.59293416  1  0.078306  0  -0.012523  -0.051526  0  3.944329  0
C  C166  1  0.13438200  0.61157485  0.09293344  1  0.078299  0  -0.012551  -0.051546  0  3.944403  0
C  C167  1  0.36561726  0.61157490  0.40706617  1  0.078357  0  -0.012473  -0.051413  0  3.944274  0
C  C168  1  0.34090987  0.03317795  0.09337813  1  0.007288  0  -0.073848  -0.155061  0  3.908725  0
C  C169  1  0.15908979  0.03317746  0.40662216  1  0.007281  0  -0.073869  -0.155105  0  3.908795  0
C  C170  1  0.84091066  0.46682268  0.90662209  1  0.007286  0  -0.073862  -0.155074  0  3.908816  0
C  C171  1  0.65908926  0.46682263  0.59337805  1  0.007279  0  -0.073862  -0.155079  0  3.908768  0
C  C172  1  0.65909033  0.96682208  0.90662213  1  0.007277  0  -0.073847  -0.155074  0  3.908826  0
C  C173  1  0.84091158  0.96682257  0.59337811  1  0.007278  0  -0.073842  -0.155008  0  3.908769  0
C  C174  1  0.15909072  0.53317735  0.09337778  1  0.007279  0  -0.073854  -0.15508  0  3.90879  0
C  C175  1  0.34090977  0.53317683  0.40662181  1  0.007295  0  -0.073852  -0.155073  0  3.908754  0
C  C176  1  0.25094033  0.00362817  0.13502798  1  0.320173  0  0.090749  0.126347  0  4.033883  0
C  C177  1  0.24906170  0.00362766  0.36497310  1  0.32012  0  0.090757  0.126374  0  4.033974  0
C  C178  1  0.75093873  0.49637247  0.86497263  1  0.320169  0  0.090742  0.126347  0  4.034016  0
C  C179  1  0.74906116  0.49637242  0.63502752  1  0.320173  0  0.090743  0.126327  0  4.033963  0
C  C180  1  0.74906221  0.99637185  0.86497268  1  0.32012  0  0.090755  0.126344  0  4.033999  0
C  C181  1  0.75093967  0.99637181  0.63502717  1  0.320165  0  0.090744  0.12632  0  4.033961  0
C  C182  1  0.24906147  0.50362812  0.13502724  1  0.320125  0  0.090768  0.126388  0  4.03399  0
C  C183  1  0.25093787  0.50362647  0.36497275  1  0.32011  0  0.090742  0.126332  0  4.033965  0
C  C184  1  0.10425502  0.93649852  0.19035951  1  0.979923  0  0.163315  0.183039  0  3.912248  0
C  C185  1  0.39574519  0.93649796  0.30964057  1  0.979919  0  0.163347  0.183069  0  3.912269  0
C  C186  1  0.60425604  0.56350204  0.80964040  1  0.979925  0  0.163389  0.183119  0  3.91221  0
C  C187  1  0.89574498  0.56350143  0.69035936  1  0.979925  0  0.16332  0.183032  0  3.912312  0
C  C188  1  0.89574518  0.06350151  0.80964075  1  0.979916  0  0.163335  0.183041  0  3.912221  0
C  C189  1  0.60425618  0.06350150  0.69035970  1  0.979933  0  0.163408  0.183106  0  3.912205  0
C  C190  1  0.39574534  0.43649855  0.19035947  1  0.979907  0  0.163296  0.183007  0  3.912298  0
C  C191  1  0.10425405  0.43649690  0.30964011  1  0.979949  0  0.16339  0.183083  0  3.912214  0
C  C192  1  0.18583522  0.05135109  0.17499924  1  0.392313  0  0.075623  0.12062  0  4.103707  0
C  C193  1  0.31416326  0.05135055  0.32500105  1  0.39306  0  0.075614  0.120615  0  4.103772  0
C  C194  1  0.68583715  0.44864956  0.82500097  1  0.393049  0  0.075633  0.12065  0  4.103787  0
C  C195  1  0.81416395  0.44864952  0.67499917  1  0.393053  0  0.075627  0.120635  0  4.103772  0
C  C196  1  0.81416264  0.94864894  0.82500102  1  0.392295  0  0.075613  0.120619  0  4.103784  0
C  C197  1  0.68583694  0.94864948  0.67499922  1  0.393052  0  0.075625  0.120627  0  4.103774  0
C  C198  1  0.31416422  0.55135103  0.17499930  1  0.392304  0  0.075603  0.120582  0  4.103801  0
C  C199  1  0.18583391  0.55134937  0.32500110  1  0.39272  0  0.07566  0.120654  0  4.103723  0
C  C200  1  0.21802817  0.12883900  0.17593594  1  -0.046795  0  -0.098425  -0.207145  0  4.007752  0
C  C201  1  0.28197143  0.12883846  0.32406437  1  -0.047269  0  -0.098386  -0.207093  0  4.007736  0
C  C202  1  0.71802898  0.37116165  0.82406387  1  -0.047254  0  -0.098405  -0.207115  0  4.007783  0
C  C203  1  0.78197100  0.37116161  0.67593625  1  -0.047318  0  -0.098385  -0.207087  0  4.007734  0
C  C204  1  0.78197203  0.87116159  0.82406432  1  -0.046739  0  -0.098404  -0.207131  0  4.007722  0
C  C205  1  0.71802878  0.87116156  0.67593590  1  -0.04726  0  -0.09839  -0.207104  0  4.007715  0
C  C206  1  0.28197356  0.62883838  0.17593560  1  -0.046791  0  -0.098383  -0.207078  0  4.007783  0
C  C207  1  0.21802452  0.62883729  0.32406442  1  -0.04727  0  -0.098398  -0.207168  0  4.007882  0
C  C208  1  0.30872741  0.15889058  0.13471804  1  -0.045003  0  -0.00791  -0.049729  0  3.946837  0
C  C209  1  0.19127217  0.15888951  0.36528228  1  -0.045056  0  -0.00791  -0.04976  0  3.946857  0
C  C210  1  0.80872943  0.34111005  0.86528218  1  -0.045048  0  -0.007905  -0.049728  0  3.946861  0
C  C211  1  0.69127174  0.34111002  0.63471793  1  -0.044987  0  -0.007897  -0.049747  0  3.946842  0
C  C212  1  0.69127163  0.84111001  0.86528223  1  -0.045053  0  -0.007905  -0.049748  0  3.946835  0
C  C213  1  0.80872920  0.84110996  0.63471799  1  -0.045052  0  -0.007908  -0.04977  0  3.946874  0
C  C214  1  0.19127429  0.65888997  0.13471729  1  -0.044984  0  -0.007904  -0.049799  0  3.946895  0
C  C215  1  0.30872143  0.65888888  0.36528273  1  -0.045078  0  -0.007909  -0.049727  0  3.946938  0
C  C216  1  0.34773351  0.24240071  0.13948668  1  1.630889  0  0.217569  0.630842  0  4.175488  0
C  C217  1  0.15226718  0.24240020  0.36051325  1  1.630913  0  0.217603  0.630872  0  4.17537  0
C  C218  1  0.84773325  0.25759992  0.86051314  1  1.630881  0  0.217563  0.630799  0  4.175478  0
C  C219  1  0.65226564  0.25759989  0.63948696  1  1.630882  0  0.217539  0.630811  0  4.175504  0
C  C220  1  0.65226786  0.75759989  0.86051318  1  1.630946  0  0.217565  0.630811  0  4.175447  0
C  C221  1  0.84773420  0.75759983  0.63948662  1  1.630883  0  0.217579  0.630851  0  4.175366  0
C  C222  1  0.15226812  0.74240010  0.13948673  1  1.630933  0  0.217566  0.630821  0  4.175422  0
C  C223  1  0.34772988  0.74239900  0.36051291  1  1.630931  0  0.21751  0.6307  0  4.175551  0
N  N224  1  0.81930440  0.56786634  0.16229802  1  -1.188968  0  -0.386439  -0.314061  0  3.682208  0
N  N225  1  0.68069638  0.56786695  0.33770200  1  -1.189062  0  -0.3864  -0.313977  0  3.682209  0
N  N226  1  0.31930369  0.93213363  0.83770190  1  -1.189052  0  -0.386452  -0.314079  0  3.682218  0
N  N227  1  0.18069559  0.93213304  0.66229871  1  -1.189068  0  -0.386441  -0.314042  0  3.682256  0
N  N228  1  0.18069697  0.43213369  0.83770144  1  -1.18903  0  -0.386411  -0.313965  0  3.682136  0
N  N229  1  0.31930499  0.43213364  0.66229826  1  -1.188998  0  -0.386421  -0.314045  0  3.682163  0
N  N230  1  0.68069651  0.06786697  0.16229837  1  -1.189058  0  -0.386432  -0.314043  0  3.682217  0
N  N231  1  0.81930344  0.06786699  0.33770156  1  -1.189042  0  -0.386418  -0.313998  0  3.68219  0
N  N232  1  0.63148507  0.61485976  0.11046457  1  -1.256864  0  -0.359238  -0.239851  0  3.598164  0
N  N233  1  0.86851450  0.61486037  0.38953506  1  -1.256889  0  -0.359257  -0.239887  0  3.598161  0
N  N234  1  0.13148559  0.88514024  0.88953494  1  -1.256969  0  -0.359233  -0.239864  0  3.598107  0
N  N235  1  0.36851489  0.88514016  0.61046486  1  -1.256863  0  -0.35925  -0.239877  0  3.59813  0
N  N236  1  0.36851630  0.38514027  0.88953489  1  -1.256876  0  -0.359257  -0.239871  0  3.598196  0
N  N237  1  0.13148570  0.38514023  0.61046480  1  -1.256852  0  -0.359228  -0.23982  0  3.598181  0
N  N238  1  0.86851578  0.11486036  0.11046493  1  -1.256882  0  -0.359245  -0.239901  0  3.598204  0
N  N239  1  0.63148414  0.11486044  0.38953500  1  -1.256894  0  -0.359255  -0.239893  0  3.598232  0
N  N240  1  0.09349390  0.00763584  0.20866124  1  -1.192187  0  -0.393386  -0.308106  0  3.656957  0
N  N241  1  0.40650578  0.00763526  0.29133904  1  -1.191997  0  -0.393414  -0.308154  0  3.656991  0
N  N242  1  0.59349578  0.49236483  0.79133896  1  -1.192366  0  -0.393463  -0.308191  0  3.656951  0
N  N243  1  0.90650528  0.49236479  0.70866118  1  -1.192028  0  -0.393404  -0.308151  0  3.657085  0
N  N244  1  0.90650513  0.99236419  0.79133862  1  -1.192136  0  -0.393411  -0.308145  0  3.656905  0
N  N245  1  0.59349559  0.99236477  0.70866123  1  -1.192022  0  -0.393473  -0.308215  0  3.656959  0
N  N246  1  0.40650559  0.50763576  0.20866130  1  -1.192162  0  -0.39338  -0.308104  0  3.657013  0
N  N247  1  0.09349375  0.50763410  0.29133868  1  -1.191748  0  -0.393459  -0.308133  0  3.65692  0
N  N248  1  0.19736587  0.93152578  0.14705345  1  -1.278204  0  -0.362629  -0.248022  0  3.606756  0
N  N249  1  0.30263435  0.93152468  0.35294662  1  -1.278175  0  -0.362645  -0.248032  0  3.60681  0
N  N250  1  0.69736573  0.56847477  0.85294686  1  -1.278235  0  -0.362661  -0.248086  0  3.606865  0
N  N251  1  0.80263411  0.56847472  0.64705330  1  -1.278234  0  -0.362648  -0.248041  0  3.606771  0
N  N252  1  0.80263433  0.06847482  0.85294681  1  -1.278163  0  -0.362639  -0.248011  0  3.606811  0
N  N253  1  0.69736703  0.06847478  0.64705324  1  -1.278215  0  -0.362687  -0.248056  0  3.6068  0
N  N254  1  0.30263447  0.43152525  0.14705340  1  -1.278159  0  -0.362632  -0.248025  0  3.606752  0
N  N255  1  0.19736492  0.43152417  0.35294617  1  -1.278176  0  -0.362625  -0.24797  0  3.606896  0
O  O256  1  0.95600808  0.30621129  0.08267465  1  -1.203155  0  -0.408685  -0.682394  0  2.290778  0
O  O257  1  0.54399288  0.30621083  0.41732532  1  -1.203165  0  -0.408665  -0.682393  0  2.290774  0
O  O258  1  0.45600757  0.19378876  0.91732518  1  -1.203162  0  -0.408672  -0.682376  0  2.290763  0
O  O259  1  0.04399339  0.19378929  0.58267488  1  -1.203143  0  -0.408656  -0.682362  0  2.290785  0
O  O260  1  0.04399329  0.69378931  0.91732562  1  -1.203159  0  -0.408657  -0.682395  0  2.290812  0
O  O261  1  0.45600732  0.69378920  0.58267454  1  -1.203175  0  -0.408662  -0.682364  0  2.29076  0
O  O262  1  0.54399263  0.80621127  0.08267469  1  -1.203154  0  -0.408658  -0.682375  0  2.290771  0
O  O263  1  0.95600564  0.80621074  0.41732539  1  -1.203118  0  -0.408658  -0.682374  0  2.290755  0
O  O264  1  0.72107526  0.25870475  0.06055766  1  -1.205131  0  -0.403952  -0.670826  0  2.329441  0
O  O265  1  0.77892690  0.25870596  0.43944230  1  -1.204916  0  -0.403947  -0.670854  0  2.329401  0
O  O266  1  0.22107356  0.24129363  0.93944215  1  -1.205106  0  -0.403931  -0.670826  0  2.329423  0
O  O267  1  0.27892736  0.24129411  0.56055791  1  -1.204932  0  -0.40396  -0.670854  0  2.329424  0
O  O268  1  0.27892728  0.74129414  0.93944221  1  -1.204929  0  -0.403962  -0.670877  0  2.329415  0
O  O269  1  0.22107330  0.74129407  0.56055796  1  -1.205117  0  -0.40398  -0.670886  0  2.329313  0
O  O270  1  0.77892664  0.75870640  0.06055771  1  -1.205104  0  -0.403922  -0.670798  0  2.329392  0
O  O271  1  0.72107167  0.75870648  0.43944235  1  -1.204942  0  -0.403938  -0.670853  0  2.32943  0
O  O272  1  0.57803304  0.33998868  0.97805959  1  -1.21193  0  -0.407972  -0.696262  0  2.338016  0
O  O273  1  0.92196696  0.33998913  0.52194012  1  -1.211901  0  -0.407954  -0.696236  0  2.337993  0
O  O274  1  0.07803331  0.16001142  0.02194062  1  -1.21193  0  -0.407958  -0.696237  0  2.337852  0
O  O275  1  0.42196744  0.16001092  0.47805970  1  -1.21191  0  -0.407959  -0.696243  0  2.338026  0
O  O276  1  0.42196716  0.66001134  0.02194028  1  -1.21191  0  -0.407961  -0.696248  0  2.337965  0
O  O277  1  0.07803324  0.66001147  0.47805934  1  -1.211913  0  -0.40796  -0.696239  0  2.337809  0
O  O278  1  0.92196573  0.83998917  0.97805965  1  -1.211923  0  -0.407967  -0.696259  0  2.338021  0
O  O279  1  0.57803393  0.83998797  0.52194137  1  -1.211952  0  -0.408009  -0.696295  0  2.33782  0
O  O280  1  0.36401382  0.37414401  0.02410679  1  -1.185553  0  -0.386351  -0.638502  0  2.295234  0
O  O281  1  0.13598796  0.37414412  0.47589317  1  -1.185574  0  -0.386365  -0.638523  0  2.295306  0
O  O282  1  0.86401370  0.12585605  0.97589303  1  -1.185544  0  -0.386332  -0.63849  0  2.295315  0
O  O283  1  0.63598762  0.12585597  0.52410744  1  -1.185572  0  -0.386339  -0.638461  0  2.295311  0
O  O284  1  0.63598756  0.62585602  0.97589308  1  -1.185583  0  -0.386339  -0.638482  0  2.295294  0
O  O285  1  0.86401225  0.62585590  0.52410670  1  -1.185583  0  -0.386341  -0.63847  0  2.295306  0
O  O286  1  0.13598768  0.87414454  0.02410644  1  -1.185568  0  -0.38632  -0.638461  0  2.295255  0
O  O287  1  0.36401375  0.87414349  0.47589363  1  -1.185545  0  -0.386344  -0.63852  0  2.295216  0
O  O288  1  0.56235688  0.10988934  0.02415996  1  -1.169256  0  -0.372024  -0.607383  0  2.159085  0
O  O289  1  0.93764304  0.10988997  0.47583997  1  -1.169259  0  -0.372094  -0.607443  0  2.159132  0
O  O290  1  0.06235510  0.39011077  0.97584064  1  -1.169251  0  -0.372085  -0.607436  0  2.159024  0
O  O291  1  0.43764221  0.39011065  0.52415985  1  -1.169276  0  -0.371974  -0.607324  0  2.15904  0
O  O292  1  0.43764449  0.89011183  0.97584031  1  -1.169048  0  -0.372031  -0.607401  0  2.159101  0
O  O293  1  0.06235716  0.89011063  0.52415990  1  -1.169261  0  -0.372078  -0.607476  0  2.159014  0
O  O294  1  0.93764393  0.60988982  0.02416002  1  -1.169254  0  -0.372059  -0.607442  0  2.15915  0
O  O295  1  0.56235565  0.60988938  0.47583961  1  -1.169236  0  -0.372013  -0.607339  0  2.159196  0
O  O296  1  0.41174114  0.21188240  0.03022765  1  -1.198907  0  -0.404642  -0.734904  0  2.434069  0
O  O297  1  0.08825958  0.21188251  0.46977148  1  -1.198894  0  -0.404581  -0.734758  0  2.434069  0
O  O298  1  0.91174090  0.28811709  0.96977138  1  -1.198903  0  -0.404598  -0.734791  0  2.434089  0
O  O299  1  0.58825796  0.28811759  0.53022833  1  -1.198899  0  -0.404631  -0.734886  0  2.4341  0
O  O300  1  0.58825907  0.78811763  0.96977222  1  -1.198869  0  -0.404627  -0.734893  0  2.434093  0
O  O301  1  0.91174063  0.78811808  0.53022799  1  -1.198881  0  -0.404604  -0.734863  0  2.434107  0
O  O302  1  0.08825930  0.71188294  0.03022809  1  -1.198891  0  -0.404634  -0.734906  0  2.433991  0
O  O303  1  0.41173872  0.71188187  0.46977194  1  -1.198872  0  -0.404617  -0.734838  0  2.434102  0
O  O304  1  0.25749337  0.28813509  0.11291984  1  -1.198083  0  -0.412691  -0.674941  0  2.338877  0
O  O305  1  0.24250612  0.28813401  0.38708010  1  -1.198095  0  -0.412718  -0.674924  0  2.338853  0
O  O306  1  0.75749315  0.21186556  0.88707958  1  -1.198056  0  -0.412709  -0.674883  0  2.338877  0
O  O307  1  0.74250694  0.21186550  0.61292051  1  -1.198131  0  -0.412681  -0.674922  0  2.338874  0
O  O308  1  0.74250683  0.71186551  0.88708003  1  -1.198097  0  -0.41272  -0.67491  0  2.338886  0
O  O309  1  0.75749291  0.71186545  0.61292016  1  -1.198061  0  -0.41268  -0.674924  0  2.33882  0
O  O310  1  0.24250822  0.78813504  0.11292029  1  -1.198189  0  -0.412701  -0.674955  0  2.338825  0
O  O311  1  0.25749092  0.78813453  0.38708016  1  -1.198157  0  -0.412678  -0.674863  0  2.338827  0
O  O312  1  0.45335918  0.26196029  0.17086096  1  -1.169432  0  -0.328499  -0.542738  0  2.025422  0
O  O313  1  0.04664033  0.26196036  0.32913977  1  -1.169419  0  -0.328536  -0.542765  0  2.025382  0
O  O314  1  0.95336008  0.23803975  0.82913926  1  -1.169433  0  -0.328509  -0.542752  0  2.025416  0
O  O315  1  0.54664116  0.23803975  0.67086083  1  -1.16944  0  -0.328503  -0.542747  0  2.025434  0
O  O316  1  0.54664103  0.73803974  0.82913930  1  -1.169451  0  -0.328497  -0.542733  0  2.025399  0
O  O317  1  0.95335987  0.73803910  0.67086049  1  -1.169434  0  -0.328562  -0.542775  0  2.025363  0
O  O318  1  0.04664246  0.76196084  0.17086021  1  -1.169458  0  -0.328533  -0.542729  0  2.025401  0
O  O319  1  0.45335084  0.76195914  0.32913824  1  -1.169375  0  -0.328478  -0.542661  0  2.025521  0
