# generated using pymatgen
data_MnH5C7N6ClO2
_symmetry_space_group_name_H-M   'P 1'
_cell_length_a   6.87746833
_cell_length_b   11.76289504
_cell_length_c   12.90143151
_cell_angle_alpha   89.99820579
_cell_angle_beta   89.99763751
_cell_angle_gamma   106.19000384
_symmetry_Int_Tables_number   1
_chemical_formula_structural   MnH5C7N6ClO2
_chemical_formula_sum   'Mn4 H20 C28 N24 Cl4 O8'
_cell_volume   1002.32093339
_cell_formula_units_Z   4
loop_
 _symmetry_equiv_pos_site_id
 _symmetry_equiv_pos_as_xyz
  1  'x, y, z'
loop_
 _atom_site_type_symbol
 _atom_site_label
 _atom_site_symmetry_multiplicity
 _atom_site_fract_x
 _atom_site_fract_y
 _atom_site_fract_z
 _atom_site_occupancy
 _atom_site_hle17_ddec_charge
 _atom_site_hle17_ddec_spin_density
 _atom_site_hle17_ddec_sum_bond_order
 _atom_site_hle17_magmom
 _atom_site_hse06_10hf_ddec_charge
 _atom_site_hse06_10hf_ddec_spin_density
 _atom_site_hse06_10hf_ddec_sum_bond_order
 _atom_site_hse06_10hf_magmom
 _atom_site_hse06_ddec_charge
 _atom_site_hse06_ddec_spin_density
 _atom_site_hse06_ddec_sum_bond_order
 _atom_site_hse06_magmom
 _atom_site_pbe_cm5_charge
 _atom_site_pbe_ddec_charge
 _atom_site_pbe_ddec_spin_density
 _atom_site_pbe_ddec_sum_bond_order
 _atom_site_pbe_magmom
Mn  Mn0  1  0.01418586  0.28954798  0.83023690  1  1.047892  4.77835  1.936338  4.659  0.888978  4.698905  2.449486  4.516  0.948645  4.746806  2.380805  4.583  0.511142  0.842597  4.649326  2.499834  4.45
Mn  Mn1  1  0.48663774  0.71114903  0.32979457  1  1.043599  4.775456  1.954762  4.651  0.884247  4.686251  2.471967  4.5  0.945198  4.741937  2.401652  4.573  0.507046  0.83528  4.622026  2.525446  4.42
Mn  Mn2  1  0.98660820  0.71117023  0.17018915  1  1.043556  -4.770684  1.955074  -4.651  0.8842  -4.676944  2.472495  -4.5  0.94524  -4.73912  2.401889  -4.573  0.507023  0.835311  -4.606083  2.525942  -4.42
Mn  Mn3  1  0.51416958  0.28952865  0.66979049  1  1.047901  4.778535  1.936306  4.659  0.889024  4.699153  2.449294  4.516  0.948646  4.747049  2.38074  4.583  0.511023  0.842625  4.649635  2.499641  4.45
H  H4  1  0.41643270  0.34411706  0.19101985  1  0.137403  -0.000361  0.926178  0.0  0.142645  -0.000346  0.994214  0.0  0.145449  -0.000318  0.992198  0.0  0.126401  0.140698  -0.000361  0.995634  0.0
H  H5  1  0.08393108  0.65627558  0.69076887  1  0.137033  0.000258  0.925634  0.0  0.142346  0.000569  0.993794  0.001  0.145115  0.000412  0.991821  0.001  0.126393  0.140471  0.000734  0.995167  0.001
H  H6  1  0.58395392  0.65630854  0.80923259  1  0.13683  3.6e-05  0.925524  0.0  0.142086  0.000213  0.993796  0.0  0.144853  0.000131  0.991824  0.0  0.126289  0.140213  0.000293  0.995166  0.0
H  H7  1  0.91641375  0.34411626  0.30894797  1  0.137273  0.000532  0.925764  0.0  0.142458  0.000649  0.993904  0.0  0.145266  0.000541  0.991888  0.0  0.126318  0.14051  0.000753  0.995329  0.001
H  H8  1  0.37143815  0.40614829  0.06810982  1  0.139883  -0.000391  0.93066  0.0  0.144602  -0.000464  1.000885  0.0  0.14763  -0.000416  0.998924  0.0  0.129088  0.142283  -0.000546  1.002532  0.0
H  H9  1  0.12871696  0.59407379  0.56788447  1  0.139723  -0.000227  0.930221  0.0  0.144497  9.9e-05  1.000639  0.001  0.147506  -6e-05  0.998698  0.0  0.129077  0.142256  0.000295  1.002209  0.001
H  H10  1  0.62870332  0.59408709  0.93210852  1  0.139717  0.000365  0.930472  0.0  0.144505  0.000728  1.00083  0.001  0.147515  0.000605  0.998884  0.0  0.12908  0.142261  0.000878  1.002403  0.001
H  H11  1  0.87147950  0.40616099  0.43187268  1  0.139965  -0.000271  0.930922  0.0  0.144625  -0.000213  1.001188  0.0  0.147661  -0.000303  0.999217  0.0  0.129065  0.142308  -6.7e-05  1.002822  0.0
H  H12  1  0.29242505  0.11420530  0.90152701  1  0.086056  -0.000498  0.956594  0.0  0.090942  -0.000156  1.027269  0.0  0.093816  -0.000375  1.024155  0.0  0.109918  0.088532  9.5e-05  1.029858  0.0
H  H13  1  0.20775116  0.88589134  0.40143203  1  0.085481  0.00035  0.956089  0.0  0.090521  0.000788  1.026533  0.0  0.093374  0.000607  1.023505  0.0  0.10989  0.08811  0.000952  1.029045  0.0
H  H14  1  0.70773399  0.88590476  0.09856422  1  0.085401  -0.000351  0.956132  0.0  0.090428  -0.000798  1.02661  0.0  0.09327  -0.000614  1.023589  0.0  0.109867  0.088016  -0.000965  1.029119  0.0
H  H15  1  0.79241025  0.11417988  0.59848169  1  0.086019  -0.000485  0.956616  0.0  0.090896  -0.000131  1.027322  0.0  0.093773  -0.000356  1.024194  0.0  0.109891  0.088488  0.000126  1.029911  0.0
H  H16  1  0.37928547  0.02610581  0.07124196  1  0.119845  0.000402  0.945463  0.0  0.129849  0.000648  1.002581  0.0  0.133528  0.000521  1.001697  0.0  0.106507  0.127085  0.000773  1.003556  0.0
H  H17  1  0.12040736  0.97367132  0.57124386  1  0.120287  0.000107  0.946033  0.0  0.130179  0.000419  1.003337  0.0  0.133905  0.000235  1.002349  0.0  0.106457  0.127293  0.000612  1.004539  0.0
H  H18  1  0.62044348  0.97370358  0.92874463  1  0.120169  -0.00025  0.946133  0.0  0.129956  -6.5e-05  1.00356  0.0  0.133751  -0.00015  1.002499  0.0  0.106339  0.127064  3e-05  1.004767  0.0
H  H19  1  0.87928989  0.02608846  0.42876056  1  0.11991  -3.9e-05  0.945281  0.0  0.129907  -0.000132  1.002404  0.0  0.133582  -0.000115  1.001529  0.0  0.106505  0.127126  -0.000142  1.003401  0.0
H  H20  1  0.18378036  0.05017662  0.22983927  1  0.085798  0.000262  0.937592  0.0  0.088051  0.00063  1.009258  0.0  0.091435  0.000494  1.005059  0.0  0.11233  0.085307  0.000768  1.012657  0.0
H  H21  1  0.31569551  0.94945801  0.72982377  1  0.085954  -0.000178  0.937497  0.0  0.088162  0.000121  1.009249  0.0  0.091568  -3.4e-05  1.00503  0.0  0.112092  0.085422  0.000294  1.012679  0.0
H  H22  1  0.81573181  0.94946300  0.77016748  1  0.086012  -9.6e-05  0.937671  0.0  0.088252  0.000168  1.009338  0.0  0.091657  1.2e-05  1.005123  0.0  0.112126  0.085508  0.000338  1.012778  0.0
H  H23  1  0.68382696  0.05019755  0.27016360  1  0.08578  -0.000368  0.937607  0.0  0.088068  -0.000659  1.009237  0.0  0.091435  -0.00054  1.005078  0.0  0.112304  0.08533  -0.000771  1.012618  0.0
C  C24  1  0.56427967  0.53254865  0.16943890  1  0.718478  -0.003127  3.850763  -0.003  0.663195  -0.003654  4.158785  -0.003  0.699725  -0.0025  4.150662  -0.002  0.231415  0.637097  -0.00527  4.163417  -0.005
C  C25  1  0.93657118  0.46784330  0.66951295  1  0.71814  0.011989  3.85078  0.011  0.663449  0.019673  4.158623  0.018  0.699709  0.015012  4.150547  0.014  0.231436  0.637862  0.024581  4.163125  0.021
C  C26  1  0.43655751  0.46785451  0.83049573  1  0.718327  0.011908  3.851479  0.011  0.663535  0.019434  4.159408  0.017  0.699798  0.014818  4.151351  0.014  0.231544  0.637947  0.024286  4.163903  0.021
C  C27  1  0.06431820  0.53256896  0.33054803  1  0.71858  0.00319  3.850583  0.003  0.66336  0.003939  4.158481  0.003  0.699883  0.002707  4.150369  0.002  0.231396  0.637275  0.005653  4.163092  0.005
C  C28  1  0.99224472  0.19672235  0.06357651  1  0.316469  0.00084  3.797703  0.001  0.302992  0.002717  4.046764  0.002  0.316213  0.001986  4.061443  0.002  0.255765  0.294018  0.003735  4.037065  0.003
C  C29  1  0.50761302  0.80317716  0.56346400  1  0.316029  0.000734  3.797676  0.001  0.302214  0.002505  4.047138  0.002  0.315484  0.001853  4.061778  0.002  0.255098  0.293145  0.003367  4.037471  0.003
C  C30  1  0.00761500  0.80317159  0.93654650  1  0.316257  -0.000755  3.796897  -0.001  0.302264  -0.002282  4.046594  -0.002  0.315534  -0.001825  4.061254  -0.002  0.255234  0.293201  -0.002666  4.036935  -0.002
C  C31  1  0.49226598  0.19673014  0.43643811  1  0.316408  0.000908  3.797117  0.001  0.303103  0.002534  4.0461  0.002  0.316334  0.001996  4.060763  0.002  0.255703  0.294112  0.003097  4.036406  0.003
C  C32  1  0.48392912  0.40521066  0.12849884  1  -0.223438  0.001324  3.563213  0.001  -0.277348  0.000936  3.81  0.001  -0.27989  0.000737  3.813666  0.001  -0.044179  -0.275306  0.001171  3.807825  0.001
C  C33  1  0.01635035  0.59504872  0.62835801  1  -0.221605  0.002908  3.561995  0.003  -0.275814  0.003526  3.808379  0.003  -0.278362  0.002564  3.812215  0.002  -0.043647  -0.273902  0.004532  3.806132  0.003
C  C34  1  0.51636639  0.59505905  0.87165982  1  -0.221553  0.001941  3.562006  0.002  -0.275619  0.002102  3.808292  0.002  -0.278173  0.001479  3.81214  0.001  -0.043637  -0.27369  0.002746  3.806014  0.002
C  C35  1  0.98392496  0.40522443  0.37148983  1  -0.223336  -0.000282  3.562674  -0.001  -0.277104  0.000509  3.809241  0.0  -0.279645  0.000354  3.812908  0.0  -0.044117  -0.275056  0.000674  3.807039  0.0
C  C36  1  0.21933924  0.12253100  0.97519700  1  0.182551  0.001181  3.656263  0.001  0.14711  0.003001  3.912089  0.003  0.157074  0.002165  3.928424  0.002  0.067098  0.140546  0.004059  3.901328  0.004
C  C37  1  0.28067390  0.87745245  0.47511778  1  0.181764  0.001024  3.657788  0.001  0.146543  0.002734  3.913235  0.002  0.156547  0.002039  3.92954  0.002  0.066871  0.139837  0.003501  3.902606  0.003
C  C38  1  0.78068843  0.87746182  0.02488802  1  0.181818  -0.001139  3.65759  -0.001  0.146609  -0.002521  3.913124  -0.002  0.156623  -0.001971  3.929459  -0.002  0.066875  0.139902  -0.003052  3.902504  -0.003
C  C39  1  0.71933638  0.12252793  0.52481455  1  0.18258  0.001152  3.656179  0.002  0.147141  0.002663  3.912035  0.003  0.157113  0.001981  3.928349  0.002  0.067181  0.140575  0.003448  3.901265  0.003
C  C40  1  0.26651142  0.07496468  0.06743358  1  -0.161121  0.000251  3.6774  0.0  -0.175993  0.000983  3.933104  0.001  -0.186421  0.000448  3.953814  0.0  -0.079178  -0.16967  0.001655  3.920051  0.001
C  C41  1  0.23320212  0.92482511  0.56737326  1  -0.161929  -2e-05  3.677729  0.0  -0.176965  0.000603  3.93345  0.001  -0.18741  1.6e-05  3.954143  0.0  -0.079922  -0.170572  0.001354  3.920469  0.001
C  C42  1  0.73324290  0.92484925  0.93262277  1  -0.161781  0.000609  3.677749  0.001  -0.176692  0.000815  3.93345  0.001  -0.187197  0.000797  3.954107  0.001  -0.079788  -0.170292  0.001021  3.92047  0.001
C  C43  1  0.76650082  0.07495324  0.43257536  1  -0.161278  -0.000933  3.677396  0.0  -0.176109  -0.000929  3.933123  0.0  -0.186534  -0.001077  3.953821  -0.001  -0.079196  -0.169768  -0.000959  3.920068  0.0
C  C44  1  0.85761531  0.27317556  0.05772633  1  0.200307  0.001331  3.774558  0.002  0.179749  0.00305  4.045277  0.003  0.185616  0.002358  4.060164  0.003  0.23531  0.175417  0.003881  4.0359  0.004
C  C45  1  0.64225534  0.72675081  0.55762633  1  0.199589  0.000851  3.774986  0.001  0.17914  0.002452  4.045773  0.003  0.184998  0.001848  4.060662  0.002  0.235223  0.174798  0.003146  4.03637  0.003
C  C46  1  0.14224806  0.72673254  0.94239126  1  0.199366  -0.001132  3.775316  -0.002  0.179175  -0.002374  4.045894  -0.003  0.185021  -0.001951  4.060796  -0.002  0.235192  0.174835  -0.002731  4.036506  -0.003
C  C47  1  0.35762006  0.27319267  0.44228353  1  0.200246  0.000941  3.774685  0.002  0.179403  0.002535  4.045745  0.003  0.185261  0.001997  4.060637  0.002  0.23532  0.175087  0.003035  4.036339  0.003
C  C48  1  0.15822265  0.08856890  0.15601850  1  0.190413  0.001399  3.671948  0.001  0.156441  0.002893  3.946443  0.002  0.167164  0.002298  3.958598  0.002  0.072561  0.149219  0.003783  3.938814  0.003
C  C49  1  0.34137841  0.91115048  0.65598418  1  0.191411  0.000967  3.670632  0.001  0.157444  0.00248  3.94488  0.002  0.168134  0.001868  3.957138  0.002  0.072821  0.150193  0.003263  3.937151  0.003
C  C50  1  0.84138595  0.91115334  0.84400530  1  0.191281  -0.001165  3.670884  -0.001  0.15734  -0.001905  3.945021  -0.002  0.16803  -0.001699  3.957302  -0.001  0.072732  0.15008  -0.002139  3.937308  -0.002
C  C51  1  0.65824418  0.08856741  0.34398769  1  0.190395  0.000975  3.67182  0.001  0.156344  0.001793  3.946453  0.002  0.167066  0.001451  3.9586  0.001  0.072457  0.149137  0.00235  3.938783  0.002
N  N52  1  0.64127958  0.36224641  0.08126427  1  0.260598  0.002279  3.507506  0.002  0.307088  0.003827  3.788651  0.004  0.304447  0.003176  3.807804  0.003  0.010995  0.308311  0.004644  3.776349  0.005
N  N53  1  0.85873533  0.63780401  0.58116610  1  0.260386  0.001544  3.507918  0.002  0.307043  0.003196  3.789033  0.003  0.304406  0.00238  3.808194  0.003  0.011004  0.308271  0.004282  3.77676  0.004
N  N54  1  0.35871019  0.63780274  0.91883859  1  0.260204  -0.002416  3.507621  -0.003  0.306834  -0.003212  3.788759  -0.003  0.304193  -0.002927  3.807925  -0.003  0.010882  0.308051  -0.003295  3.776505  -0.004
N  N55  1  0.14129363  0.36224181  0.41871739  1  0.260134  0.0019  3.506417  0.002  0.306696  0.003101  3.787497  0.004  0.304042  0.002546  3.806655  0.003  0.010951  0.307934  0.003663  3.775174  0.004
N  N56  1  0.72529257  0.28727512  0.12891730  1  -0.245707  -0.000509  2.798247  -0.001  -0.240239  0.00026  3.067903  0.0  -0.244059  -0.000368  3.078778  -0.001  -0.171254  -0.237925  0.001133  3.061277  0.001
N  N57  1  0.77471814  0.71278082  0.62879397  1  -0.245594  4.1e-05  2.799195  0.0  -0.240216  0.000937  3.068952  0.001  -0.244028  7.2e-05  3.079832  0.0  -0.171375  -0.237895  0.002244  3.062308  0.002
N  N58  1  0.27470190  0.71278730  0.87119873  1  -0.245282  0.001544  2.798202  0.002  -0.239945  0.001348  3.067845  0.002  -0.243755  0.001188  3.078723  0.001  -0.171171  -0.237631  0.002011  3.061222  0.002
N  N59  1  0.22532558  0.28726861  0.37106240  1  -0.245567  -0.001001  2.797388  -0.001  -0.240026  -0.000602  3.067111  -0.001  -0.243846  -0.000765  3.077996  -0.001  -0.171199  -0.237703  -0.000741  3.06046  -0.001
N  N60  1  0.07982492  0.18290141  0.97269015  1  -0.377013  0.024166  3.180281  0.015  -0.314774  0.029522  3.444616  0.017  -0.33606  0.026289  3.459814  0.014  -0.300363  -0.299869  0.032819  3.43415  0.02
N  N61  1  0.42035114  0.81719162  0.47252520  1  -0.376265  0.023959  3.180484  0.014  -0.313853  0.028742  3.444955  0.016  -0.335184  0.025782  3.459926  0.014  -0.300277  -0.298845  0.031658  3.435002  0.019
N  N62  1  0.92036222  0.81720968  0.02749021  1  -0.376237  -0.023513  3.180254  -0.014  -0.31393  -0.027883  3.44508  -0.016  -0.335235  -0.025295  3.459933  -0.013  -0.300388  -0.298925  -0.030097  3.435126  -0.017
N  N63  1  0.57981742  0.18289818  0.52732729  1  -0.376925  0.023731  3.180082  0.014  -0.314732  0.028756  3.44436  0.016  -0.336009  0.025791  3.45956  0.014  -0.300395  -0.29984  0.03148  3.433937  0.018
N  N64  1  0.71590491  0.39557342  0.98705163  1  -0.032649  0.002511  2.790572  0.004  -0.032992  0.004325  3.065623  0.005  -0.02633  0.003251  3.073889  0.004  -0.035841  -0.038051  0.005691  3.060729  0.007
N  N65  1  0.78397164  0.60436211  0.48698635  1  -0.033768  0.002719  2.790668  0.004  -0.034341  0.004808  3.065873  0.006  -0.027681  0.003398  3.07415  0.005  -0.036272  -0.03947  0.006739  3.060964  0.008
N  N66  1  0.28394243  0.60436286  0.01302332  1  -0.033525  -0.001193  2.791332  -0.002  -0.034104  -0.002895  3.066555  -0.003  -0.027442  -0.002476  3.074833  -0.003  -0.036202  -0.03926  -0.003172  3.061684  -0.004
N  N67  1  0.21594107  0.39557715  0.51292195  1  -0.032277  0.001063  2.791202  0.003  -0.032749  0.003004  3.066409  0.004  -0.026089  0.002084  3.074679  0.004  -0.035688  -0.037787  0.004184  3.061486  0.005
N  N68  1  0.85362514  0.33920117  0.97164804  1  -0.253728  0.023521  3.133277  0.013  -0.215357  0.029289  3.434957  0.016  -0.228701  0.026196  3.444409  0.013  -0.181729  -0.205772  0.032135  3.429047  0.018
N  N69  1  0.64617924  0.66068884  0.47158174  1  -0.251886  0.024289  3.131008  0.014  -0.213468  0.030282  3.432372  0.017  -0.226858  0.027049  3.441808  0.014  -0.181118  -0.203646  0.03336  3.426497  0.019
N  N70  1  0.14617911  0.66067660  0.02841994  1  -0.252079  -0.023551  3.132429  -0.013  -0.213734  -0.029198  3.433767  -0.016  -0.227123  -0.026403  3.443187  -0.014  -0.18133  -0.203946  -0.031683  3.427933  -0.018
N  N71  1  0.35359264  0.33920378  0.52833199  1  -0.25366  0.023815  3.134776  0.014  -0.215197  0.02978  3.436548  0.016  -0.228527  0.0265  3.446012  0.014  -0.181691  -0.205595  0.033037  3.430595  0.019
N  N72  1  0.02037958  0.14981319  0.15481302  1  -0.349286  0.000245  3.005996  0.0  -0.320588  0.000687  3.275646  0.001  -0.334797  0.000242  3.287695  0.0  -0.300397  -0.3111  0.001195  3.267699  0.001
N  N73  1  0.47915570  0.84986441  0.65475195  1  -0.349233  0.000257  3.006175  0.0  -0.320318  0.000615  3.275634  0.001  -0.334566  0.000196  3.287733  0.0  -0.300156  -0.310762  0.001097  3.267656  0.001
N  N74  1  0.97915984  0.84986012  0.84524566  1  -0.349295  -0.000163  3.005735  0.0  -0.32034  -0.000335  3.275267  0.0  -0.334588  -5e-06  3.287359  0.0  -0.300156  -0.31079  -0.00056  3.267301  0.0
N  N75  1  0.52040220  0.14981430  0.34519589  1  -0.349311  8.1e-05  3.005518  0.0  -0.320621  0.000374  3.275177  0.0  -0.334834  3e-06  3.287221  0.0  -0.300308  -0.311121  0.000648  3.267231  0.001
Cl  Cl76  1  0.15352243  0.16656917  0.70963972  1  -0.581156  0.080937  1.016256  0.044  -0.526221  0.108622  1.334042  0.053  -0.550834  0.094672  1.304669  0.043  -0.240966  -0.504883  0.121414  1.354626  0.062
Cl  Cl77  1  0.34386779  0.83198733  0.21025723  1  -0.576194  0.004622  1.035711  0.002  -0.521064  0.004865  1.358249  0.002  -0.54678  0.003958  1.327993  0.001  -0.235938  -0.49781  0.005918  1.379951  0.002
Cl  Cl78  1  0.84388188  0.83201682  0.28974621  1  -0.576198  -0.004504  1.035797  -0.002  -0.521054  -0.004567  1.358324  -0.002  -0.546793  -0.003798  1.328098  -0.001  -0.235873  -0.497801  -0.005432  1.380025  -0.002
Cl  Cl79  1  0.65352164  0.16654468  0.79038127  1  -0.581182  0.080878  1.016034  0.044  -0.526266  0.108555  1.333797  0.053  -0.550884  0.094613  1.30445  0.043  -0.240996  -0.504924  0.121332  1.354383  0.062
O  O80  1  0.69783963  0.60435815  0.11648807  1  -0.647229  -0.026734  2.113841  -0.017  -0.591203  -0.031063  2.397614  -0.018  -0.623811  -0.028059  2.386826  -0.015  -0.310531  -0.56628  -0.033796  2.404131  -0.02
O  O81  1  0.80308193  0.39574717  0.61672126  1  -0.647126  0.03112  2.112637  0.021  -0.591569  0.039344  2.396822  0.026  -0.623997  0.034356  2.386093  0.022  -0.310354  -0.567121  0.044266  2.403238  0.031
O  O82  1  0.30312860  0.39577544  0.88329310  1  -0.647012  0.031004  2.113463  0.021  -0.591623  0.039122  2.397988  0.026  -0.62398  0.034223  2.387074  0.021  -0.310387  -0.567158  0.04389  2.404389  0.03
O  O83  1  0.19785280  0.60435180  0.38348390  1  -0.647007  0.02689  2.11424  0.017  -0.591012  0.031447  2.397951  0.018  -0.623575  0.028268  2.387159  0.015  -0.310436  -0.566106  0.034424  2.404445  0.021
O  O84  1  0.48100947  0.55346910  0.25200862  1  -0.614728  0.028992  2.058031  0.017  -0.547118  0.031141  2.324228  0.014  -0.580215  0.028844  2.31232  0.013  -0.304278  -0.521872  0.033042  2.331534  0.016
O  O85  1  0.02027274  0.44725008  0.75203008  1  -0.615443  0.036071  2.056478  0.025  -0.547876  0.042618  2.321899  0.028  -0.580654  0.037581  2.310065  0.023  -0.303984  -0.523238  0.047416  2.328975  0.032
O  O86  1  0.52025079  0.44725413  0.74796864  1  -0.61559  0.036033  2.056157  0.025  -0.547989  0.042543  2.321587  0.028  -0.580763  0.037521  2.309763  0.023  -0.304055  -0.523354  0.047322  2.328665  0.032
O  O87  1  0.98097058  0.55351192  0.24800066  1  -0.61503  -0.028952  2.057543  -0.017  -0.547471  -0.031001  2.323791  -0.014  -0.5806  -0.028783  2.311863  -0.012  -0.304464  -0.522212  -0.032789  2.331101  -0.016
