# generated using pymatgen
data_VH8C9O4
_symmetry_space_group_name_H-M   'P 1'
_cell_length_a   5.04818156
_cell_length_b   10.86369830
_cell_length_c   15.35939615
_cell_angle_alpha   103.83517187
_cell_angle_beta   89.90500603
_cell_angle_gamma   89.94168970
_symmetry_Int_Tables_number   1
_chemical_formula_structural   VH8C9O4
_chemical_formula_sum   'V4 H32 C36 O16'
_cell_volume   817.89859431
_cell_formula_units_Z   4
loop_
 _symmetry_equiv_pos_site_id
 _symmetry_equiv_pos_as_xyz
  1  'x, y, z'
loop_
 _atom_site_type_symbol
 _atom_site_label
 _atom_site_symmetry_multiplicity
 _atom_site_fract_x
 _atom_site_fract_y
 _atom_site_fract_z
 _atom_site_occupancy
 _atom_site_hle17_ddec_charge
 _atom_site_hle17_ddec_spin_density
 _atom_site_hle17_ddec_sum_bond_order
 _atom_site_hle17_magmom
 _atom_site_hse06_10hf_ddec_charge
 _atom_site_hse06_10hf_ddec_spin_density
 _atom_site_hse06_10hf_ddec_sum_bond_order
 _atom_site_hse06_10hf_magmom
 _atom_site_hse06_ddec_charge
 _atom_site_hse06_ddec_spin_density
 _atom_site_hse06_ddec_sum_bond_order
 _atom_site_hse06_magmom
 _atom_site_pbe_cm5_charge
 _atom_site_pbe_ddec_charge
 _atom_site_pbe_ddec_spin_density
 _atom_site_pbe_ddec_sum_bond_order
 _atom_site_pbe_magmom
V  V0  1  0.72670563  0.54384954  0.45124690  1  1.713703  -1.337348  2.605439  -1.235  1.727823  -1.063697  3.00843  -0.996  1.825242  -1.134905  2.958044  -1.062  1.325857  1.66305  -0.966724  3.048636  -0.904
V  V1  1  0.22914177  0.45309440  0.04936825  1  1.717808  1.271803  2.608359  1.237  1.732598  1.033674  3.008658  1.003  1.828923  1.08984  2.959676  1.062  1.333864  1.674634  0.948272  3.044559  0.913
V  V2  1  0.27336434  0.45616660  0.54880379  1  1.712989  1.273832  2.606707  1.236  1.726984  1.028972  3.009428  0.997  1.824692  1.092385  2.958811  1.062  1.325125  1.662114  0.94514  3.049071  0.909
V  V3  1  0.77070466  0.54686580  0.95060384  1  1.717665  1.271512  2.60922  1.237  1.732483  1.033262  3.009621  1.003  1.829031  1.089643  2.960164  1.062  1.334188  1.674843  0.946144  3.045319  0.911
H  H4  1  0.91162729  0.09178567  0.28164610  1  0.092313  -0.0  0.968371  0.0  0.105129  1.7e-05  1.030916  0.0  0.106695  1e-06  1.031799  0.0  0.099878  0.103938  0.000116  1.030898  0.0
H  H5  1  0.41245030  0.90570790  0.21991322  1  0.093119  -0.000213  0.968487  0.0  0.105674  -2.7e-05  1.030865  0.0  0.107437  -5.4e-05  1.031327  0.0  0.099689  0.104251  0.000132  1.031341  0.0
H  H6  1  0.08840132  0.90824786  0.71833176  1  0.091995  -2.4e-05  0.968718  0.0  0.104853  3.7e-05  1.03123  0.0  0.106416  2.7e-05  1.032118  0.0  0.099829  0.10362  8.7e-05  1.031299  0.0
H  H7  1  0.58749123  0.09428942  0.78004458  1  0.093034  -0.000226  0.968368  0.0  0.105633  -1.7e-05  1.030696  0.0  0.107375  -4.3e-05  1.031223  0.0  0.099599  0.104256  0.000158  1.031087  0.0
H  H8  1  0.55304797  0.20502730  0.13474501  1  0.102562  -5.8e-05  0.941526  0.0  0.115859  -3.4e-05  1.000295  0.0  0.118943  -5e-05  0.997874  0.0  0.1104  0.112735  -2e-06  1.00325  0.0
H  H9  1  0.05699192  0.79170854  0.36463616  1  0.103534  -0.000212  0.940789  0.0  0.11625  -2.4e-05  1.000244  0.0  0.119359  -8e-06  0.997794  0.0  0.110219  0.113561  -8.3e-05  1.002667  0.0
H  H10  1  0.44711911  0.79501772  0.86528457  1  0.10264  -3.5e-05  0.941473  0.0  0.115843  -3.4e-05  1.000369  0.0  0.118932  -5.5e-05  0.997931  0.0  0.110385  0.112678  2.7e-05  1.003424  0.0
H  H11  1  0.94288026  0.20824572  0.63533933  1  0.103312  -0.000248  0.941148  0.0  0.115948  -7.3e-05  1.000654  0.0  0.119049  -8.3e-05  0.998211  0.0  0.110132  0.113315  -5.6e-05  1.002986  0.0
H  H12  1  0.83709733  0.36044808  0.19568185  1  0.074796  0.000771  0.9218  0.001  0.083269  4.1e-05  0.9853  0.0  0.085753  6.7e-05  0.979872  0.0  0.120943  0.080865  3.1e-05  0.989969  0.0
H  H13  1  0.33837332  0.63594784  0.30343682  1  0.076388  -0.000902  0.925844  -0.001  0.085127  -2.6e-05  0.989025  -0.001  0.087657  -2.7e-05  0.983298  0.0  0.12138  0.083477  1.6e-05  0.993884  -0.001
H  H14  1  0.16307950  0.63959434  0.80439544  1  0.074727  -0.002045  0.921676  -0.001  0.083219  -0.001106  0.985159  -0.001  0.085721  -0.001137  0.979727  -0.001  0.120742  0.080846  -0.001021  0.989781  0.0
H  H15  1  0.66146316  0.36396409  0.69656040  1  0.076316  -0.002193  0.925999  -0.002  0.08504  -0.001144  0.989195  -0.001  0.087567  -0.001162  0.983476  -0.001  0.121398  0.083436  -0.001068  0.993986  -0.001
H  H16  1  0.77631597  0.22101255  0.41777091  1  0.053735  -0.001522  0.943243  -0.001  0.068617  -0.000873  1.009194  -0.001  0.067643  -0.000794  1.009575  0.0  0.099759  0.069815  -0.000923  1.00842  -0.001
H  H17  1  0.27414636  0.77730330  0.08530311  1  0.053229  -0.001804  0.947914  -0.001  0.068381  -0.00109  1.013704  -0.001  0.06715  -0.001017  1.014432  -0.001  0.100047  0.070246  -0.00108  1.012209  -0.001
H  H18  1  0.22374030  0.77899283  0.58223143  1  0.053926  0.001457  0.943014  0.001  0.068821  0.00086  1.008929  0.001  0.067848  0.000781  1.009318  0.0  0.099891  0.070057  0.000916  1.008104  0.001
H  H19  1  0.72577733  0.22267537  0.91466343  1  0.053214  -0.00182  0.948072  -0.001  0.068385  -0.001091  1.013858  -0.001  0.067156  -0.001018  1.014576  -0.001  0.100036  0.070226  -0.001078  1.012395  -0.001
H  H20  1  0.05508125  0.20007449  0.48330048  1  0.047241  -0.000184  0.933268  0.0  0.063593  1.5e-05  0.998343  0.0  0.063415  -3.6e-05  0.996996  0.0  0.097283  0.064043  9.5e-05  0.99888  0.0
H  H21  1  0.54983791  0.80121476  0.01924791  1  0.04908  -0.000855  0.93206  -0.001  0.06598  -0.00023  0.996002  0.0  0.065917  -0.000252  0.99456  0.0  0.098125  0.066401  -0.000196  0.99648  0.0
H  H22  1  0.94499669  0.80000639  0.51672176  1  0.04712  9.9e-05  0.933409  0.0  0.063521  -6.2e-05  0.998395  0.0  0.063346  -5e-06  0.997056  0.0  0.097228  0.063957  -0.000163  0.998956  0.0
H  H23  1  0.45010164  0.19875717  0.98071928  1  0.049066  -0.000934  0.931943  -0.001  0.065958  -0.00027  0.995905  0.0  0.065889  -0.000287  0.994469  0.0  0.098094  0.06639  -0.00025  0.996367  0.0
H  H24  1  0.98676807  0.09637815  0.07926615  1  0.117929  -0.000232  0.944713  0.0  0.141555  -0.000225  1.002403  0.0  0.14331  -0.000235  1.001476  0.0  0.093056  0.139614  -0.000183  1.003623  0.0
H  H25  1  0.49075801  0.90076616  0.42204800  1  0.11881  0.000223  0.943709  0.0  0.142968  0.000358  1.000847  0.0  0.144665  0.000348  1.000007  0.0  0.093935  0.141451  0.000312  1.001651  0.0
H  H26  1  0.01353191  0.90368419  0.92070815  1  0.117878  -0.000397  0.945026  0.0  0.141357  -0.000404  1.002852  0.0  0.143124  -0.000385  1.001917  0.0  0.092912  0.139406  -0.000408  1.004071  0.0
H  H27  1  0.50913000  0.09924978  0.57791994  1  0.118795  -0.000449  0.943819  0.0  0.142959  -0.000322  1.000923  0.0  0.144647  -0.000315  1.000097  0.0  0.093958  0.14146  -0.000367  1.001716  0.0
H  H28  1  0.01305428  0.96539599  0.12947213  1  0.104205  -2.6e-05  0.963154  0.0  0.121442  -2e-05  1.0317  0.0  0.122273  -1.3e-05  1.032857  0.0  0.086867  0.120944  -1.3e-05  1.030807  0.0
H  H29  1  0.51501062  0.03183261  0.37182484  1  0.101927  -2.6e-05  0.964836  0.0  0.119806  8e-06  1.032781  0.0  0.120701  0.0  1.033901  0.0  0.08615  0.119138  2.3e-05  1.031989  0.0
H  H30  1  0.98697615  0.03466793  0.87054551  1  0.104192  -3.4e-05  0.963318  0.0  0.121273  -2.7e-05  1.032095  0.0  0.122114  -2.3e-05  1.033241  0.0  0.086784  0.120746  -7e-06  1.031218  0.0
H  H31  1  0.48494483  0.96816646  0.62811831  1  0.102112  -1e-05  0.964761  0.0  0.120077  3.4e-05  1.032569  0.0  0.120976  2.3e-05  1.033679  0.0  0.086375  0.11943  5.3e-05  1.031765  0.0
H  H32  1  0.28323120  0.00763668  0.06748979  1  0.101484  6e-06  0.951658  0.0  0.122525  1.9e-05  1.014487  0.0  0.123915  1.7e-05  1.013999  0.0  0.089217  0.121096  3e-05  1.015165  0.0
H  H33  1  0.78664363  0.98961457  0.43300944  1  0.10075  -6.4e-05  0.951607  0.0  0.121724  -3.8e-05  1.014852  0.0  0.123019  -3.6e-05  1.014494  0.0  0.088793  0.120491  -4.7e-05  1.015338  0.0
H  H34  1  0.71693781  0.99234549  0.93256861  1  0.10118  0.0  0.951501  0.0  0.122374  2.5e-05  1.01414  0.0  0.123762  1.8e-05  1.013655  0.0  0.089164  0.120921  4.2e-05  1.01484  0.0
H  H35  1  0.21328603  0.01038476  0.56694679  1  0.1009  -2.6e-05  0.951708  0.0  0.121929  1.6e-05  1.014902  0.0  0.123225  2e-05  1.01454  0.0  0.088866  0.120702  3e-06  1.015386  0.0
C  C36  1  0.14940074  0.24290932  0.35686692  1  -0.072647  0.001522  3.719383  0.001  -0.056542  0.001237  3.961573  0.001  -0.065369  0.001405  3.984668  0.001  -0.027222  -0.050778  0.000688  3.947333  0.0
C  C37  1  0.64975952  0.75465091  0.14389672  1  -0.069582  -0.004  3.718323  -0.003  -0.053872  -0.001354  3.960579  -0.001  -0.062531  -0.000693  3.982987  0.0  -0.027663  -0.048853  -0.003072  3.948662  -0.003
C  C38  1  0.85060200  0.75713398  0.64314281  1  -0.072626  -0.003445  3.720225  -0.002  -0.056441  -0.001864  3.962262  -0.001  -0.065256  -0.002081  3.985337  -0.001  -0.027361  -0.050706  -0.001319  3.948174  -0.001
C  C39  1  0.35018992  0.24532283  0.85607213  1  -0.070328  -0.005798  3.718691  -0.004  -0.054387  -0.001929  3.960881  -0.001  -0.062994  -0.001306  3.983208  -0.001  -0.02768  -0.049433  -0.003645  3.948971  -0.003
C  C40  1  0.08441672  0.15138739  0.27945770  1  -0.128416  0.000977  3.710083  0.001  -0.155841  0.001643  3.953424  0.001  -0.15455  0.000455  3.974961  0.0  -0.081186  -0.158302  0.005339  3.94067  0.003
C  C41  1  0.58550781  0.84599099  0.22164301  1  -0.130023  0.004928  3.710546  0.004  -0.156941  0.004286  3.954405  0.003  -0.15515  0.00197  3.975204  0.001  -0.082129  -0.161091  0.013011  3.943827  0.008
C  C42  1  0.91568509  0.84863292  0.72055145  1  -0.127598  0.000246  3.710583  0.0  -0.155379  -0.00101  3.95383  -0.001  -0.154072  -7e-05  3.975341  0.0  -0.081192  -0.158018  -0.002592  3.941349  -0.002
C  C43  1  0.41439811  0.15397895  0.77830816  1  -0.129422  0.006104  3.710214  0.005  -0.156144  0.004754  3.953858  0.003  -0.154392  0.002331  3.974652  0.002  -0.081574  -0.160128  0.014494  3.943089  0.009
C  C44  1  0.44004319  0.21262273  0.19638938  1  -0.086572  -0.001077  3.68208  -0.001  -0.121067  0.000561  3.934445  0.0  -0.116173  -0.000564  3.952426  0.0  -0.072279  -0.126011  0.003993  3.925019  0.002
C  C45  1  0.94258049  0.78452546  0.30341709  1  -0.089271  0.005728  3.679205  0.004  -0.123174  0.004901  3.932219  0.003  -0.118315  0.00283  3.950311  0.002  -0.07166  -0.128101  0.012313  3.922038  0.008
C  C46  1  0.56013578  0.78738257  0.80364876  1  -0.086691  0.0006  3.681544  0.001  -0.121387  -0.000794  3.93394  0.0  -0.116469  -6.8e-05  3.951888  0.0  -0.072565  -0.126526  -0.002489  3.924764  -0.001
C  C47  1  0.05721838  0.21541898  0.69656366  1  -0.088572  0.005188  3.678622  0.004  -0.122214  0.004486  3.931551  0.003  -0.117378  0.002167  3.949667  0.002  -0.071188  -0.126966  0.01294  3.92116  0.009
C  C48  1  0.74513508  0.38133140  0.26294375  1  0.368633  -0.004936  3.600174  -0.005  0.325809  -0.002434  3.872109  -0.003  0.357604  -0.002922  3.865006  -0.003  0.100481  0.300188  0.001758  3.880771  0.0
C  C49  1  0.24565790  0.61537876  0.23645833  1  0.366616  0.009317  3.602548  0.008  0.322588  0.009509  3.87524  0.008  0.355311  0.00488  3.867452  0.004  0.096692  0.293704  0.028182  3.886228  0.02
C  C50  1  0.25497844  0.61870449  0.73711339  1  0.368427  0.004119  3.600088  0.004  0.325605  0.002543  3.872128  0.003  0.357402  0.0023  3.865026  0.003  0.100329  0.299732  0.002267  3.881144  0.003
C  C51  1  0.75421818  0.38456196  0.76353733  1  0.366573  0.00849  3.602341  0.007  0.322647  0.009351  3.874931  0.007  0.355335  0.004216  3.867203  0.004  0.097002  0.294038  0.030271  3.885507  0.021
C  C52  1  0.51691263  0.30646066  0.27273964  1  -0.137938  -0.000138  3.792382  0.0  -0.12588  -7.6e-05  4.0431  0.0  -0.142204  -0.000178  4.067236  0.0  -0.031923  -0.114712  0.000427  4.029103  0.0
C  C53  1  0.01854938  0.69064928  0.22670679  1  -0.134531  -0.002166  3.792564  -0.002  -0.122375  0.000998  4.043186  0.0  -0.138996  0.000586  4.067156  0.0  -0.032125  -0.110648  0.001505  4.030387  0.0
C  C54  1  0.48325248  0.69353988  0.72729822  1  -0.137653  -0.000926  3.79158  -0.001  -0.125714  -0.000559  4.042472  0.0  -0.142032  -0.000426  4.066591  0.0  -0.031858  -0.114552  -0.000999  4.028696  -0.001
C  C55  1  0.98135246  0.30930810  0.77328168  1  -0.135092  -0.003087  3.792943  -0.003  -0.122762  0.000448  4.043571  0.0  -0.139376  2.7e-05  4.067556  0.0  -0.032054  -0.111058  0.000973  4.030563  -0.001
C  C56  1  0.22313201  0.13494310  0.19790525  1  0.114751  0.000135  3.790645  0.0  0.140091  0.00064  4.035288  0.0  0.136985  0.000541  4.05963  0.0  -0.021368  0.142009  0.000761  4.019904  0.0
C  C57  1  0.72529053  0.86232576  0.30276006  1  0.117446  -0.001363  3.791197  -0.001  0.141535  0.000779  4.037536  0.0  0.13827  0.000746  4.061812  0.0  -0.020787  0.144147  0.000359  4.022107  -0.001
C  C58  1  0.77702528  0.86507554  0.80209901  1  0.11417  -0.002852  3.790918  -0.002  0.140177  -0.001848  4.03466  -0.001  0.137072  -0.001763  4.058986  -0.001  -0.021302  0.142092  -0.00219  4.019383  -0.001
C  C59  1  0.27457175  0.13764321  0.69720917  1  0.11732  -0.003988  3.790477  -0.003  0.141032  -0.000355  4.037274  0.0  0.137767  -0.000434  4.061551  0.0  -0.02117  0.143649  -0.000903  4.02176  -0.001
C  C60  1  0.36716966  0.32344260  0.35357508  1  0.35131  -0.001439  3.732363  -0.001  0.333003  -0.001152  3.995737  -0.001  0.353261  -0.000944  4.006942  -0.001  0.10393  0.317682  -0.000756  3.98912  -0.001
C  C61  1  0.86776362  0.67356929  0.14611919  1  0.345797  0.005871  3.725877  0.008  0.32824  0.004854  3.987944  0.007  0.349094  0.003487  3.998946  0.006  0.104301  0.31099  0.010207  3.983206  0.011
C  C62  1  0.63293212  0.67656378  0.64644374  1  0.351271  0.00174  3.732487  0.001  0.333075  0.001457  3.995589  0.001  0.353344  0.001044  4.006768  0.001  0.10394  0.317688  0.002404  3.989064  0.002
C  C63  1  0.13212637  0.32639150  0.85385952  1  0.346488  0.006142  3.724901  0.008  0.328442  0.005082  3.987597  0.007  0.349278  0.003569  3.998571  0.006  0.104223  0.311291  0.011199  3.982792  0.012
C  C64  1  0.97462697  0.25819638  0.43928727  1  0.130141  0.001175  3.719908  0.001  0.073035  0.001419  3.99056  0.001  0.087103  0.00108  3.995092  0.001  -0.08175  0.063413  0.001624  3.985489  0.001
C  C65  1  0.47250673  0.74123771  0.06249324  1  0.125091  0.001867  3.727926  0.003  0.067082  0.001904  3.99941  0.002  0.081013  0.00147  4.004162  0.002  -0.084135  0.057543  0.002168  3.993595  0.002
C  C66  1  0.02537179  0.74184948  0.56072817  1  0.129953  -0.001245  3.719747  -0.001  0.072784  -0.001521  3.990436  -0.001  0.086839  -0.001174  3.994966  -0.001  -0.081705  0.063128  -0.001719  3.985355  -0.001
C  C67  1  0.52741497  0.25875226  0.93747681  1  0.124873  0.001945  3.728785  0.003  0.066797  0.001901  4.000289  0.002  0.080721  0.001474  4.005033  0.002  -0.08418  0.057288  0.002152  3.994517  0.002
C  C68  1  0.12227675  0.04530823  0.11449360  1  -0.33088  -0.00026  3.727097  0.0  -0.411543  -0.000238  3.964511  0.0  -0.41304  -0.000271  3.974034  0.0  -0.240471  -0.409848  -0.000143  3.958475  0.0
C  C69  1  0.62515937  0.95191923  0.38650008  1  -0.330174  0.000346  3.727226  0.0  -0.411238  0.000315  3.964547  0.0  -0.412776  0.000292  3.974208  0.0  -0.239769  -0.409586  0.000364  3.958023  0.0
C  C70  1  0.87786666  0.95471311  0.88551379  1  -0.330218  -0.000198  3.727279  0.0  -0.410935  -0.000318  3.964647  0.0  -0.412445  -0.000309  3.974145  0.0  -0.240194  -0.409212  -0.000278  3.958643  0.0
C  C71  1  0.37475840  0.04807432  0.61345698  1  -0.330704  -1.7e-05  3.726991  0.0  -0.411843  -0.000167  3.964588  0.0  -0.413375  -0.000202  3.974239  0.0  -0.24003  -0.410213  -9.4e-05  3.958038  0.0
O  O72  1  0.43072065  0.41657091  0.42444059  1  -0.709948  -0.004558  2.355859  -0.002  -0.686595  -0.003966  2.655419  -0.001  -0.726239  -0.003507  2.654341  -0.001  -0.42618  -0.659405  -0.004279  2.657782  -0.002
O  O73  1  0.93053880  0.58009998  0.07490592  1  -0.704528  0.003388  2.337158  -0.023  -0.680514  0.019664  2.632662  -0.008  -0.720713  0.019002  2.633384  -0.007  -0.422966  -0.654418  0.019502  2.634556  -0.008
O  O74  1  0.56942073  0.58335573  0.57560050  1  -0.710136  0.002341  2.356105  0.001  -0.686748  0.002685  2.655542  0.001  -0.726406  0.001957  2.654451  0.001  -0.426419  -0.659554  0.003732  2.657946  0.002
O  O75  1  0.06942449  0.41988611  0.92506467  1  -0.70447  0.003344  2.335918  -0.023  -0.68049  0.019702  2.63197  -0.008  -0.720651  0.018999  2.632601  -0.007  -0.422943  -0.654383  0.01972  2.633832  -0.008
O  O76  1  0.85472905  0.46599843  0.32250276  1  -0.490664  -0.006987  2.139592  0.007  -0.453334  -0.016253  2.39971  -0.002  -0.48186  -0.01554  2.393774  -0.002  -0.300967  -0.434684  -0.012703  2.405909  0.001
O  O77  1  0.35340478  0.52924232  0.17688594  1  -0.495876  0.007602  2.147456  -0.006  -0.458349  0.019803  2.409875  0.005  -0.486943  0.017371  2.403285  0.004  -0.307251  -0.44114  0.024228  2.417278  0.009
O  O78  1  0.14516456  0.53412049  0.67754320  1  -0.490281  0.005855  2.139582  -0.007  -0.453011  0.016737  2.399695  0.003  -0.481571  0.015049  2.393778  0.002  -0.301027  -0.434643  0.016582  2.406093  0.003
O  O79  1  0.64657432  0.47072755  0.82310103  1  -0.495639  0.007548  2.147557  -0.006  -0.45825  0.020473  2.410081  0.006  -0.486898  0.017603  2.403484  0.004  -0.307254  -0.440888  0.026023  2.417269  0.011
O  O80  1  0.60680897  0.66568632  0.42143077  1  -0.684769  0.250218  1.335965  0.248  -0.700226  0.105389  1.600296  0.106  -0.740914  0.135875  1.593139  0.138  -0.578028  -0.668492  0.086877  1.604484  0.086
O  O81  1  0.11186802  0.32864518  0.07614151  1  -0.687456  -0.258843  1.333379  -0.244  -0.702405  -0.106118  1.59717  -0.103  -0.743596  -0.138499  1.590167  -0.135  -0.577136  -0.668035  -0.080973  1.599675  -0.078
O  O82  1  0.39317760  0.33434404  0.57867612  1  -0.684687  -0.264197  1.336727  -0.249  -0.700037  -0.109564  1.600832  -0.106  -0.740704  -0.141971  1.593548  -0.138  -0.578134  -0.668713  -0.089632  1.605013  -0.086
O  O83  1  0.88807142  0.67131924  0.92385809  1  -0.687561  -0.258977  1.333853  -0.244  -0.702403  -0.106162  1.597554  -0.103  -0.743679  -0.138563  1.590479  -0.135  -0.576951  -0.667874  -0.080736  1.600033  -0.078
O  O84  1  0.94795710  0.38516764  0.48958675  1  -0.730524  0.013253  2.121277  0.002  -0.710703  0.031139  2.422011  0.017  -0.751661  0.02782  2.423231  0.015  -0.467479  -0.678733  0.030679  2.419655  0.016
O  O85  1  0.44692625  0.61506980  0.01079858  1  -0.728381  0.009142  2.125864  -0.007  -0.708893  0.032608  2.426657  0.016  -0.749619  0.029638  2.427621  0.015  -0.466216  -0.676331  0.032738  2.423748  0.016
O  O86  1  0.05201596  0.61485592  0.51041654  1  -0.730488  -0.015498  2.120849  -0.002  -0.710652  -0.032636  2.421597  -0.017  -0.751609  -0.029488  2.422816  -0.015  -0.467433  -0.678492  -0.03165  2.419198  -0.016
O  O87  1  0.55302915  0.38490226  0.98916602  1  -0.728186  0.009047  2.126045  -0.007  -0.708628  0.032547  2.42672  0.016  -0.749332  0.029563  2.427693  0.014  -0.466162  -0.676212  0.032764  2.423901  0.016
