# generated using pymatgen
data_CuH15C19S(NO3)3
_symmetry_space_group_name_H-M   'P 1'
_cell_length_a   9.10986088
_cell_length_b   9.90645357
_cell_length_c   13.08785211
_cell_angle_alpha   96.72832629
_cell_angle_beta   103.16601554
_cell_angle_gamma   116.51393661
_symmetry_Int_Tables_number   1
_chemical_formula_structural   CuH15C19S(NO3)3
_chemical_formula_sum   'Cu2 H30 C38 S2 N6 O18'
_cell_volume   996.13547561
_cell_formula_units_Z   2
loop_
 _symmetry_equiv_pos_site_id
 _symmetry_equiv_pos_as_xyz
  1  'x, y, z'
loop_
 _atom_site_type_symbol
 _atom_site_label
 _atom_site_symmetry_multiplicity
 _atom_site_fract_x
 _atom_site_fract_y
 _atom_site_fract_z
 _atom_site_occupancy
 _atom_site_hle17_ddec_charge
 _atom_site_hle17_ddec_spin_density
 _atom_site_hle17_ddec_sum_bond_order
 _atom_site_hle17_magmom
 _atom_site_hse06_10hf_ddec_charge
 _atom_site_hse06_10hf_ddec_spin_density
 _atom_site_hse06_10hf_ddec_sum_bond_order
 _atom_site_hse06_10hf_magmom
 _atom_site_hse06_ddec_charge
 _atom_site_hse06_ddec_spin_density
 _atom_site_hse06_ddec_sum_bond_order
 _atom_site_hse06_magmom
 _atom_site_pbe_cm5_charge
 _atom_site_pbe_ddec_charge
 _atom_site_pbe_ddec_spin_density
 _atom_site_pbe_ddec_sum_bond_order
 _atom_site_pbe_magmom
Cu  Cu0  1  0.76395827  0.34589319  0.00942116  1  0.907063  -0.719992  1.714942  -0.506  0.90221  -0.813431  2.10435  -0.633  1.013471  -0.892345  2.008494  -0.727  0.721945  0.841945  -0.758572  2.158443  -0.575
Cu  Cu1  1  0.23604436  0.65410824  0.99057966  1  0.906997  0.719995  1.715049  0.506  0.902124  0.813425  2.104425  0.633  1.013405  0.892346  2.008579  0.727  0.721907  0.841884  0.758572  2.158506  0.575
H  H2  1  0.53036461  0.24704649  0.13725586  1  0.424916  2.7e-05  0.860362  0.0  0.40698  3.5e-05  0.906715  0.0  0.417954  2.8e-05  0.890616  0.0  0.297453  0.399503  4.3e-05  0.917715  0.0
H  H3  1  0.46963627  0.75295377  0.86274381  1  0.424911  -2.7e-05  0.860353  0.0  0.406974  -3.5e-05  0.906719  0.0  0.417948  -2.8e-05  0.89062  0.0  0.297451  0.399496  -4.3e-05  0.917717  0.0
H  H4  1  0.49213532  0.35780423  0.07012650  1  0.433429  -5e-06  0.869563  0.0  0.405766  7e-06  0.929105  0.0  0.418008  5e-06  0.911173  0.0  0.286602  0.397408  1.8e-05  0.941328  0.0
H  H5  1  0.50786567  0.64219835  0.92987568  1  0.433411  5e-06  0.869589  0.0  0.405724  -7e-06  0.929164  0.0  0.417966  -5e-06  0.91123  0.0  0.28657  0.397364  -1.8e-05  0.941391  0.0
H  H6  1  0.67883363  0.36228702  0.31455727  1  0.312927  -4e-06  0.912327  0.0  0.287402  0.0  0.980333  0.0  0.2966  -0.0  0.972963  0.0  0.316434  0.280897  1e-06  0.985526  0.0
H  H7  1  0.32116047  0.63771321  0.68544207  1  0.31302  4e-06  0.912321  0.0  0.287484  -1e-06  0.980304  0.0  0.296681  1e-06  0.972933  0.0  0.316473  0.280983  -1e-06  0.985487  0.0
H  H8  1  0.28650050  0.95416001  0.49561906  1  0.321874  1.1e-05  0.911413  0.0  0.300449  5e-06  0.979322  0.0  0.308925  5e-06  0.972577  0.0  0.308399  0.294472  6e-06  0.984057  0.0
H  H9  1  0.71349424  0.04584138  0.50437743  1  0.321884  -1.1e-05  0.911442  0.0  0.300473  -5e-06  0.979312  0.0  0.308949  -5e-06  0.972569  0.0  0.308427  0.294497  -6e-06  0.984047  0.0
H  H10  1  0.65989392  0.47918091  0.46997649  1  0.106405  -5e-06  0.947981  0.0  0.114881  -1e-05  1.009762  0.0  0.117939  -5e-06  1.006725  0.0  0.129735  0.112515  -1.4e-05  1.012119  0.0
H  H11  1  0.34009967  0.52082048  0.53002287  1  0.106464  7e-06  0.947873  0.0  0.114844  1e-05  1.009768  0.0  0.117912  5e-06  1.00672  0.0  0.129717  0.112476  1.4e-05  1.012125  0.0
H  H12  1  0.90815805  0.73608021  0.58803513  1  0.142831  -1.2e-05  0.955521  0.0  0.148463  -4e-06  1.016691  0.0  0.152571  -3e-06  1.014881  0.0  0.118441  0.145421  -4e-06  1.018339  0.0
H  H13  1  0.09183781  0.26392119  0.41196383  1  0.142823  1.1e-05  0.955489  0.0  0.148449  4e-06  1.016676  0.0  0.152557  3e-06  1.014866  0.0  0.118429  0.145409  4e-06  1.018323  0.0
H  H14  1  0.17332270  0.73166442  0.35249361  1  0.134093  1.4e-05  0.951451  0.0  0.14269  5e-06  1.010275  0.0  0.145863  5e-06  1.01045  0.0  0.116199  0.140274  3e-06  1.010602  0.0
H  H15  1  0.82667353  0.26833350  0.64750664  1  0.134065  -1.6e-05  0.95142  0.0  0.142637  -5e-06  1.010278  0.0  0.145807  -5e-06  1.010459  0.0  0.116169  0.140222  -3e-06  1.010605  0.0
H  H16  1  0.91464474  0.47153427  0.24610318  1  0.122057  0.000301  0.957403  0.0  0.127013  0.000184  1.022131  0.0  0.130266  0.000192  1.019104  0.0  0.133921  0.124435  0.000134  1.024689  0.0
H  H17  1  0.08535036  0.52846363  0.75389765  1  0.122137  -0.000299  0.957349  0.0  0.127091  -0.000184  1.022123  0.0  0.130366  -0.000192  1.019046  0.0  0.13393  0.124507  -0.000134  1.024684  0.0
H  H18  1  0.36370081  0.20230215  0.55414426  1  0.103907  -0.000217  0.978326  0.0  0.110142  -4.3e-05  1.0464  0.0  0.11358  -8e-06  1.043089  0.0  0.107129  0.107551  -8.2e-05  1.048984  0.0
H  H19  1  0.63629554  0.79769809  0.44585621  1  0.103917  0.000216  0.978356  0.0  0.110133  4.3e-05  1.04645  0.0  0.11357  9e-06  1.043141  0.0  0.107124  0.107542  8.2e-05  1.049038  0.0
H  H20  1  0.60950047  0.46876451  0.64794729  1  0.111246  -0.000433  0.949896  0.0  0.121552  -0.000372  1.008354  0.0  0.12477  -0.000258  1.00774  0.0  0.108709  0.11919  -0.000466  1.009081  0.0
H  H21  1  0.39050092  0.53123459  0.35205160  1  0.111227  0.000434  0.949944  0.0  0.121531  0.000372  1.008406  0.0  0.124749  0.000258  1.007795  0.0  0.108706  0.119167  0.000467  1.009136  0.0
H  H22  1  0.78673090  0.51885837  0.83904580  1  0.094466  -0.000486  0.984019  -0.001  0.099469  -0.00045  1.052027  -0.001  0.102542  -0.000373  1.049211  -0.001  0.11996  0.097143  -0.000509  1.054304  -0.001
H  H23  1  0.21327477  0.48113610  0.16095184  1  0.09448  0.000483  0.983979  0.001  0.099472  0.00045  1.052001  0.001  0.102546  0.000373  1.049183  0.001  0.119995  0.09715  0.000509  1.054279  0.001
H  H24  1  0.47442678  0.06691896  0.85314982  1  0.114127  -0.000813  0.921522  -0.002  0.120069  -0.000722  0.986025  -0.002  0.123763  -0.000528  0.982078  -0.001  0.130775  0.117016  -0.000893  0.98941  -0.002
H  H25  1  0.52557499  0.93307665  0.14684654  1  0.114102  0.000813  0.921523  0.002  0.12005  0.000722  0.986009  0.002  0.123737  0.000527  0.982065  0.001  0.130788  0.116996  0.000893  0.989394  0.002
H  H26  1  0.71943277  0.86888944  0.00631715  1  0.104932  -0.000386  0.972945  0.0  0.11167  -0.000394  1.041929  0.0  0.115565  -0.000257  1.038215  0.0  0.110109  0.108816  -0.000626  1.044694  0.0
H  H27  1  0.28056721  0.13111547  0.99368737  1  0.104888  0.000384  0.972999  0.0  0.111627  0.000394  1.041986  0.0  0.115519  0.000257  1.038279  0.0  0.110093  0.108773  0.000627  1.044759  0.0
H  H28  1  0.13240513  0.81378793  0.19571528  1  0.107341  -0.000424  0.954995  0.0  0.113029  -0.000342  1.025967  0.0  0.116267  -0.00024  1.023191  0.0  0.107511  0.1106  -0.000476  1.027811  0.0
H  H29  1  0.86759323  0.18620766  0.80428434  1  0.107334  0.000424  0.954983  0.0  0.113034  0.000342  1.025943  0.0  0.116279  0.00024  1.023166  0.0  0.107496  0.110599  0.000476  1.02779  0.0
H  H30  1  0.16479983  0.26609263  0.23630886  1  0.10868  -0.000367  0.949734  0.0  0.117845  -0.000324  1.015023  0.0  0.12135  -0.000202  1.011948  0.0  0.111971  0.115314  -0.000425  1.017004  0.0
H  H31  1  0.83520832  0.73390650  0.76369493  1  0.108703  0.000367  0.949704  0.0  0.117832  0.000324  1.015038  0.0  0.121336  0.000203  1.011963  0.0  0.111967  0.115299  0.000425  1.017022  0.0
C  C32  1  0.77906774  0.54125374  0.45065758  1  0.14555  -2.4e-05  3.650678  0.0  0.102682  -1.4e-05  3.907373  0.0  0.112089  -7e-06  3.923973  0.0  0.061857  0.09669  -2.3e-05  3.896249  0.0
C  C33  1  0.22092536  0.45874881  0.54933952  1  0.145581  2e-06  3.650748  0.0  0.102731  1.4e-05  3.907457  0.0  0.112133  7e-06  3.924054  0.0  0.06183  0.096739  2.3e-05  3.896335  0.0
C  C34  1  0.91621707  0.68205473  0.51405154  1  -0.209483  -1.8e-05  3.675469  0.0  -0.227634  -5e-06  3.930993  0.0  -0.238492  -9e-06  3.94945  0.0  -0.083187  -0.220789  -8e-06  3.918945  0.0
C  C35  1  0.08377879  0.31794667  0.48594819  1  -0.209524  4.5e-05  3.675444  0.0  -0.227652  5e-06  3.930991  0.0  -0.238512  9e-06  3.94945  0.0  -0.083185  -0.220809  8e-06  3.918945  0.0
C  C36  1  0.06311643  0.75414117  0.47975874  1  0.337598  -3.3e-05  3.754624  0.0  0.322885  -4.3e-05  4.003139  0.0  0.340155  -2.1e-05  4.0187  0.0  0.134808  0.311476  -6.6e-05  3.992325  0.0
C  C37  1  0.93687705  0.24585789  0.52023811  1  0.337592  1.6e-05  3.754568  0.0  0.322838  4.3e-05  4.003142  0.0  0.340109  2.1e-05  4.018703  0.0  0.134824  0.311427  6.6e-05  3.992329  0.0
C  C38  1  0.06205876  0.67890288  0.38089049  1  -0.218674  -7.7e-05  3.663496  0.0  -0.234563  -2.6e-05  3.915879  0.0  -0.24725  -9e-06  3.936156  0.0  -0.07838  -0.226461  -4.8e-05  3.902445  0.0
C  C39  1  0.93793358  0.32109617  0.61910694  1  -0.218635  0.000102  3.663358  0.0  -0.234464  2.6e-05  3.915813  0.0  -0.247155  9e-06  3.9361  0.0  -0.078362  -0.226361  4.8e-05  3.902374  0.0
C  C40  1  0.92148436  0.53704337  0.32150777  1  0.173604  0.00013  3.602108  0.0  0.130676  5.8e-05  3.855321  0.0  0.142079  6.6e-05  3.869065  0.0  0.073213  0.123338  1.7e-05  3.846135  0.0
C  C41  1  0.07850735  0.46295452  0.67849098  1  0.173569  -0.000155  3.601985  0.0  0.130522  -5.7e-05  3.855269  0.0  0.141924  -6.7e-05  3.869021  0.0  0.073183  0.123192  -1.8e-05  3.846072  0.0
C  C42  1  0.25662993  0.94948435  0.65016105  1  0.56638  -0.000461  3.794331  0.0  0.518285  -0.000431  4.079849  0.0  0.548203  -0.000282  4.079021  0.0  0.251119  0.498134  -0.000569  4.079736  0.0
C  C43  1  0.74336757  0.05051589  0.34983655  1  0.566394  0.000465  3.794337  0.0  0.518328  0.000431  4.079797  0.0  0.548247  0.000283  4.078966  0.0  0.251141  0.498182  0.000569  4.079684  0.0
C  C44  1  0.40050802  0.11253136  0.69668281  1  -0.101648  -0.007272  3.747364  -0.008  -0.077269  -0.003596  3.981547  -0.004  -0.089647  -0.003204  4.003155  -0.004  -0.008436  -0.069588  -0.003924  3.967344  -0.005
C  C45  1  0.59949111  0.88746773  0.30331572  1  -0.101701  0.007253  3.747322  0.008  -0.077323  0.003597  3.981507  0.004  -0.089701  0.003203  4.003112  0.004  -0.008452  -0.069647  0.003924  3.967303  0.005
C  C46  1  0.43849723  0.22678742  0.63843734  1  -0.011218  0.00624  3.682959  0.006  -0.042167  0.002449  3.927859  0.002  -0.033581  0.002491  3.941961  0.003  -0.061842  -0.047863  0.002507  3.918806  0.002
C  C47  1  0.56150190  0.77321166  0.36156195  1  -0.011259  -0.006216  3.682986  -0.006  -0.042199  -0.002449  3.927903  -0.002  -0.033615  -0.002491  3.942008  -0.003  -0.061849  -0.047897  -0.002508  3.918847  -0.002
C  C48  1  0.57680357  0.37575067  0.68995173  1  -0.119868  -0.006853  3.710457  -0.007  -0.126716  -0.003054  3.95563  -0.003  -0.136099  -0.002843  3.974878  -0.003  -0.082103  -0.1208  -0.003259  3.943029  -0.004
C  C49  1  0.42319606  0.62424725  0.31004678  1  -0.1198  0.006825  3.710345  0.007  -0.126647  0.003055  3.955524  0.003  -0.136031  0.002844  3.97477  0.003  -0.082066  -0.120727  0.003259  3.94292  0.004
C  C50  1  0.67329052  0.40636492  0.79710209  1  0.157488  0.005407  3.652802  0.006  0.125574  0.001406  3.906623  0.002  0.137636  0.002076  3.922173  0.003  0.058276  0.117495  0.000893  3.897283  0.001
C  C51  1  0.32671176  0.59362953  0.20289501  1  0.157519  -0.005375  3.652613  -0.006  0.125598  -0.001406  3.90644  -0.002  0.137661  -0.002077  3.921987  -0.003  0.058226  0.117515  -0.000894  3.897105  -0.001
C  C52  1  0.50032660  0.15292996  0.80529320  1  0.147071  0.005225  3.612969  0.006  0.106523  0.000566  3.868416  0.001  0.118685  0.001423  3.884832  0.002  0.069354  0.098309  -7.7e-05  3.858884  0.001
C  C53  1  0.49967417  0.84706797  0.19470396  1  0.147204  -0.005214  3.61276  -0.006  0.106623  -0.000564  3.868264  -0.001  0.118793  -0.001424  3.884674  -0.002  0.069389  0.098412  7.7e-05  3.858731  -0.001
C  C54  1  0.86373153  0.17831554  0.08277202  1  0.626493  0.009233  3.864903  0.014  0.580395  0.001745  4.167993  0.006  0.619474  0.001682  4.167305  0.005  0.199073  0.553443  0.001323  4.169185  0.006
C  C55  1  0.13627700  0.82169057  0.91723245  1  0.626249  -0.009237  3.865023  -0.014  0.580247  -0.001745  4.16796  -0.006  0.619326  -0.001681  4.167275  -0.005  0.198928  0.553293  -0.001323  4.169159  -0.006
C  C56  1  0.93526099  0.07726284  0.11670489  1  -0.054476  -0.002478  3.78267  -0.002  -0.025069  -0.001468  4.014317  -0.001  -0.033785  -0.001206  4.03347  -0.001  -0.01279  -0.019718  -0.001547  4.001838  -0.001
C  C57  1  0.06474338  0.92273975  0.88330089  1  -0.054459  0.002461  3.782692  0.002  -0.025041  0.001466  4.014252  0.001  -0.033761  0.001207  4.033411  0.001  -0.012782  -0.019697  0.001547  4.001781  0.001
C  C58  1  0.84474053  0.91808483  0.06767838  1  -0.045044  -3.1e-05  3.676218  0.0  -0.086057  -0.00137  3.922427  -0.002  -0.082024  -0.000593  3.941168  -0.001  -0.066766  -0.089843  -0.001391  3.91193  -0.001
C  C59  1  0.15526222  0.08191893  0.93232572  1  -0.044963  5.9e-05  3.676124  0.0  -0.086002  0.001372  3.922343  0.002  -0.081965  0.000593  3.941078  0.001  -0.066743  -0.089794  0.001392  3.911854  0.002
C  C60  1  0.91448325  0.82251427  0.09624787  1  -0.067554  -0.010855  3.736525  -0.012  -0.038292  -0.005974  3.966268  -0.007  -0.050317  -0.004183  3.9898  -0.005  -0.015193  -0.031548  -0.006408  3.951906  -0.007
C  C61  1  0.08551712  0.17748715  0.90375334  1  -0.067553  0.010839  3.736524  0.012  -0.038305  0.005973  3.966306  0.007  -0.05033  0.004182  3.989839  0.005  -0.015173  -0.031561  0.006409  3.951934  0.007
C  C62  1  0.07654671  0.88768094  0.17530256  1  -0.036545  0.00262  3.684397  0.003  -0.078699  0.000543  3.936983  0.001  -0.071805  0.000605  3.953327  0.001  -0.071612  -0.0817  0.000488  3.925063  0.001
C  C63  1  0.92345416  0.11231931  0.82469864  1  -0.036525  -0.002614  3.68428  -0.003  -0.078699  -0.000543  3.936821  -0.001  -0.071818  -0.000604  3.953177  -0.001  -0.071616  -0.081696  -0.000488  3.924889  -0.001
C  C64  1  0.16457637  0.04699589  0.22597606  1  -0.13029  -0.001405  3.742075  -0.002  -0.100204  -0.000385  3.994752  -0.001  -0.110589  -0.000453  4.016589  -0.001  -0.021749  -0.094146  -0.000371  3.98002  -0.001
C  C65  1  0.83542603  0.95300089  0.77402278  1  -0.130372  0.001396  3.741951  0.002  -0.100209  0.000388  3.994511  0.001  -0.110596  0.000453  4.016348  0.001  -0.021738  -0.094159  0.000371  3.979775  0.001
C  C66  1  0.09564897  0.14229831  0.19675851  1  -0.036963  0.001489  3.689249  0.001  -0.081023  -0.000207  3.941266  0.0  -0.074956  0.000131  3.956614  0.0  -0.070083  -0.083583  -0.000574  3.929666  -0.001
C  C67  1  0.90435918  0.85770082  0.80324452  1  -0.036958  -0.001473  3.689216  -0.001  -0.081014  0.000207  3.941167  0.0  -0.074943  -0.000132  3.956512  0.0  -0.070087  -0.083568  0.000574  3.929559  0.001
C  C68  1  0.81284749  0.65178305  0.03914052  1  0.640001  0.00413  3.892836  0.008  0.59919  0.00054  4.185843  0.003  0.636967  0.000913  4.181588  0.003  0.209036  0.57368  0.000129  4.188696  0.004
C  C69  1  0.18715238  0.34821952  0.96085996  1  0.640116  -0.004128  3.892697  -0.008  0.599313  -0.00054  4.185694  -0.003  0.637091  -0.000913  4.181436  -0.003  0.209102  0.573803  -0.000129  4.188553  -0.004
S  S70  1  0.37013463  0.13570985  0.32796620  1  1.296537  -0.000107  5.646601  0.0  1.197003  -6.3e-05  6.172519  0.0  1.245391  -3.8e-05  6.147633  0.0  0.507048  1.163613  -2.1e-05  6.188521  0.0
S  S71  1  0.62986838  0.86428809  0.67203438  1  1.296536  0.000106  5.646621  0.0  1.196971  6.5e-05  6.172534  0.0  1.245358  3.7e-05  6.14765  0.0  0.50701  1.16359  2.1e-05  6.188508  0.0
N  N72  1  0.78448360  0.47138680  0.35765286  1  -0.226509  -2.5e-05  3.46383  0.0  -0.154738  -8e-06  3.690578  0.0  -0.171778  -6e-06  3.706136  0.0  -0.348074  -0.143667  -8e-06  3.680214  0.0
N  N73  1  0.21551000  0.52861459  0.64234574  1  -0.226653  3.8e-05  3.463869  0.0  -0.154725  8e-06  3.69051  0.0  -0.171767  6e-06  3.706076  0.0  -0.348038  -0.143664  8e-06  3.680143  0.0
N  N74  1  0.20472655  0.89615813  0.53793265  1  -0.460219  -0.000462  3.282309  -0.001  -0.401612  -0.000277  3.516632  0.0  -0.426366  -0.000188  3.522492  0.0  -0.389938  -0.384457  -0.000372  3.511921  0.0
N  N75  1  0.79526643  0.10384209  0.46206422  1  -0.460239  0.00046  3.282379  0.001  -0.401634  0.000278  3.516694  0.0  -0.426388  0.000188  3.522552  0.0  -0.389983  -0.384479  0.000372  3.511985  0.0
N  N76  1  0.63391971  0.29667208  0.85384496  1  -0.311658  -0.0629  3.337458  -0.077  -0.264853  -0.044682  3.647491  -0.059  -0.298794  -0.037027  3.66335  -0.052  -0.345554  -0.245945  -0.049125  3.639438  -0.062
N  N77  1  0.36608369  0.70332238  0.14615308  1  -0.311792  0.062888  3.337391  0.077  -0.264933  0.044683  3.647396  0.059  -0.29888  0.037028  3.663261  0.052  -0.345613  -0.24603  0.049127  3.639352  0.062
O  O78  1  0.18868311  0.86692055  0.70735240  1  -0.500195  -0.000751  1.966162  -0.001  -0.457087  -0.000265  2.187803  0.0  -0.47861  -0.000258  2.185403  0.0  -0.260072  -0.442157  -0.000319  2.189068  0.0
O  O79  1  0.81131589  0.13307621  0.29264589  1  -0.500199  0.000747  1.966206  0.001  -0.457086  0.000264  2.187803  0.0  -0.478604  0.000258  2.185393  0.0  -0.260077  -0.44216  0.000319  2.189071  0.0
O  O80  1  0.37128412  0.01741625  0.38601622  1  -0.672963  -7e-05  1.971228  0.0  -0.624789  -3.8e-05  2.225402  0.0  -0.645474  -1.4e-05  2.212601  0.0  -0.345103  -0.60995  -4.6e-05  2.233524  0.0
O  O81  1  0.62871725  0.98258284  0.61398572  1  -0.672902  7e-05  1.97111  0.0  -0.624735  3.8e-05  2.225297  0.0  -0.645405  1.4e-05  2.212472  0.0  -0.345082  -0.609905  4.6e-05  2.233421  0.0
O  O82  1  0.49869100  0.17812621  0.26881838  1  -0.677122  -0.000135  2.000312  0.0  -0.618402  -4.2e-05  2.240367  0.0  -0.640697  -3.6e-05  2.22638  0.0  -0.334077  -0.602666  -3.9e-05  2.249235  0.0
O  O83  1  0.50131351  0.82186825  0.73118366  1  -0.67716  0.000134  2.000316  0.0  -0.618431  4.2e-05  2.240369  0.0  -0.640726  3.6e-05  2.226383  0.0  -0.3341  -0.602693  3.9e-05  2.249213  0.0
O  O84  1  0.38557840  0.27322919  0.39621032  1  -0.677716  -2.9e-05  1.92952  0.0  -0.631128  1.4e-05  2.179576  0.0  -0.651794  1e-05  2.16548  0.0  -0.349674  -0.616068  2.4e-05  2.188459  0.0
O  O85  1  0.61442349  0.72676875  0.60378702  1  -0.677711  3e-05  1.929521  0.0  -0.631115  -1.8e-05  2.179572  0.0  -0.651781  -1e-05  2.165469  0.0  -0.349662  -0.616073  -2.4e-05  2.18847  0.0
O  O86  1  0.72417977  0.12379475  0.00314415  1  -0.55495  -0.106157  1.939708  -0.134  -0.537761  -0.068177  2.206313  -0.095  -0.586588  -0.049664  2.202914  -0.074  -0.30537  -0.50543  -0.081701  2.207647  -0.109
O  O87  1  0.27582722  0.87621484  0.99686496  1  -0.554833  0.106157  1.939633  0.134  -0.537652  0.068179  2.206152  0.095  -0.586483  0.049664  2.20276  0.074  -0.305231  -0.505329  0.0817  2.207492  0.109
O  O88  1  0.94360309  0.32438526  0.12878173  1  -0.570069  -0.088616  1.990885  -0.112  -0.540554  -0.054452  2.250447  -0.076  -0.586784  -0.038207  2.24575  -0.057  -0.304398  -0.512157  -0.061768  2.254612  -0.082
O  O89  1  0.05640543  0.67562085  0.87122426  1  -0.569988  0.088608  1.991025  0.112  -0.540527  0.054451  2.250579  0.076  -0.586753  0.038206  2.245858  0.057  -0.304354  -0.512127  0.061765  2.25474  0.082
O  O90  1  0.89204415  0.57240128  0.05935066  1  -0.604328  -0.103346  2.062527  -0.131  -0.594332  -0.063906  2.37411  -0.089  -0.643529  -0.047947  2.362921  -0.071  -0.329876  -0.564535  -0.072647  2.383377  -0.096
O  O91  1  0.10795574  0.42760130  0.94064600  1  -0.604359  0.103345  2.062474  0.131  -0.594355  0.063909  2.374039  0.089  -0.643555  0.047948  2.362852  0.071  -0.329901  -0.564564  0.07265  2.383312  0.096
O  O92  1  0.58248986  0.32999885  0.10174973  1  -0.859135  0.000942  1.867613  0.0  -0.822525  0.000256  2.053654  -0.001  -0.846517  0.000521  2.012797  0.0  -0.602886  -0.807064  -0.000132  2.080643  -0.001
O  O93  1  0.41751039  0.67000025  0.89824973  1  -0.859099  -0.000944  1.867605  0.0  -0.822469  -0.000256  2.053687  0.001  -0.846471  -0.000522  2.012835  0.0  -0.602863  -0.807017  0.000131  2.080681  0.001
O  O94  1  0.66272953  0.59585907  0.97553953  1  -0.594383  -0.000354  2.00347  -0.002  -0.547356  -5.8e-05  2.223914  -0.001  -0.574637  0.000607  2.217354  0.0  -0.301891  -0.528508  -0.000769  2.227977  -0.002
O  O95  1  0.33727147  0.40414351  0.02446036  1  -0.594447  0.000355  2.003491  0.002  -0.547445  5.8e-05  2.223947  0.001  -0.574726  -0.000606  2.217386  0.0  -0.30194  -0.528596  0.000769  2.228012  0.002
