# generated using pymatgen
data_Zn2H18C31(N2O3)3
_symmetry_space_group_name_H-M   'P 1'
_cell_length_a   7.42265367
_cell_length_b   11.47450166
_cell_length_c   17.36590698
_cell_angle_alpha   94.77723478
_cell_angle_beta   102.69090360
_cell_angle_gamma   98.11248176
_symmetry_Int_Tables_number   1
_chemical_formula_structural   Zn2H18C31(N2O3)3
_chemical_formula_sum   'Zn4 H36 C62 N12 O18'
_cell_volume   1418.46555890
_cell_formula_units_Z   2
loop_
 _symmetry_equiv_pos_site_id
 _symmetry_equiv_pos_as_xyz
  1  'x, y, z'
loop_
 _atom_site_type_symbol
 _atom_site_label
 _atom_site_symmetry_multiplicity
 _atom_site_fract_x
 _atom_site_fract_y
 _atom_site_fract_z
 _atom_site_occupancy
 _atom_site_hle17_bader_spin_density
 _atom_site_hle17_ddec_charge
 _atom_site_hle17_ddec_spin_density
 _atom_site_hle17_ddec_sum_bond_order
 _atom_site_hle17_magmom
 _atom_site_hse06_10hf_bader_spin_density
 _atom_site_hse06_10hf_ddec_charge
 _atom_site_hse06_10hf_ddec_spin_density
 _atom_site_hse06_10hf_ddec_sum_bond_order
 _atom_site_hse06_10hf_magmom
 _atom_site_hse06_bader_spin_density
 _atom_site_hse06_ddec_charge
 _atom_site_hse06_ddec_spin_density
 _atom_site_hse06_ddec_sum_bond_order
 _atom_site_hse06_magmom
 _atom_site_pbe_bader_spin_density
 _atom_site_pbe_cm5_charge
 _atom_site_pbe_ddec_charge
 _atom_site_pbe_ddec_spin_density
 _atom_site_pbe_ddec_sum_bond_order
 _atom_site_pbe_magmom
Zn  Zn0  1  0.19213556  0.46724000  0.46634637  1  0  1.113028  0  1.772169  0  0  0.937352  0  2.233182  0  0  0.984497  0  2.174597  0  0  0.704832  0.904153  0  2.273662  0
Zn  Zn1  1  0.80786109  0.53275975  0.53365160  1  0  1.113025  0  1.772131  0  0  0.937336  0  2.233122  0  0  0.984485  0  2.174538  0  0  0.704833  0.904136  0  2.273604  0
Zn  Zn2  1  0.85278496  0.16521866  0.03563972  1  0  1.016056  0  1.867123  0  0  0.826109  0  2.343582  0  0  0.871114  0  2.290574  0  0  0.71092  0.794723  0  2.380012  0
Zn  Zn3  1  0.14721531  0.83478382  0.96436274  1  0  1.01607  0  1.867108  0  0  0.82615  0  2.343589  0  0  0.87116  0  2.290577  0  0  0.710954  0.794757  0  2.380024  0
H  H4  1  0.47868464  0.48632777  0.35367028  1  0  0.123365  0  0.948322  0  0  0.131724  0  1.007273  0  0  0.135283  0  1.003335  0  0  0.142224  0.129017  0  1.010263  0
H  H5  1  0.52131077  0.51367202  0.64633047  1  0  0.12342  0  0.948353  0  0  0.131793  0  1.007283  0  0  0.135348  0  1.003354  0  0  0.142241  0.129087  0  1.010272  0
H  H6  1  0.95118119  0.59482575  0.32977153  1  0  0.116072  0  0.934687  0  0  0.127654  0  0.988222  0  0  0.130448  0  0.987061  0  0  0.123227  0.125604  0  0.989204  0
H  H7  1  0.04881739  0.40517663  0.67022444  1  0  0.116063  0  0.93471  0  0  0.127654  0  0.988233  0  0  0.130447  0  0.987073  0  0  0.123236  0.125604  0  0.989213  0
H  H8  1  0.12130409  0.68817538  0.21355539  1  0  0.138395  0  0.972031  0  0  0.145214  0  1.036387  0  0  0.149326  0  1.032986  0  0  0.124538  0.142179  0  1.038995  0
H  H9  1  0.87870475  0.31182885  0.78644444  1  0  0.138431  0  0.972018  0  0  0.145252  0  1.036364  0  0  0.149364  0  1.032963  0  0  0.124549  0.142222  0  1.038964  0
H  H10  1  0.74695576  0.90313024  0.05053763  1  0  0.1232  0  0.951889  0  0  0.129439  0  1.016531  0  0  0.132894  0  1.012495  0  0  0.143864  0.12675  0  1.019625  0
H  H11  1  0.25305490  0.09686962  0.94946559  1  0  0.123147  0  0.951897  0  0  0.129416  0  1.01651  0  0  0.132861  0  1.012488  0  0  0.143873  0.12673  0  1.019602  0
H  H12  1  0.75876715  0.19266942  0.22072349  1  0  0.111886  0  0.939776  0  0  0.125071  0  0.992774  0  0  0.127375  0  0.99147  0  0  0.125786  0.12337  0  0.99384  0
H  H13  1  0.24122975  0.80733041  0.77927969  1  0  0.111841  0  0.939814  0  0  0.125051  0  0.99278  0  0  0.127354  0  0.991477  0  0  0.125794  0.123347  0  0.993844  0
H  H14  1  0.66043867  0.98700289  0.28173305  1  0  0.119706  0  0.947822  0  0  0.134093  0  1.001069  0  0  0.136591  0  0.99976  0  0  0.129198  0.132283  0  1.002124  0
H  H15  1  0.33956494  0.01299609  0.71827124  1  0  0.119689  0  0.947766  0  0  0.134097  0  1.000986  0  0  0.136595  0  0.999677  0  0  0.129192  0.13229  0  1.002043  0
H  H16  1  0.75740390  0.35900514  0.16101450  1  0  0.101285  0  0.932103  0  0  0.1126  0  0.991603  0  0  0.114736  0  0.988373  0  0  0.144827  0.110963  0  0.993988  0
H  H17  1  0.24259096  0.64099202  0.83898837  1  0  0.101379  0  0.932068  0  0  0.11268  0  0.991548  0  0  0.114821  0  0.98832  0  0  0.14485  0.111039  0  0.993939  0
H  H18  1  0.81173898  0.37323814  0.92556850  1  0  0.112255  0  0.963987  0  0  0.119787  0  1.0261  0  0  0.122429  0  1.024859  0  0  0.11715  0.117845  0  1.027145  0
H  H19  1  0.18826229  0.62675725  0.07443368  1  0  0.112219  0  0.963956  0  0  0.119782  0  1.026047  0  0  0.122423  0  1.024807  0  0  0.117145  0.117837  0  1.027091  0
H  H20  1  0.71780939  0.58895592  0.98107644  1  0  0.137521  0  0.954658  0  0  0.14145  0  1.021746  0  0  0.14555  0  1.018709  0  0  0.125859  0.138463  0  1.023941  0
H  H21  1  0.28219801  0.41104214  0.01892525  1  0  0.137489  0  0.954652  0  0  0.14142  0  1.021751  0  0  0.145526  0  1.0187  0  0  0.125836  0.138445  0  1.023931  0
H  H22  1  0.45725614  0.81155714  0.25201491  1  0  0.128178  0  0.950315  0  0  0.135634  0  1.018183  0  0  0.138366  0  1.017279  0  0  0.116517  0.133664  0  1.018946  0
H  H23  1  0.54275065  0.18844361  0.74798917  1  0  0.128199  0  0.950382  0  0  0.135663  0  1.018237  0  0  0.138396  0  1.017333  0  0  0.116529  0.133692  0  1.018999  0
H  H24  1  0.81420973  0.73306576  0.09478021  1  0  0.151642  0  0.949116  0  0  0.154876  0  1.019423  0  0  0.159555  0  1.015505  0  0  0.12108  0.151413  0  1.0225  0
H  H25  1  0.18580066  0.26693319  0.90522178  1  0  0.15164  0  0.949214  0  0  0.154914  0  1.019455  0  0  0.15959  0  1.015541  0  0  0.121092  0.151452  0  1.022533  0
H  H26  1  0.49696966  0.44799438  0.18143546  1  0  0.140721  0  0.953881  0  0  0.147315  0  1.019521  0  0  0.151124  0  1.017411  0  0  0.117362  0.14452  0  1.021171  0
H  H27  1  0.50303490  0.55200897  0.81856568  1  0  0.140728  0  0.953848  0  0  0.14733  0  1.019488  0  0  0.15114  0  1.017374  0  0  0.117375  0.144533  0  1.021137  0
H  H28  1  0.99337488  0.10785868  0.52808347  1  0  0.12843  0  0.934343  0  0  0.138109  0  0.995714  0  0  0.142287  0  0.992938  0  0  0.110941  0.135046  0  0.997927  0
H  H29  1  0.00661826  0.89213304  0.47191092  1  0  0.128536  0  0.934229  0  0  0.138195  0  0.995613  0  0  0.142374  0  0.992834  0  0  0.110957  0.135127  0  0.997826  0
H  H30  1  0.51646769  0.00137836  0.62444677  1  0  0.109529  0  0.956486  0  0  0.121052  0  1.014022  0  0  0.124094  0  1.013653  0  0  0.104742  0.118877  0  1.014451  0
H  H31  1  0.48353059  0.99862762  0.37555339  1  0  0.10951  0  0.956659  0  0  0.121047  0  1.014184  0  0  0.124093  0  1.013804  0  0  0.10474  0.118874  0  1.01461  0
H  H32  1  0.36623921  0.16598507  0.56550410  1  0  0.100355  0  0.938782  0  0  0.110473  0  0.998843  0  0  0.114478  0  0.995065  0  0  0.103639  0.10755  0  1.001628  0
H  H33  1  0.63375937  0.83401731  0.43449187  1  0  0.100364  0  0.938764  0  0  0.110458  0  0.998861  0  0  0.114465  0  0.995081  0  0  0.103648  0.107532  0  1.001646  0
H  H34  1  0.84672842  0.10174858  0.73960872  1  0  0.108055  0  0.971722  0  0  0.115522  0  1.039264  0  0  0.119434  0  1.036732  0  0  0.101787  0.112755  0  1.04108  0
H  H35  1  0.15327320  0.89825389  0.26039327  1  0  0.10801  0  0.971791  0  0  0.115451  0  1.03935  0  0  0.119358  0  1.036831  0  0  0.101768  0.112683  0  1.041165  0
H  H36  1  0.81990008  0.74033310  0.64476172  1  0  0.121569  0  0.981803  0  0  0.127328  0  1.051012  0  0  0.130921  0  1.048473  0  0  0.105068  0.124737  0  1.052907  0
H  H37  1  0.18009054  0.25967017  0.35523591  1  0  0.121572  0  0.981883  0  0  0.127338  0  1.051075  0  0  0.13093  0  1.048536  0  0  0.105058  0.124736  0  1.052997  0
H  H38  1  0.76627322  0.67550440  0.77263794  1  0  0.080391  0  0.96803  0  0  0.090591  0  1.030405  0  0  0.093493  0  1.029529  0  0  0.092903  0.08851  0  1.031142  0
H  H39  1  0.23372017  0.32449888  0.22735993  1  0  0.080461  0  0.967929  0  0  0.090649  0  1.030316  0  0  0.093551  0  1.029442  0  0  0.09295  0.088569  0  1.031052  0
C  C40  1  0.35588748  0.52538296  0.32988918  1  0  0.178139  0  3.606748  0  0  0.116414  0  3.872877  0  0  0.130341  0  3.884078  0  0  0.150734  0.10748  0  3.865021  0
C  C41  1  0.64411171  0.47461591  0.67010896  1  0  0.177983  0  3.606855  0  0  0.116213  0  3.873007  0  0  0.13014  0  3.884211  0  0  0.150691  0.107276  0  3.865152  0
C  C42  1  0.08366686  0.58457053  0.31570183  1  0  0.02016  0  3.729049  0  0  -0.015767  0  3.997264  0  0  -0.014014  0  4.017496  0  0  0.004829  -0.016983  0  3.983653  0
C  C43  1  0.91633463  0.41543190  0.68429727  1  0  0.020199  0  3.728895  0  0  -0.015721  0  3.997103  0  0  -0.013968  0  4.017334  0  0  0.004827  -0.016939  0  3.983491  0
C  C44  1  0.16465732  0.63120277  0.25886501  1  0  -0.068653  0  3.629523  0  0  -0.109771  0  3.8894  0  0  -0.108701  0  3.907358  0  0  0.000187  -0.110392  0  3.877399  0
C  C45  1  0.83534079  0.36879700  0.74113482  1  0  -0.068725  0  3.629507  0  0  -0.109871  0  3.889386  0  0  -0.108801  0  3.907344  0  0  0.000177  -0.110503  0  3.87738  0
C  C46  1  0.73607624  0.95484248  0.10419638  1  0  0.201189  0  3.570732  0  0  0.138065  0  3.832844  0  0  0.15349  0  3.842815  0  0  0.159036  0.128119  0  3.825932  0
C  C47  1  0.26393086  0.04515385  0.89580808  1  0  0.201447  0  3.570619  0  0  0.138313  0  3.832762  0  0  0.153748  0  3.842736  0  0  0.159159  0.128363  0  3.825849  0
C  C48  1  0.73986818  0.10237588  0.19319281  1  0  0.046483  0  3.706362  0  0  0.008949  0  3.975596  0  0  0.011396  0  3.996316  0  0  0.017279  0.007338  0  3.961605  0
C  C49  1  0.26012888  0.89762481  0.80680928  1  0  0.046496  0  3.706578  0  0  0.00897  0  3.97581  0  0  0.011421  0  3.996533  0  0  0.017258  0.007358  0  3.961816  0
C  C50  1  0.68926848  0.00094093  0.22453902  1  0  -0.048109  0  3.637576  0  0  -0.090231  0  3.897681  0  0  -0.09006  0  3.917388  0  0  0.008689  -0.090324  0  3.884406  0
C  C51  1  0.31074506  0.99905897  0.77546675  1  0  -0.048161  0  3.637374  0  0  -0.090291  0  3.897492  0  0  -0.090123  0  3.917197  0  0  0.008646  -0.090381  0  3.884217  0
C  C52  1  0.76398557  0.39090118  0.10469946  1  0  0.205218  0  3.636534  0  0  0.140334  0  3.903422  0  0  0.156426  0  3.913335  0  0  0.156964  0.129877  0  3.89645  0
C  C53  1  0.23601522  0.60909777  0.89530343  1  0  0.205166  0  3.63649  0  0  0.140334  0  3.903342  0  0  0.156419  0  3.913262  0  0  0.156968  0.129873  0  3.89637  0
C  C54  1  0.78762854  0.40415546  0.98246780  1  0  0.01291  0  3.726285  0  0  -0.022295  0  3.99216  0  0  -0.020439  0  4.012205  0  0  0.002018  -0.023487  0  3.978706  0
C  C55  1  0.21237220  0.59584347  0.01753394  1  0  0.01291  0  3.726161  0  0  -0.022327  0  3.992042  0  0  -0.020469  0  4.012083  0  0  0.001959  -0.023525  0  3.978587  0
C  C56  1  0.74280789  0.50953560  0.00895670  1  0  -0.049879  0  3.612994  0  0  -0.088642  0  3.872678  0  0  -0.087621  0  3.890414  0  0  0.004179  -0.089276  0  3.860922  0
C  C57  1  0.25719974  0.49046335  0.99104505  1  0  -0.049834  0  3.612939  0  0  -0.088597  0  3.872633  0  0  -0.087572  0  3.890366  0  0  0.004189  -0.089246  0  3.860861  0
C  C58  1  0.47347177  0.62748811  0.22480985  1  0  0.20465  0  3.797306  0  0  0.201991  0  4.042287  0  0  0.207565  0  4.065237  0  0  0.101091  0.198255  0  4.026777  0
C  C59  1  0.52653456  0.37251086  0.77519352  1  0  0.204578  0  3.797323  0  0  0.201888  0  4.042315  0  0  0.207462  0  4.065265  0  0  0.101029  0.198153  0  4.026805  0
C  C60  1  0.52041721  0.74843780  0.22067566  1  0  -0.213072  0  3.686899  0  0  -0.246715  0  3.942051  0  0  -0.25178  0  3.961172  0  0  -0.082568  -0.2434  0  3.929292  0
C  C61  1  0.47959470  0.25156121  0.77932935  1  0  -0.21317  0  3.68711  0  0  -0.246837  0  3.942214  0  0  -0.251903  0  3.961332  0  0  -0.082654  -0.243521  0  3.929454  0
C  C62  1  0.64168280  0.78542817  0.17323277  1  0  0.230144  0  3.778019  0  0  0.22477  0  4.020813  0  0  0.231619  0  4.042349  0  0  0.111998  0.220116  0  4.006348  0
C  C63  1  0.35832485  0.21457078  0.82676956  1  0  0.230136  0  3.778036  0  0  0.224838  0  4.020718  0  0  0.231689  0  4.042251  0  0  0.112042  0.220182  0  4.006254  0
C  C64  1  0.71669342  0.70357345  0.13065245  1  0  -0.216007  0  3.639191  0  0  -0.246326  0  3.893151  0  0  -0.251207  0  3.909869  0  0  -0.077926  -0.243188  0  3.882204  0
C  C65  1  0.28331706  0.29642553  0.86935128  1  0  -0.215981  0  3.639396  0  0  -0.246412  0  3.893263  0  0  -0.251295  0  3.909983  0  0  -0.07797  -0.24327  0  3.882316  0
C  C66  1  0.66494121  0.58326715  0.13540757  1  0  0.212938  0  3.803136  0  0  0.205565  0  4.052828  0  0  0.211812  0  4.076479  0  0  0.104352  0.201362  0  4.036883  0
C  C67  1  0.33506512  0.41673182  0.86459580  1  0  0.21278  0  3.803252  0  0  0.205572  0  4.05274  0  0  0.211822  0  4.076387  0  0  0.104349  0.201368  0  4.036796  0
C  C68  1  0.54434605  0.54283263  0.18279624  1  0  -0.235932  0  3.680989  0  0  -0.266448  0  3.934679  0  0  -0.272501  0  3.954408  0  0  -0.085059  -0.262439  0  3.921555  0
C  C69  1  0.45565391  0.45716894  0.81720442  1  0  -0.235832  0  3.68087  0  0  -0.266409  0  3.934512  0  0  -0.272464  0  3.954238  0  0  -0.085016  -0.262399  0  3.921386  0
C  C70  1  0.50520108  0.33057926  0.48455803  1  0  0.664856  0  3.88944  0  0  0.608456  0  4.18967  0  0  0.643993  0  4.181935  0  0  0.213094  0.584241  0  4.194289  0
C  C71  1  0.49479587  0.66941688  0.51543575  1  0  0.664863  0  3.889774  0  0  0.608375  0  4.19011  0  0  0.643911  0  4.182372  0  0  0.213008  0.584162  0  4.194735  0
C  C72  1  0.88436650  0.29441905  0.46164063  1  0  0.668574  0  3.899418  0  0  0.614638  0  4.200846  0  0  0.648395  0  4.19093  0  0  0.206853  0.591457  0  4.207029  0
C  C73  1  0.11562794  0.70557798  0.53835356  1  0  0.668487  0  3.89908  0  0  0.614555  0  4.200523  0  0  0.648308  0  4.190612  0  0  0.206839  0.591374  0  4.20671  0
C  C74  1  0.73736612  0.79861064  0.90123924  1  0  0.671122  0  3.911927  0  0  0.619126  0  4.217031  0  0  0.654003  0  4.205728  0  0  0.206071  0.595258  0  4.224051  0
C  C75  1  0.26263020  0.20139270  0.09876234  1  0  0.671145  0  3.911866  0  0  0.619179  0  4.216945  0  0  0.654055  0  4.205643  0  0  0.206041  0.59531  0  4.223963  0
C  C76  1  0.80042672  0.07184723  0.88117957  1  0  0.638115  0  3.91649  0  0  0.588498  0  4.212503  0  0  0.622507  0  4.204628  0  0  0.198126  0.565427  0  4.217112  0
C  C77  1  0.19957333  0.92815436  0.11882282  1  0  0.638137  0  3.916409  0  0  0.588548  0  4.212385  0  0  0.622559  0  4.204512  0  0  0.198202  0.565479  0  4.216996  0
C  C78  1  0.59597315  0.23114225  0.51593070  1  0  -0.128413  0  3.761299  0  0  -0.118471  0  4.005009  0  0  -0.129242  0  4.028667  0  0  -0.033526  -0.111601  0  3.98933  0
C  C79  1  0.40402073  0.76885297  0.48406104  1  0  -0.128554  0  3.761359  0  0  -0.118582  0  4.00507  0  0  -0.129358  0  4.02873  0  0  -0.033536  -0.111714  0  3.989397  0
C  C80  1  0.77265630  0.21365385  0.50450606  1  0  -0.003587  0  3.721261  0  0  0.010311  0  3.955981  0  0  0.011004  0  3.97485  0  0  0.000202  0.009877  0  3.943391  0
C  C81  1  0.22733501  0.78634224  0.49548492  1  0  -0.003443  0  3.721221  0  0  0.010454  0  3.9559  0  0  0.011156  0  3.974758  0  0  0.000276  0.010018  0  3.943312  0
C  C82  1  0.85646391  0.12150798  0.53676576  1  0  -0.207335  0  3.699562  0  0  -0.240348  0  3.954364  0  0  -0.24621  0  3.970628  0  0  -0.10082  -0.236535  0  3.943566  0
C  C83  1  0.14352723  0.87848724  0.46322632  1  0  -0.207547  0  3.699538  0  0  -0.240538  0  3.954366  0  0  -0.246402  0  3.970621  0  0  -0.100928  -0.236718  0  3.943567  0
C  C84  1  0.76646638  0.04806528  0.58171737  1  0  0.295933  0  3.796376  0  0  0.285073  0  4.060155  0  0  0.298385  0  4.074296  0  0  0.092343  0.276059  0  4.050408  0
C  C85  1  0.23352628  0.95193532  0.41827915  1  0  0.296009  0  3.796331  0  0  0.285138  0  4.060114  0  0  0.29845  0  4.074253  0  0  0.092359  0.276129  0  4.050368  0
C  C86  1  0.58877946  0.06293998  0.59245183  1  0  -0.209055  0  3.786181  0  0  -0.230787  0  4.046394  0  0  -0.23861  0  4.067524  0  0  -0.108362  -0.225704  0  4.032223  0
C  C87  1  0.41121904  0.93706688  0.40754839  1  0  -0.209248  0  3.786349  0  0  -0.230999  0  4.04659  0  0  -0.238821  0  4.067722  0  0  -0.10841  -0.225916  0  4.032417  0
C  C88  1  0.50539061  0.15348967  0.55923545  1  0  -0.027337  0  3.754508  0  0  -0.055252  0  4.016119  0  0  -0.05071  0  4.033236  0  0  -0.083588  -0.058017  0  4.004474  0
C  C89  1  0.49461007  0.84651539  0.44076198  1  0  -0.027123  0  3.75443  0  0  -0.055022  0  4.016024  0  0  -0.050476  0  4.033137  0  0  -0.083528  -0.057785  0  4.00438  0
C  C90  1  0.77162023  0.85135856  0.82784774  1  0  -0.075605  0  3.730379  0  0  -0.06498  0  3.968438  0  0  -0.067518  0  3.987374  0  0  -0.017793  -0.063456  0  3.955884  0
C  C91  1  0.22837855  0.14864388  0.17215228  1  0  -0.075625  0  3.730312  0  0  -0.065062  0  3.968438  0  0  -0.0676  0  3.987377  0  0  -0.017804  -0.063537  0  3.955884  0
C  C92  1  0.79639323  0.97298478  0.81798889  1  0  -0.066871  0  3.758054  0  0  -0.054608  0  3.998628  0  0  -0.060583  0  4.021163  0  0  -0.021633  -0.050809  0  3.983559  0
C  C93  1  0.20360303  0.02701854  0.18201153  1  0  -0.066808  0  3.757934  0  0  -0.054506  0  3.998461  0  0  -0.060483  0  4.020997  0  0  -0.021621  -0.050711  0  3.983394  0
C  C94  1  0.82489352  0.00743883  0.74563128  1  0  -0.201171  0  3.777823  0  0  -0.23359  0  4.033931  0  0  -0.236149  0  4.052414  0  0  -0.103901  -0.231628  0  4.02142  0
C  C95  1  0.17509953  0.99256271  0.25436878  1  0  -0.201153  0  3.777977  0  0  -0.233532  0  4.034063  0  0  -0.236089  0  4.052547  0  0  -0.103924  -0.231567  0  4.021553  0
C  C96  1  0.82636250  0.92386006  0.68323652  1  0  0.266382  0  3.79309  0  0  0.259024  0  4.054401  0  0  0.267982  0  4.069947  0  0  0.080445  0.252661  0  4.043856  0
C  C97  1  0.17363498  0.07614240  0.31676511  1  0  0.266294  0  3.793187  0  0  0.258931  0  4.054495  0  0  0.267885  0  4.070049  0  0  0.080471  0.252568  0  4.043948  0
C  C98  1  0.80835658  0.80385429  0.69267342  1  0  -0.133659  0  3.710263  0  0  -0.16131  0  3.964625  0  0  -0.16324  0  3.982783  0  0  -0.093815  -0.159857  0  3.952357  0
C  C99  1  0.19163667  0.19614812  0.30732613  1  0  -0.13367  0  3.710198  0  0  -0.161322  0  3.964559  0  0  -0.163252  0  3.982719  0  0  -0.093835  -0.159872  0  3.952281  0
C  C100  1  0.78062952  0.76944375  0.76473964  1  0  -0.086055  0  3.770744  0  0  -0.103104  0  4.020194  0  0  -0.105523  0  4.040749  0  0  -0.094554  -0.101466  0  4.006349  0
C  C101  1  0.21936370  0.23055865  0.23525932  1  0  -0.08611  0  3.770572  0  0  -0.103136  0  4.020049  0  0  -0.105555  0  4.040605  0  0  -0.09457  -0.101494  0  4.006196  0
N  N102  1  0.20413977  0.51964737  0.35951393  1  0  -0.392217  0  3.31392  0  0  -0.313092  0  3.615869  0  0  -0.334077  0  3.628803  0  0  -0.351053  -0.298878  0  3.606833  0
N  N103  1  0.79586080  0.48035151  0.64048434  1  0  -0.392127  0  3.313845  0  0  -0.313008  0  3.61582  0  0  -0.333991  0  3.628753  0  0  -0.351055  -0.298786  0  3.606777  0
N  N104  1  0.33698536  0.59249302  0.26853617  1  0  -0.094529  0  3.588301  0  0  -0.005105  0  3.800924  0  0  -0.01975  0  3.825923  0  0  -0.22654  0.004611  0  3.783804  0
N  N105  1  0.66301458  0.40750854  0.73146391  1  0  -0.094439  0  3.588243  0  0  -0.004938  0  3.800788  0  0  -0.019582  0  3.825788  0  0  -0.226469  0.004783  0  3.783665  0
N  N106  1  0.76802729  0.07245316  0.11828865  1  0  -0.379003  0  3.288188  0  0  -0.296221  0  3.588346  0  0  -0.316894  0  3.601097  0  0  -0.348688  -0.282331  0  3.579541  0
N  N107  1  0.23197699  0.92754315  0.88171441  1  0  -0.379059  0  3.288499  0  0  -0.29634  0  3.588745  0  0  -0.317023  0  3.601496  0  0  -0.348729  -0.282435  0  3.57993  0
N  N108  1  0.68778388  0.90770637  0.16770346  1  0  -0.090823  0  3.588146  0  0  -0.001542  0  3.799673  0  0  -0.01693  0  3.825117  0  0  -0.218938  0.008717  0  3.78222  0
N  N109  1  0.31222021  0.09229439  0.83230154  1  0  -0.090865  0  3.587951  0  0  -0.001623  0  3.79951  0  0  -0.017009  0  3.824946  0  0  -0.218973  0.008634  0  3.782062  0
N  N110  1  0.80056535  0.33141420  0.04263809  1  0  -0.372966  0  3.305257  0  0  -0.290594  0  3.607518  0  0  -0.310123  0  3.61704  0  0  -0.355234  -0.277523  0  3.600965  0
N  N111  1  0.19942804  0.66858292  0.95736292  1  0  -0.373003  0  3.305189  0  0  -0.290647  0  3.607438  0  0  -0.310179  0  3.616962  0  0  -0.35522  -0.277564  0  3.600875  0
N  N112  1  0.72777097  0.49968358  0.08687040  1  0  -0.099282  0  3.590948  0  0  -0.008971  0  3.801812  0  0  -0.024708  0  3.82746  0  0  -0.22266  0.00149  0  3.784301  0
N  N113  1  0.27222953  0.50031445  0.91313069  1  0  -0.099228  0  3.590999  0  0  -0.008994  0  3.801833  0  0  -0.024731  0  3.827478  0  0  -0.222651  0.001471  0  3.784326  0
O  O114  1  0.33392310  0.32829167  0.48589924  1  0  -0.621009  0  2.071226  0  0  -0.555061  0  2.342467  0  0  -0.582108  0  2.327935  0  0  -0.310991  -0.536294  0  2.351907  0
O  O115  1  0.66607639  0.67170893  0.51409614  1  0  -0.621077  0  2.071376  0  0  -0.555043  0  2.342597  0  0  -0.582105  0  2.328091  0  0  -0.31098  -0.536252  0  2.351978  0
O  O116  1  0.60069492  0.41343682  0.45774944  1  0  -0.668529  0  2.084502  0  0  -0.594613  0  2.343943  0  0  -0.62161  0  2.328941  0  0  -0.326507  -0.575778  0  2.353767  0
O  O117  1  0.39930693  0.58656203  0.54224663  1  0  -0.668491  0  2.084631  0  0  -0.594576  0  2.344126  0  0  -0.621567  0  2.329123  0  0  -0.326449  -0.575746  0  2.35395  0
O  O118  1  0.99047446  0.38499708  0.50960306  1  0  -0.69808  0  2.097185  0  0  -0.612558  0  2.37511  0  0  -0.643401  0  2.356731  0  0  -0.336168  -0.59067  0  2.387017  0
O  O119  1  0.00952851  0.61499554  0.49039106  1  0  -0.698043  0  2.097093  0  0  -0.612506  0  2.374982  0  0  -0.64335  0  2.356608  0  0  -0.336105  -0.590619  0  2.386887  0
O  O120  1  0.88177272  0.27143205  0.39057842  1  0  -0.572824  0  1.87482  0  0  -0.534009  0  2.084738  0  0  -0.555439  0  2.075784  0  0  -0.31235  -0.518737  0  2.090347  0
O  O121  1  0.11821486  0.72856497  0.60941633  1  0  -0.572752  0  1.8745  0  0  -0.533955  0  2.08444  0  0  -0.555379  0  2.075483  0  0  -0.312357  -0.518687  0  2.090049  0
O  O122  1  0.57966811  0.74059275  0.89777696  1  0  -0.615473  0  1.904642  0  0  -0.575429  0  2.136665  0  0  -0.599362  0  2.128291  0  0  -0.328114  -0.558185  0  2.141659  0
O  O123  1  0.42032713  0.25940698  0.10222031  1  0  -0.615458  0  1.904611  0  0  -0.575399  0  2.136605  0  0  -0.59933  0  2.128229  0  0  -0.328094  -0.558151  0  2.141599  0
O  O124  1  0.87645868  0.80713566  0.96253276  1  0  -0.671595  0  2.0817  0  0  -0.599382  0  2.367259  0  0  -0.628512  0  2.350267  0  0  -0.339072  -0.578689  0  2.378075  0
O  O125  1  0.12353924  0.19286324  0.03746758  1  0  -0.671637  0  2.081674  0  0  -0.599448  0  2.367245  0  0  -0.628577  0  2.350251  0  0  -0.339056  -0.578761  0  2.378072  0
O  O126  1  0.74859129  0.04159372  0.94408731  1  0  -0.632901  0  2.048229  0  0  -0.556052  0  2.314498  0  0  -0.58427  0  2.300319  0  0  -0.328649  -0.536311  0  2.323394  0
O  O127  1  0.25140368  0.95840429  0.05591330  1  0  -0.632841  0  2.048151  0  0  -0.556081  0  2.314506  0  0  -0.58429  0  2.300304  0  0  -0.328659  -0.536342  0  2.323408  0
O  O128  1  0.85452214  0.17724680  0.87098456  1  0  -0.633607  0  1.934001  0  0  -0.584531  0  2.16841  0  0  -0.606681  0  2.158777  0  0  -0.328219  -0.568964  0  2.174574  0
O  O129  1  0.14547490  0.82275389  0.12901695  1  0  -0.633651  0  1.933994  0  0  -0.584581  0  2.168406  0  0  -0.606735  0  2.158775  0  0  -0.328266  -0.569012  0  2.17457  0
O  O130  1  0.85681972  0.95900033  0.61173788  1  0  -0.284882  0  2.323068  0  0  -0.216805  0  2.544204  0  0  -0.234949  0  2.546172  0  0  -0.148264  -0.203857  0  2.542366  0
O  O131  1  0.14317909  0.04100211  0.38826272  1  0  -0.284752  0  2.323126  0  0  -0.216678  0  2.544282  0  0  -0.234818  0  2.546253  0  0  -0.148215  -0.203731  0  2.542446  0
