# generated using pymatgen
data_LiH7C4O5
_symmetry_space_group_name_H-M   'P 1'
_cell_length_a   9.48691101
_cell_length_b   10.41390400
_cell_length_c   13.23440000
_cell_angle_alpha   107.64770059
_cell_angle_beta   90.00000000
_cell_angle_gamma   90.00000000
_symmetry_Int_Tables_number   1
_chemical_formula_structural   LiH7C4O5
_chemical_formula_sum   'Li8 H56 C32 O40'
_cell_volume   1245.96996732
_cell_formula_units_Z   8
loop_
 _symmetry_equiv_pos_site_id
 _symmetry_equiv_pos_as_xyz
  1  'x, y, z'
loop_
 _atom_site_type_symbol
 _atom_site_label
 _atom_site_symmetry_multiplicity
 _atom_site_fract_x
 _atom_site_fract_y
 _atom_site_fract_z
 _atom_site_occupancy
 _atom_site_hle17_bader_spin_density
 _atom_site_hle17_ddec_charge
 _atom_site_hle17_ddec_spin_density
 _atom_site_hle17_ddec_sum_bond_order
 _atom_site_hle17_magmom
 _atom_site_hse06_10hf_bader_spin_density
 _atom_site_hse06_10hf_ddec_charge
 _atom_site_hse06_10hf_ddec_spin_density
 _atom_site_hse06_10hf_ddec_sum_bond_order
 _atom_site_hse06_10hf_magmom
 _atom_site_hse06_bader_spin_density
 _atom_site_hse06_ddec_charge
 _atom_site_hse06_ddec_spin_density
 _atom_site_hse06_ddec_sum_bond_order
 _atom_site_hse06_magmom
 _atom_site_pbe_bader_charge
 _atom_site_pbe_bader_spin_density
 _atom_site_pbe_cm5_charge
 _atom_site_pbe_ddec_charge
 _atom_site_pbe_ddec_spin_density
 _atom_site_pbe_ddec_sum_bond_order
 _atom_site_pbe_magmom
Li  Li0  1  0.14314775  0.43999628  0.63403240  1  0  0.853881  0  0.378131  0  0  0.80468  0  0.494077  0  0  0.815272  0  0.476356  0  0.869225  0  0.478413  0.797453  0  0.506086  0
Li  Li1  1  0.64314717  0.06000416  0.86596748  1  0  0.853875  0  0.378135  0  0  0.804674  0  0.494087  0  0  0.815267  0  0.476366  0  0.869236  0  0.478427  0.797447  0  0.506096  0
Li  Li2  1  0.85685214  0.56000360  0.36596787  1  0  0.853886  0  0.37813  0  0  0.804686  0  0.494073  0  0  0.815278  0  0.476353  0  0.869238  0  0.478417  0.797459  0  0.506081  0
Li  Li3  1  0.35685167  0.93999673  0.13403304  1  0  0.853868  0  0.378143  0  0  0.804685  0  0.494061  0  0  0.815277  0  0.47634  0  0.869235  0  0.478429  0.797458  0  0.506069  0
Li  Li4  1  0.64098736  0.54286805  0.84639699  1  0  0.857259  0  0.371635  0  0  0.80625  0  0.489623  0  0  0.816917  0  0.471762  0  0.873485  0  0.466167  0.79875  0  0.50199  0
Li  Li5  1  0.14098688  0.95713127  0.65360292  1  0  0.857254  0  0.371641  0  0  0.806257  0  0.489607  0  0  0.816923  0  0.471751  0  0.873484  0  0.466179  0.798759  0  0.501972  0
Li  Li6  1  0.35901359  0.45713184  0.15360329  1  0  0.857251  0  0.371646  0  0  0.806244  0  0.489631  0  0  0.816912  0  0.471771  0  0.873486  0  0.466174  0.798745  0  0.501997  0
Li  Li7  1  0.85901301  0.04286861  0.34639735  1  0  0.857253  0  0.371642  0  0  0.806251  0  0.489617  0  0  0.816917  0  0.47176  0  0.873486  0  0.466174  0.798752  0  0.501982  0
H  H8  1  0.25379388  0.67688309  0.76890884  1  0  0.101003  0  0.924214  0  0  0.121822  0  0.979642  0  0  0.122934  0  0.978788  0  0.083766  0  0.119782  0.12092  0  0.980314  0
H  H9  1  0.75379436  0.82311724  0.73109056  1  0  0.101018  0  0.924195  0  0  0.121838  0  0.979614  0  0  0.122949  0  0.978761  0  0.08362  0  0.119769  0.120936  0  0.980285  0
H  H10  1  0.74620601  0.32311780  0.23109092  1  0  0.10101  0  0.924211  0  0  0.121827  0  0.979636  0  0  0.122939  0  0.978781  0  0.083631  0  0.119781  0.120926  0  0.980307  0
H  H11  1  0.24620553  0.17688164  0.26890947  1  0  0.101024  0  0.924188  0  0  0.121841  0  0.979611  0  0  0.122952  0  0.978759  0  0.083614  0  0.119776  0.12094  0  0.980283  0
H  H12  1  0.25761705  0.71792479  0.90983727  1  0  0.082325  0  0.962851  0  0  0.097763  0  1.031713  0  0  0.098699  0  1.031406  0  0.060452  0  0.102878  0.096923  0  1.032105  0
H  H13  1  0.75761752  0.78207554  0.59016288  1  0  0.082355  0  0.96281  0  0  0.09779  0  1.03166  0  0  0.098722  0  1.031357  0  0.060434  0  0.102882  0.096951  0  1.032052  0
H  H14  1  0.74238390  0.28207510  0.09016225  1  0  0.082343  0  0.96281  0  0  0.097751  0  1.031703  0  0  0.098686  0  1.031398  0  0.060436  0  0.102866  0.09691  0  1.032096  0
H  H15  1  0.24238237  0.21792333  0.40983791  1  0  0.082349  0  0.962805  0  0  0.097783  0  1.031653  0  0  0.098717  0  1.031348  0  0.060429  0  0.102885  0.096943  0  1.032046  0
H  H16  1  0.09736467  0.73938731  0.84423926  1  0  0.079471  0  0.947169  0  0  0.093264  0  1.016736  0  0  0.09347  0  1.017666  0  0.050176  0  0.09867  0.093107  0  1.016051  0
H  H17  1  0.59736515  0.76061302  0.65576090  1  0  0.079458  0  0.947178  0  0  0.093249  0  1.016744  0  0  0.093458  0  1.017671  0  0.050191  0  0.098636  0.093093  0  1.016059  0
H  H18  1  0.90263627  0.26061258  0.15576026  1  0  0.079475  0  0.947153  0  0  0.093266  0  1.016718  0  0  0.093473  0  1.017647  0  0.050179  0  0.098673  0.093109  0  1.016033  0
H  H19  1  0.40263475  0.23938485  0.34423965  1  0  0.079514  0  0.947115  0  0  0.093284  0  1.016705  0  0  0.093491  0  1.017634  0  0.050401  0  0.098659  0.093127  0  1.016022  0
H  H20  1  0.39158795  0.74886955  0.35748024  1  0  0.075139  0  0.955491  0  0  0.087543  0  1.028198  0  0  0.087803  0  1.029128  0  0.050673  0  0.094694  0.08741  0  1.027409  0
H  H21  1  0.89158737  0.75113078  0.14251915  1  0  0.075139  0  0.955523  0  0  0.087547  0  1.028226  0  0  0.087807  0  1.029157  0  0.0506  0  0.0947  0.087414  0  1.027437  0
H  H22  1  0.60841195  0.25113033  0.64251927  1  0  0.07514  0  0.955526  0  0  0.087545  0  1.02823  0  0  0.087806  0  1.02916  0  0.050595  0  0.094701  0.087412  0  1.027441  0
H  H23  1  0.10841358  0.24886911  0.85748036  1  0  0.075154  0  0.955494  0  0  0.087562  0  1.0282  0  0  0.087822  0  1.02913  0  0.05062  0  0.094701  0.087428  0  1.027412  0
H  H24  1  0.23912209  0.71257301  0.42528972  1  0  0.094772  0  0.947657  0  0  0.109769  0  1.015457  0  0  0.110959  0  1.014847  0  0.090668  0  0.105987  0.108701  0  1.016159  0
H  H25  1  0.73912151  0.78742732  0.07471044  1  0  0.094767  0  0.947658  0  0  0.109767  0  1.015461  0  0  0.110956  0  1.014851  0  0.090667  0  0.105986  0.108698  0  1.016163  0
H  H26  1  0.76087886  0.28742687  0.57471056  1  0  0.094756  0  0.947666  0  0  0.109742  0  1.015479  0  0  0.110931  0  1.01487  0  0.090671  0  0.105988  0.108674  0  1.016181  0
H  H27  1  0.26087838  0.21257257  0.92528984  1  0  0.09475  0  0.947669  0  0  0.109746  0  1.015475  0  0  0.110936  0  1.014867  0  0.090662  0  0.10598  0.108678  0  1.016178  0
H  H28  1  0.23316230  0.68736495  0.28487952  1  0  0.095422  0  0.93689  0  0  0.113533  0  0.997425  0  0  0.115088  0  0.99589  0  0.063155  0  0.114005  0.112342  0  0.998534  0
H  H29  1  0.73316383  0.81263538  0.21511988  1  0  0.095401  0  0.936954  0  0  0.113531  0  0.997466  0  0  0.115086  0  0.99593  0  0.063163  0  0.113995  0.112339  0  0.998576  0
H  H30  1  0.76683654  0.31263594  0.71512024  1  0  0.095415  0  0.936928  0  0  0.113542  0  0.99744  0  0  0.115098  0  0.995904  0  0.063161  0  0.114001  0.112351  0  0.998549  0
H  H31  1  0.26683712  0.18736350  0.78487940  1  0  0.095385  0  0.936946  0  0  0.113521  0  0.997451  0  0  0.115076  0  0.995915  0  0.063149  0  0.113993  0.112329  0  0.998561  0
H  H32  1  0.93215168  0.55928916  0.72304522  1  0  0.422486  0  0.884551  0  0  0.388726  0  0.953657  0  0  0.400126  0  0.936763  0  0.655536  0  0.296404  0.38059  0  0.965705  0
H  H33  1  0.43215120  0.94071117  0.77695494  1  0  0.422455  0  0.884598  0  0  0.388691  0  0.95371  0  0  0.400092  0  0.936814  0  0.655576  0  0.296385  0.380555  0  0.965758  0
H  H34  1  0.06784927  0.44071072  0.27695430  1  0  0.42247  0  0.884568  0  0  0.388707  0  0.95368  0  0  0.400106  0  0.936786  0  0.655574  0  0.296398  0.380571  0  0.965727  0
H  H35  1  0.56784975  0.05928871  0.22304534  1  0  0.422473  0  0.884569  0  0  0.388711  0  0.953677  0  0  0.400111  0  0.936783  0  0.655577  0  0.296398  0.380574  0  0.965726  0
H  H36  1  0.89872246  0.53603902  0.60080369  1  0  0.429218  0  0.87369  0  0  0.399138  0  0.93497  0  0  0.410147  0  0.918927  0  0.642952  0  0.300551  0.391505  0  0.946075  0
H  H37  1  0.39872199  0.96396131  0.89919722  1  0  0.429203  0  0.873713  0  0  0.399121  0  0.934997  0  0  0.41013  0  0.918951  0  0.642947  0  0.300541  0.391487  0  0.946102  0
H  H38  1  0.10127849  0.46396086  0.39919659  1  0  0.429202  0  0.87371  0  0  0.399121  0  0.934993  0  0  0.410131  0  0.918947  0  0.642945  0  0.300544  0.391489  0  0.946096  0
H  H39  1  0.60127791  0.03603958  0.10080405  1  0  0.429205  0  0.873715  0  0  0.399125  0  0.934997  0  0  0.410133  0  0.918953  0  0.642951  0  0.300549  0.391491  0  0.946102  0
H  H40  1  0.54657728  0.79684205  0.87321459  1  0  0.435974  0  0.860014  0  0  0.408921  0  0.916979  0  0  0.418759  0  0.902541  0  0.642586  0  0.298269  0.401956  0  0.927197  0
H  H41  1  0.04657786  0.70315828  0.62678556  1  0  0.435939  0  0.860051  0  0  0.408885  0  0.917025  0  0  0.41872  0  0.902584  0  0.642598  0  0.298249  0.401919  0  0.927243  0
H  H42  1  0.45342156  0.20315784  0.12678493  1  0  0.435963  0  0.860024  0  0  0.408912  0  0.916991  0  0  0.418746  0  0.902551  0  0.642597  0  0.298266  0.401946  0  0.92721  0
H  H43  1  0.95342203  0.29684261  0.37321495  1  0  0.435959  0  0.860033  0  0  0.408902  0  0.917006  0  0  0.41874  0  0.902567  0  0.642593  0  0.298262  0.401937  0  0.927224  0
H  H44  1  0.52491375  0.74183193  0.97035664  1  0  0.418982  0  0.883359  0  0  0.393319  0  0.939374  0  0  0.403396  0  0.924421  0  0.625568  0  0.296  0.386253  0  0.949864  0
H  H45  1  0.02491327  0.75816840  0.52964351  1  0  0.418897  0  0.883468  0  0  0.393229  0  0.939497  0  0  0.403305  0  0.924546  0  0.625568  0  0.295961  0.386163  0  0.949985  0
H  H46  1  0.47508720  0.25816896  0.02964387  1  0  0.418906  0  0.883452  0  0  0.393242  0  0.939474  0  0  0.403317  0  0.924524  0  0.62557  0  0.295972  0.386175  0  0.949963  0
H  H47  1  0.97508662  0.24183149  0.47035601  1  0  0.418915  0  0.883444  0  0  0.393244  0  0.939475  0  0  0.403322  0  0.924521  0  0.625572  0  0.29597  0.386179  0  0.949963  0
H  H48  1  0.41884023  0.42634931  0.76828140  1  0  0.427143  0  0.881629  0  0  0.392193  0  0.95201  0  0  0.403874  0  0.934836  0  0.652986  0  0.296423  0.383924  0  0.964153  0
H  H49  1  0.91883860  0.07365114  0.73171848  1  0  0.427139  0  0.881635  0  0  0.392184  0  0.952026  0  0  0.403865  0  0.934852  0  0.652984  0  0.296421  0.383915  0  0.964167  0
H  H50  1  0.58116177  0.57365159  0.23171836  1  0  0.427149  0  0.881619  0  0  0.392214  0  0.951972  0  0  0.403895  0  0.934798  0  0.652983  0  0.296448  0.383949  0  0.964108  0
H  H51  1  0.08116024  0.92634875  0.26828104  1  0  0.427126  0  0.881655  0  0  0.392171  0  0.952045  0  0  0.403853  0  0.93487  0  0.653096  0  0.296412  0.383902  0  0.964188  0
H  H52  1  0.38999944  0.46596010  0.89370347  1  0  0.423351  0  0.878666  0  0  0.392144  0  0.942669  0  0  0.402923  0  0.926876  0  0.653564  0  0.299759  0.384599  0  0.953724  0
H  H53  1  0.88999781  0.03404035  0.60629641  1  0  0.423353  0  0.878656  0  0  0.392147  0  0.942658  0  0  0.402923  0  0.926867  0  0.653523  0  0.299765  0.384601  0  0.953713  0
H  H54  1  0.61000151  0.53403979  0.10629681  1  0  0.423431  0  0.878559  0  0  0.392205  0  0.942593  0  0  0.402987  0  0.926793  0  0.653559  0  0.299787  0.384658  0  0.95365  0
H  H55  1  0.11000103  0.96596054  0.39370335  1  0  0.423353  0  0.878664  0  0  0.392147  0  0.942665  0  0  0.402924  0  0.926873  0  0.653562  0  0.299757  0.3846  0  0.953722  0
H  H56  1  0.02090038  0.20523264  0.62974240  1  0  0.43857  0  0.859136  0  0  0.411515  0  0.915454  0  0  0.421841  0  0.900493  0  0.650864  0  0.303219  0.404154  0  0.926127  0
H  H57  1  0.52090085  0.29476679  0.87025799  1  0  0.438546  0  0.859172  0  0  0.41149  0  0.915492  0  0  0.421816  0  0.900531  0  0.650867  0  0.303215  0.404129  0  0.926164  0
H  H58  1  0.97909952  0.79476724  0.37025863  1  0  0.438559  0  0.859148  0  0  0.411507  0  0.915462  0  0  0.421832  0  0.900503  0  0.650868  0  0.303216  0.404146  0  0.926135  0
H  H59  1  0.47910010  0.70523309  0.12974153  1  0  0.438562  0  0.859149  0  0  0.41151  0  0.91546  0  0  0.421836  0  0.9005  0  0.650868  0  0.303221  0.40415  0  0.926132  0
H  H60  1  0.14632582  0.18183337  0.55489623  1  0  0.417233  0  0.885631  0  0  0.388946  0  0.945767  0  0  0.398044  0  0.932449  0  0.614033  0  0.307507  0.382575  0  0.955084  0
H  H61  1  0.64632629  0.31816708  0.94510365  1  0  0.417239  0  0.885623  0  0  0.388948  0  0.945763  0  0  0.398047  0  0.932443  0  0.613984  0  0.307509  0.382576  0  0.955081  0
H  H62  1  0.85367302  0.81816652  0.44510404  1  0  0.417239  0  0.885618  0  0  0.388953  0  0.945753  0  0  0.39805  0  0.932436  0  0.614039  0  0.307514  0.382582  0  0.95507  0
H  H63  1  0.35367466  0.68183381  0.05489611  1  0  0.417228  0  0.885641  0  0  0.388942  0  0.945776  0  0  0.398039  0  0.932459  0  0.614037  0  0.307506  0.382571  0  0.955092  0
C  C64  1  0.84826030  0.49396144  0.00066739  1  0  0.240244  0  3.86722  0  0  0.213856  0  4.143954  0  0  0.231954  0  4.153583  0  0.701284  0  0.112982  0.201974  0  4.137176  0
C  C65  1  0.34825877  0.00603700  0.49933200  1  0  0.240268  0  3.867136  0  0  0.213817  0  4.143964  0  0  0.23191  0  4.153591  0  0.700961  0  0.112995  0.201936  0  4.137188  0
C  C66  1  0.15174065  0.50603744  0.99933113  1  0  0.240105  0  3.867315  0  0  0.213758  0  4.144014  0  0  0.231847  0  4.153643  0  0.700916  0  0.112973  0.201878  0  4.137238  0
C  C67  1  0.65174007  0.99396087  0.50066779  1  0  0.240213  0  3.867048  0  0  0.21375  0  4.143927  0  0  0.231843  0  4.153552  0  0.700923  0  0.112954  0.20187  0  4.137149  0
C  C68  1  0.07929873  0.52313571  0.91220071  1  0  -0.047677  0  3.848951  0  0  -0.062801  0  4.127512  0  0  -0.074573  0  4.149857  0  0.575408  0  0.028131  -0.055596  0  4.112617  0
C  C69  1  0.57929815  0.97686260  0.58779896  1  0  -0.047666  0  3.848872  0  0  -0.062772  0  4.127493  0  0  -0.074543  0  4.149838  0  0.575416  0  0.028136  -0.055566  0  4.112598  0
C  C70  1  0.92070222  0.47686317  0.08779781  1  0  -0.04771  0  3.849005  0  0  -0.062832  0  4.127578  0  0  -0.074607  0  4.149917  0  0.575077  0  0.028088  -0.055619  0  4.112685  0
C  C71  1  0.42070069  0.02313526  0.41220083  1  0  -0.047725  0  3.848926  0  0  -0.062795  0  4.12749  0  0  -0.074566  0  4.149834  0  0.575353  0  0.028144  -0.055594  0  4.112597  0
C  C72  1  0.93047147  0.52165342  0.90988253  1  0  0.269881  0  3.840345  0  0  0.246474  0  4.11719  0  0  0.266646  0  4.124065  0  0.730219  0  0.124923  0.233224  0  4.111999  0
C  C73  1  0.43047205  0.97834490  0.59011639  1  0  0.269779  0  3.840444  0  0  0.246409  0  4.117281  0  0  0.266579  0  4.124162  0  0.73021  0  0.124908  0.233159  0  4.11209  0
C  C74  1  0.06952737  0.47834546  0.09011600  1  0  0.269814  0  3.840426  0  0  0.246394  0  4.117269  0  0  0.26657  0  4.124141  0  0.73018  0  0.124898  0.233145  0  4.112076  0
C  C75  1  0.56952679  0.02165297  0.40988265  1  0  0.269837  0  3.840392  0  0  0.24644  0  4.11726  0  0  0.266613  0  4.124138  0  0.730232  0  0.124913  0.233191  0  4.112069  0
C  C76  1  0.19226701  0.67714509  0.83899491  1  0  -0.073863  0  3.596244  0  0  -0.168269  0  3.861543  0  0  -0.162929  0  3.864654  0  0.347497  0  -0.134746  -0.171466  0  3.85917  0
C  C77  1  0.69226854  0.82285524  0.66100524  1  0  -0.073894  0  3.596211  0  0  -0.168282  0  3.861499  0  0  -0.162936  0  3.864608  0  0.347646  0  -0.134677  -0.171478  0  3.859127  0
C  C78  1  0.80773289  0.32285479  0.16100461  1  0  -0.073881  0  3.596191  0  0  -0.168265  0  3.861485  0  0  -0.162925  0  3.864592  0  0.347649  0  -0.134724  -0.171454  0  3.859116  0
C  C79  1  0.30773241  0.17714364  0.33899555  1  0  -0.073928  0  3.596216  0  0  -0.168298  0  3.861509  0  0  -0.162952  0  3.864618  0  0.347474  0  -0.134718  -0.171498  0  3.859138  0
C  C80  1  0.34865827  0.49096561  0.49376960  1  0  0.260586  0  3.857362  0  0  0.236724  0  4.132803  0  0  0.256474  0  4.140584  0  0.754106  0  0.122063  0.223716  0  4.127296  0
C  C81  1  0.84865769  0.00903383  0.00623004  1  0  0.260528  0  3.857305  0  0  0.236647  0  4.132796  0  0  0.256393  0  4.14059  0  0.753987  0  0.122006  0.223635  0  4.127295  0
C  C82  1  0.65134268  0.50903427  0.50622992  1  0  0.26067  0  3.85727  0  0  0.236813  0  4.132754  0  0  0.256566  0  4.14053  0  0.753983  0  0.12207  0.223796  0  4.127257  0
C  C83  1  0.15134220  0.99096606  0.99377024  1  0  0.260581  0  3.857383  0  0  0.236682  0  4.132855  0  0  0.256429  0  4.140641  0  0.754105  0  0.122028  0.223668  0  4.127355  0
C  C84  1  0.42158085  0.52344104  0.41194486  1  0  -0.048752  0  3.839328  0  0  -0.061251  0  4.114731  0  0  -0.073608  0  4.137214  0  0.526501  0  0.028737  -0.053747  0  4.099815  0
C  C85  1  0.92158132  0.97656030  0.08805554  1  0  -0.048756  0  3.839375  0  0  -0.061279  0  4.114794  0  0  -0.073642  0  4.137283  0  0.526478  0  0.028697  -0.053773  0  4.09988  0
C  C86  1  0.57841799  0.47655885  0.58805542  1  0  -0.048853  0  3.839324  0  0  -0.061406  0  4.114821  0  0  -0.073769  0  4.137303  0  0.526497  0  0.028693  -0.053899  0  4.099908  0
C  C87  1  0.07841857  0.02344059  0.91194498  1  0  -0.048767  0  3.839346  0  0  -0.061252  0  4.114763  0  0  -0.073615  0  4.137248  0  0.526502  0  0.028727  -0.053746  0  4.099848  0
C  C88  1  0.43110450  0.46483251  0.58523463  1  0  0.251657  0  3.859615  0  0  0.225428  0  4.139274  0  0  0.244132  0  4.148443  0  0.721909  0  0.11544  0.213209  0  4.132555  0
C  C89  1  0.93110392  0.03516794  0.91476525  1  0  0.251552  0  3.859662  0  0  0.2253  0  4.139326  0  0  0.244006  0  4.148497  0  0.722107  0  0.11541  0.213082  0  4.132605  0
C  C90  1  0.56889645  0.53516839  0.41476513  1  0  0.251538  0  3.859691  0  0  0.225274  0  4.139374  0  0  0.243976  0  4.148544  0  0.722117  0  0.115413  0.213058  0  4.132655  0
C  C91  1  0.06889492  0.96483396  0.08523475  1  0  0.251579  0  3.859608  0  0  0.225391  0  4.13919  0  0  0.244097  0  4.148361  0  0.72191  0  0.115499  0.213174  0  4.13247  0
C  C92  1  0.29987211  0.68240920  0.35114577  1  0  -0.075269  0  3.588287  0  0  -0.167942  0  3.852758  0  0  -0.162938  0  3.855636  0  0.332201  0  -0.137414  -0.170947  0  3.850557  0
C  C93  1  0.79987153  0.81759113  0.14885438  1  0  -0.075242  0  3.588365  0  0  -0.167931  0  3.852845  0  0  -0.16293  0  3.855722  0  0.332279  0  -0.137398  -0.170935  0  3.850645  0
C  C94  1  0.70012779  0.31759069  0.64885450  1  0  -0.075243  0  3.588353  0  0  -0.167901  0  3.852804  0  0  -0.162901  0  3.855681  0  0.332276  0  -0.1374  -0.170905  0  3.850602  0
C  C95  1  0.20012942  0.18240774  0.85114490  1  0  -0.075195  0  3.58831  0  0  -0.167878  0  3.852806  0  0  -0.16288  0  3.855681  0  0.332279  0  -0.137379  -0.170883  0  3.850605  0
O  O96  1  0.71400164  0.48885251  0.99015015  1  0  -0.570122  0  2.063287  0  0  -0.507777  0  2.277813  0  0  -0.528839  0  2.272289  0  -1.147065  0  -0.300776  -0.493756  0  2.281399  0
O  O97  1  0.21400011  0.01114693  0.50984874  1  0  -0.57007  0  2.063185  0  0  -0.507743  0  2.277773  0  0  -0.528791  0  2.272243  0  -1.147097  0  -0.300806  -0.49372  0  2.28135  0
O  O98  1  0.28599826  0.51114737  0.00984862  1  0  -0.569988  0  2.063275  0  0  -0.507683  0  2.277803  0  0  -0.528732  0  2.272275  0  -1.147071  0  -0.30077  -0.493664  0  2.281377  0
O  O99  1  0.78599768  0.98885296  0.49015078  1  0  -0.570033  0  2.063193  0  0  -0.507683  0  2.277773  0  0  -0.528731  0  2.272244  0  -1.147063  0  -0.300761  -0.493664  0  2.281353  0
O  O100  1  0.15381930  0.53883129  0.82650984  1  0  -0.273609  0  2.367539  0  0  -0.199072  0  2.608752  0  0  -0.21064  0  2.612397  0  -1.082461  0  -0.207733  -0.190935  0  2.605934  0
O  O101  1  0.65381872  0.96116904  0.67349031  1  0  -0.273612  0  2.367536  0  0  -0.199081  0  2.608762  0  0  -0.210653  0  2.61241  0  -1.082502  0  -0.207751  -0.190949  0  2.605946  0
O  O102  1  0.84618165  0.46116859  0.17348892  1  0  -0.273609  0  2.367625  0  0  -0.19905  0  2.608809  0  0  -0.210611  0  2.612448  0  -1.082489  0  -0.20773  -0.190932  0  2.606001  0
O  O103  1  0.34618012  0.03882984  0.32650972  1  0  -0.273633  0  2.367628  0  0  -0.199107  0  2.60882  0  0  -0.21068  0  2.612472  0  -1.082467  0  -0.207757  -0.190964  0  2.606  0
O  O104  1  0.85686795  0.54164977  0.83619734  1  0  -0.543811  0  2.062062  0  0  -0.495229  0  2.284897  0  0  -0.514402  0  2.27826  0  -1.141494  0  -0.307852  -0.481758  0  2.288874  0
O  O105  1  0.35686748  0.95835056  0.66380282  1  0  -0.54379  0  2.062094  0  0  -0.495209  0  2.284909  0  0  -0.514382  0  2.278275  0  -1.141486  0  -0.30786  -0.481737  0  2.288886  0
O  O106  1  0.14313300  0.45835112  0.16380166  1  0  -0.543761  0  2.062104  0  0  -0.495171  0  2.284938  0  0  -0.514345  0  2.2783  0  -1.141474  0  -0.307835  -0.481701  0  2.288914  0
O  O107  1  0.64313136  0.04164831  0.33619797  1  0  -0.543781  0  2.06213  0  0  -0.495187  0  2.284958  0  0  -0.51436  0  2.278322  0  -1.141481  0  -0.307855  -0.481715  0  2.288934  0
O  O108  1  0.21598073  0.47916470  0.49849616  1  0  -0.543538  0  2.058806  0  0  -0.490428  0  2.279517  0  0  -0.510229  0  2.273662  0  -1.125167  0  -0.309721  -0.47727  0  2.283206  0
O  O109  1  0.71598015  0.02083474  0.00150348  1  0  -0.543477  0  2.058723  0  0  -0.490351  0  2.279437  0  0  -0.510149  0  2.273583  0  -1.125174  0  -0.309673  -0.477197  0  2.283135  0
O  O110  1  0.78401916  0.52083418  0.50150387  1  0  -0.543553  0  2.058811  0  0  -0.490434  0  2.279524  0  0  -0.510233  0  2.273664  0  -1.125177  0  -0.30971  -0.477283  0  2.283235  0
O  O111  1  0.28401869  0.97916615  0.99849704  1  0  -0.543505  0  2.058789  0  0  -0.490391  0  2.279518  0  0  -0.510189  0  2.273661  0  -1.125168  0  -0.309706  -0.477239  0  2.283222  0
O  O112  1  0.34603466  0.54382736  0.32808249  1  0  -0.289112  0  2.369058  0  0  -0.214631  0  2.608946  0  0  -0.225571  0  2.6119  0  -1.085492  0  -0.22677  -0.206949  0  2.606559  0
O  O113  1  0.84603408  0.95617398  0.17191790  1  0  -0.289073  0  2.369042  0  0  -0.21462  0  2.608956  0  0  -0.225547  0  2.611907  0  -1.085498  0  -0.226749  -0.206936  0  2.606568  0
O  O114  1  0.65396524  0.45617353  0.67191726  1  0  -0.289086  0  2.369064  0  0  -0.214614  0  2.608983  0  0  -0.225543  0  2.611931  0  -1.08549  0  -0.226768  -0.206931  0  2.606593  0
O  O115  1  0.15396582  0.04382590  0.82808237  1  0  -0.289102  0  2.369049  0  0  -0.214661  0  2.608967  0  0  -0.225585  0  2.611913  0  -1.0855  0  -0.226766  -0.206977  0  2.606577  0
O  O116  1  0.35592091  0.43330430  0.65396777  1  0  -0.569928  0  2.064271  0  0  -0.521129  0  2.290901  0  0  -0.541451  0  2.284817  0  -1.153713  0  -0.326982  -0.507036  0  2.294478  0
O  O117  1  0.85592033  0.06669615  0.84603211  1  0  -0.569881  0  2.064302  0  0  -0.521064  0  2.290926  0  0  -0.541385  0  2.284842  0  -1.153726  0  -0.326965  -0.50697  0  2.2945  0
O  O118  1  0.64407898  0.56669760  0.34603299  1  0  -0.569877  0  2.064352  0  0  -0.521068  0  2.29098  0  0  -0.541387  0  2.284897  0  -1.153729  0  -0.326968  -0.506976  0  2.294552  0
O  O119  1  0.14407956  0.93330474  0.15396841  1  0  -0.569933  0  2.064231  0  0  -0.521141  0  2.290835  0  0  -0.541461  0  2.28475  0  -1.153704  0  -0.327035  -0.507046  0  2.294411  0
O  O120  1  0.97644534  0.55798321  0.65440266  1  0  -0.913683  0  1.849029  0  0  -0.859324  0  2.023677  0  0  -0.877974  0  1.990384  0  -1.318376  0  -0.637858  -0.846365  0  2.046656  0
O  O121  1  0.47644381  0.94201712  0.84559674  1  0  -0.913646  0  1.849071  0  0  -0.859284  0  2.023721  0  0  -0.877936  0  1.990431  0  -1.318419  0  -0.637835  -0.846326  0  2.0467  0
O  O122  1  0.02355667  0.44201667  0.34559686  1  0  -0.913652  0  1.849036  0  0  -0.859293  0  2.023689  0  0  -0.877948  0  1.990402  0  -1.318413  0  -0.637843  -0.846336  0  2.046665  0
O  O123  1  0.52355503  0.05798276  0.15440278  1  0  -0.91366  0  1.84904  0  0  -0.859307  0  2.023689  0  0  -0.877957  0  1.990399  0  -1.318426  0  -0.637855  -0.846349  0  2.046669  0
O  O124  1  0.57663343  0.72421874  0.90257670  1  0  -0.921718  0  1.754144  0  0  -0.882358  0  1.918735  0  0  -0.897968  0  1.887222  0  -1.308058  0  -0.670874  -0.871298  0  1.940649  0
O  O125  1  0.07663295  0.77578260  0.59742369  1  0  -0.921591  0  1.754255  0  0  -0.882229  0  1.918829  0  0  -0.89783  0  1.887332  0  -1.308073  0  -0.67082  -0.871176  0  1.940756  0
O  O126  1  0.42336752  0.27578215  0.09742381  1  0  -0.921627  0  1.754245  0  0  -0.882265  0  1.918818  0  0  -0.897867  0  1.887319  0  -1.308067  0  -0.670841  -0.871202  0  1.940727  0
O  O127  1  0.92336694  0.22421829  0.40257607  1  0  -0.921637  0  1.754222  0  0  -0.882269  0  1.918808  0  0  -0.897879  0  1.887296  0  -1.308073  0  -0.670841  -0.871213  0  1.940728  0
O  O128  1  0.46181734  0.42766231  0.83798727  1  0  -0.905549  0  1.880689  0  0  -0.851645  0  2.059895  0  0  -0.870347  0  2.026021  0  -1.321319  0  -0.617472  -0.838461  0  2.083287  0
O  O129  1  0.96181676  0.07233814  0.66201261  1  0  -0.905544  0  1.880684  0  0  -0.851641  0  2.059883  0  0  -0.870343  0  2.026012  0  -1.32127  0  -0.617469  -0.838457  0  2.083275  0
O  O130  1  0.53818361  0.57233757  0.16201225  1  0  -0.905625  0  1.88061  0  0  -0.851728  0  2.059836  0  0  -0.87043  0  2.025957  0  -1.321308  0  -0.617523  -0.838546  0  2.083227  0
O  O131  1  0.03818313  0.92766175  0.33798690  1  0  -0.905538  0  1.880706  0  0  -0.851633  0  2.059912  0  0  -0.870334  0  2.02604  0  -1.321428  0  -0.617464  -0.838448  0  2.083306  0
O  O132  1  0.07818140  0.25374425  0.58867493  1  0  -0.897927  0  1.825483  0  0  -0.850082  0  1.994241  0  0  -0.867931  0  1.962801  0  -1.285327  0  -0.632785  -0.837623  0  2.01618  0
O  O133  1  0.57818188  0.24625519  0.91132395  1  0  -0.897894  0  1.825489  0  0  -0.850049  0  1.994252  0  0  -0.867897  0  1.962812  0  -1.285284  0  -0.632789  -0.83759  0  2.016192  0
O  O134  1  0.92181849  0.74625564  0.41132459  1  0  -0.897918  0  1.825479  0  0  -0.850078  0  1.994235  0  0  -0.867925  0  1.962799  0  -1.285337  0  -0.63279  -0.837618  0  2.016174  0
O  O135  1  0.42181802  0.75374469  0.08867557  1  0  -0.897896  0  1.825484  0  0  -0.850058  0  1.994235  0  0  -0.867907  0  1.962796  0  -1.285335  0  -0.632784  -0.837599  0  2.016173  0
