# generated using pymatgen
data_CoH7C5N5O6
_symmetry_space_group_name_H-M   'P 1'
_cell_length_a   8.17832589
_cell_length_b   9.96348627
_cell_length_c   10.97102570
_cell_angle_alpha   89.99355051
_cell_angle_beta   106.01204399
_cell_angle_gamma   89.99368569
_symmetry_Int_Tables_number   1
_chemical_formula_structural   CoH7C5N5O6
_chemical_formula_sum   'Co4 H28 C20 N20 O24'
_cell_volume   859.28733968
_cell_formula_units_Z   4
loop_
 _symmetry_equiv_pos_site_id
 _symmetry_equiv_pos_as_xyz
  1  'x, y, z'
loop_
 _atom_site_type_symbol
 _atom_site_label
 _atom_site_symmetry_multiplicity
 _atom_site_fract_x
 _atom_site_fract_y
 _atom_site_fract_z
 _atom_site_occupancy
 _atom_site_hle17_ddec_charge
 _atom_site_hle17_ddec_spin_density
 _atom_site_hle17_ddec_sum_bond_order
 _atom_site_hle17_magmom
 _atom_site_hse06_10hf_ddec_charge
 _atom_site_hse06_10hf_ddec_spin_density
 _atom_site_hse06_10hf_ddec_sum_bond_order
 _atom_site_hse06_10hf_magmom
 _atom_site_hse06_ddec_charge
 _atom_site_hse06_ddec_spin_density
 _atom_site_hse06_ddec_sum_bond_order
 _atom_site_hse06_magmom
 _atom_site_pbe_cm5_charge
 _atom_site_pbe_ddec_charge
 _atom_site_pbe_ddec_spin_density
 _atom_site_pbe_ddec_sum_bond_order
 _atom_site_pbe_magmom
Co  Co0  1  0.23512688  0.13488221  0.25601404  1  1.036358  2.959858  1.890985  2.601  0.999558  2.901252  2.284315  2.662  1.069303  2.949556  2.221849  2.732  0.661365  0.935544  2.851283  2.343628  2.593
Co  Co1  1  0.76486132  0.63491705  0.24398291  1  1.036518  -2.854954  1.891082  -2.601  0.999789  -2.851882  2.28415  -2.662  1.069476  -2.893135  2.221733  -2.732  0.661518  0.935997  -2.809953  2.343282  -2.594
Co  Co2  1  0.76487977  0.86518406  0.74392381  1  1.036804  -2.857849  1.891139  -2.604  0.999933  -2.854391  2.284156  -2.665  1.069349  -2.89424  2.221755  -2.734  0.661753  0.936227  -2.814561  2.343353  -2.598
Co  Co3  1  0.23517742  0.36517932  0.75611023  1  1.036893  -2.857969  1.892659  -2.604  0.999829  -2.85422  2.286033  -2.665  1.069256  -2.89413  2.223568  -2.733  0.661829  0.93621  -2.814456  2.345218  -2.598
H  H4  1  0.22197937  0.13067198  0.50690640  1  0.396863  0.000305  0.90159  0.001  0.355372  0.00048  1.001042  0.001  0.366332  0.000306  0.985058  0.001  0.296108  0.347571  0.00063  1.012248  0.002
H  H5  1  0.77810289  0.63066179  0.99312214  1  0.396833  -0.000293  0.901561  -0.001  0.355403  -0.000541  1.001036  -0.001  0.36635  -0.000321  0.985075  -0.001  0.29605  0.34763  -0.000748  1.012203  -0.002
H  H6  1  0.77813144  0.86933707  0.49307601  1  0.396666  -0.000162  0.901953  -0.001  0.355287  -0.000365  1.0012  -0.001  0.366239  -0.000201  0.985231  -0.001  0.295927  0.347501  -0.000512  1.012392  -0.002
H  H7  1  0.22190448  0.36927400  0.00690065  1  0.396665  -0.000393  0.90147  -0.001  0.355184  -0.000625  1.00121  -0.001  0.366132  -0.000402  0.985248  -0.001  0.295995  0.347409  -0.000839  1.012377  -0.002
H  H8  1  0.26252188  0.27784743  0.47654328  1  0.425265  7.7e-05  0.862488  0.0  0.399078  0.000299  0.927802  0.001  0.410213  0.000233  0.911878  0.0  0.29884  0.390955  0.00036  0.939223  0.001
H  H9  1  0.73752745  0.77784775  0.02343092  1  0.425273  3e-05  0.862464  0.0  0.398963  -0.000159  0.927976  -0.001  0.4101  2.2e-05  0.912058  0.0  0.298759  0.390869  -0.000354  0.93936  -0.001
H  H10  1  0.73757823  0.72218170  0.52351529  1  0.425456  2.7e-05  0.862243  0.0  0.398985  -0.000156  0.928032  -0.001  0.410124  2.4e-05  0.912106  0.0  0.298783  0.390879  -0.000345  0.939436  -0.001
H  H11  1  0.26234437  0.22207099  0.97647695  1  0.425225  -6.4e-05  0.862281  0.0  0.398787  -0.000299  0.92824  -0.001  0.409934  -0.000233  0.912306  0.0  0.298565  0.390658  -0.000361  0.939679  -0.001
H  H12  1  0.45954805  0.33755399  0.22687698  1  0.429287  -2.1e-05  0.856834  0.0  0.401189  7.3e-05  0.925674  0.001  0.411989  4.1e-05  0.910121  0.0  0.298738  0.392788  6.3e-05  0.937735  0.001
H  H13  1  0.54038546  0.83755722  0.27311706  1  0.429225  5e-06  0.856934  0.0  0.401075  -0.000121  0.925893  -0.001  0.411876  -7.2e-05  0.910336  0.0  0.298614  0.392672  -0.000133  0.937958  -0.001
H  H14  1  0.54029471  0.66247917  0.77299382  1  0.429374  -0.000275  0.856686  0.0  0.401149  -0.000469  0.925736  -0.001  0.41195  -0.000248  0.910183  0.0  0.298685  0.392756  -0.0007  0.937786  -0.001
H  H15  1  0.45962920  0.16250101  0.72695828  1  0.42902  -0.000238  0.857188  0.0  0.400855  -0.00041  0.926144  -0.001  0.411659  -0.000207  0.910596  0.0  0.298465  0.39247  -0.000621  0.938178  -0.001
H  H16  1  0.39555307  0.93062311  0.39360547  1  0.411975  -0.000367  0.900602  -0.001  0.377918  -0.000162  0.971157  0.0  0.38958  -0.000206  0.954531  0.0  0.292181  0.369354  -0.000114  0.98337  0.0
H  H17  1  0.60448770  0.43066290  0.10639604  1  0.412004  0.000395  0.900583  0.001  0.377943  0.000166  0.971128  0.0  0.3896  0.000224  0.954505  0.0  0.292207  0.36938  9.8e-05  0.983338  0.0
H  H18  1  0.60425928  0.06933378  0.60624166  1  0.4119  0.000376  0.901062  0.001  0.377705  0.000125  0.971565  0.0  0.389354  0.000181  0.954964  0.0  0.292146  0.369141  6.7e-05  0.98377  0.0
H  H19  1  0.39561834  0.56927589  0.89373122  1  0.411827  0.000371  0.900813  0.001  0.377682  0.000136  0.971531  0.0  0.389329  0.000202  0.954935  0.0  0.292118  0.369137  6.6e-05  0.983712  0.0
H  H20  1  0.08892707  0.68143647  0.15799457  1  0.281265  0.000313  0.969864  0.0  0.2448  0.00027  1.060918  0.0  0.254148  0.000227  1.053594  0.0  0.309941  0.237751  0.000351  1.066686  0.0
H  H21  1  0.91107650  0.18143062  0.34201270  1  0.281274  -0.000297  0.969963  0.0  0.244759  -0.000261  1.061107  0.0  0.254095  -0.000222  1.053814  0.0  0.30994  0.237718  -0.000342  1.066852  0.0
H  H22  1  0.91110743  0.31857961  0.84196916  1  0.281144  0.000171  0.970204  0.0  0.244882  4.4e-05  1.061095  0.0  0.25421  6.5e-05  1.053811  0.0  0.309997  0.237835  -3.9e-05  1.066849  0.0
H  H23  1  0.08892544  0.81858646  0.65805999  1  0.281  0.000169  0.970425  0.0  0.244805  4.4e-05  1.061205  0.0  0.25413  6.4e-05  1.053927  0.0  0.309945  0.237755  -3.8e-05  1.066976  0.0
H  H24  1  0.51341410  0.18808651  0.19932181  1  0.412568  5.6e-05  0.894213  0.0  0.381988  0.000358  0.961699  0.001  0.393843  0.000203  0.944751  0.0  0.291842  0.373306  0.000496  0.97402  0.001
H  H25  1  0.48655283  0.68807813  0.30064340  1  0.412575  -9.8e-05  0.894284  0.0  0.381977  -0.0004  0.961702  -0.001  0.39383  -0.000223  0.944758  0.0  0.291819  0.373295  -0.000572  0.974025  -0.001
H  H26  1  0.48642031  0.81193561  0.80046429  1  0.412688  -4e-05  0.894305  0.0  0.382292  -0.000374  0.961215  -0.001  0.394127  -0.000206  0.944297  0.0  0.29207  0.373644  -0.000532  0.973488  -0.001
H  H27  1  0.51355540  0.31196804  0.69953536  1  0.412753  -6.8e-05  0.894178  0.0  0.382276  -0.000363  0.961286  -0.001  0.394125  -0.000195  0.944349  0.0  0.291982  0.37361  -0.000531  0.973588  -0.001
H  H28  1  0.53198695  0.03767855  0.37699089  1  0.427806  -5.8e-05  0.84913  0.0  0.398186  0.000225  0.923729  0.0  0.408279  0.000139  0.912775  0.0  0.306006  0.39086  0.000302  0.931432  0.0
H  H29  1  0.46803485  0.53771989  0.12300293  1  0.427811  7.3e-05  0.849116  0.0  0.39815  -0.00021  0.923781  0.0  0.408247  -0.000122  0.912819  0.0  0.305943  0.390831  -0.000293  0.931489  0.0
H  H30  1  0.46789755  0.96225424  0.62292691  1  0.42807  3.9e-05  0.84878  0.0  0.398279  -0.000263  0.923661  0.0  0.408368  -0.000164  0.912704  0.0  0.305954  0.390946  -0.000339  0.931396  0.0
H  H31  1  0.53200895  0.46217976  0.87709766  1  0.428075  3.7e-05  0.848983  0.0  0.398314  -0.000262  0.923848  0.0  0.408406  -0.000156  0.912887  0.0  0.305959  0.390977  -0.000345  0.931592  0.0
C  C32  1  0.23589615  0.96116474  0.03694204  1  0.240601  -0.002524  3.809848  -0.005  0.213655  0.001352  4.103686  0.001  0.228153  0.000846  4.116201  0.0  0.113685  0.203644  0.001809  4.093534  0.001
C  C33  1  0.76406884  0.46113806  0.46305601  1  0.240525  0.002731  3.809703  0.005  0.213599  -0.001244  4.103521  -0.001  0.228087  -0.000695  4.11602  0.0  0.113769  0.203586  -0.001801  4.09339  -0.001
C  C34  1  0.76410928  0.03885536  0.96298736  1  0.239938  0.002279  3.810263  0.004  0.21299  -0.001568  4.103984  -0.001  0.227473  -0.00097  4.11648  -0.001  0.113161  0.202903  -0.002154  4.093938  -0.001
C  C35  1  0.23592264  0.53885894  0.53705733  1  0.2399  0.002276  3.809942  0.004  0.212908  -0.001481  4.103822  -0.001  0.22738  -0.000861  4.116333  -0.001  0.113107  0.202827  -0.002115  4.093734  -0.001
C  C36  1  0.19501480  0.83368022  0.08326575  1  0.10197  0.003841  3.717419  0.005  0.075128  0.001685  3.991892  0.003  0.079848  0.001122  4.009242  0.002  0.117433  0.07202  0.002565  3.979787  0.004
C  C37  1  0.80496407  0.33367868  0.41671994  1  0.102058  -0.003654  3.71754  -0.005  0.075287  -0.00157  3.99194  -0.003  0.080015  -0.000972  4.009283  -0.002  0.117452  0.072178  -0.00248  3.979839  -0.004
C  C38  1  0.80508203  0.16633787  0.91671010  1  0.101626  -0.002666  3.717664  -0.004  0.075138  -0.001557  3.99176  -0.002  0.079882  -0.001068  4.009069  -0.001  0.117251  0.071982  -0.00205  3.97976  -0.003
C  C39  1  0.19492603  0.66633439  0.58331297  1  0.101609  -0.002393  3.717972  -0.003  0.075095  -0.0013  3.992152  -0.002  0.079842  -0.000848  4.009453  -0.001  0.117192  0.071935  -0.001786  3.980157  -0.002
C  C40  1  0.28267653  0.75952023  0.00655048  1  0.256333  0.002067  3.821328  0.002  0.225727  0.002092  4.108766  0.002  0.241423  0.001541  4.117213  0.002  0.119985  0.21532  0.002661  4.102618  0.003
C  C41  1  0.71729981  0.25950304  0.49342583  1  0.256555  -0.001946  3.821255  -0.002  0.225837  -0.002017  4.108781  -0.002  0.24152  -0.001452  4.117227  -0.002  0.120068  0.215394  -0.002627  4.102618  -0.003
C  C42  1  0.71746971  0.24049082  0.99346851  1  0.256452  -0.002388  3.821459  -0.003  0.225771  -0.002125  4.10878  -0.002  0.241468  -0.001461  4.11719  -0.002  0.120084  0.215366  -0.002986  4.102623  -0.003
C  C43  1  0.28252345  0.74047391  0.50650561  1  0.256679  -0.002406  3.821563  -0.003  0.225932  -0.002083  4.108942  -0.002  0.241641  -0.001405  4.117345  -0.002  0.12033  0.215546  -0.002965  4.102785  -0.003
C  C44  1  0.32133154  0.88983317  0.95092852  1  0.224231  0.002349  3.787744  0.003  0.197621  0.001657  4.077125  0.002  0.213921  0.001086  4.082998  0.002  0.123112  0.186427  0.002232  4.073174  0.003
C  C45  1  0.67864484  0.38978205  0.54906517  1  0.224314  -0.002158  3.788077  -0.003  0.197694  -0.001616  4.077493  -0.002  0.214001  -0.001029  4.083358  -0.002  0.12299  0.186506  -0.002209  4.073536  -0.003
C  C46  1  0.67874754  0.11018793  0.04903542  1  0.223951  -0.001925  3.788501  -0.003  0.197631  -0.00164  4.077458  -0.002  0.213958  -0.001092  4.083292  -0.002  0.122726  0.186414  -0.002132  4.073555  -0.003
C  C47  1  0.32123496  0.61014271  0.45098473  1  0.223557  -0.001787  3.789461  -0.003  0.197304  -0.001629  4.078323  -0.002  0.213627  -0.001073  4.084163  -0.002  0.122642  0.18609  -0.002117  4.074397  -0.003
C  C48  1  0.03002701  0.85986590  0.23461052  1  0.496676  0.001409  3.783587  0.002  0.456089  0.000922  4.065606  0.001  0.478504  0.000761  4.076881  0.001  0.337665  0.439555  0.000898  4.057982  0.001
C  C49  1  0.96997867  0.35987125  0.26539268  1  0.49668  -0.001315  3.783655  -0.002  0.456093  -0.000945  4.065686  -0.001  0.478527  -0.000746  4.076932  -0.001  0.337616  0.439561  -0.000982  4.058057  -0.001
C  C50  1  0.97007000  0.14016724  0.76533984  1  0.496051  0.000341  3.783945  0.0  0.45577  -0.003401  4.06585  -0.006  0.478117  -0.002942  4.07718  -0.005  0.337383  0.439082  -0.003149  4.058406  -0.005
C  C51  1  0.02997744  0.64014282  0.73467590  1  0.496163  0.000277  3.783534  0.0  0.455997  -0.003497  4.065245  -0.006  0.478352  -0.003  4.076552  -0.005  0.337425  0.439316  -0.003284  4.057798  -0.005
N  N52  1  0.05501884  0.99041254  0.26573665  1  -0.398432  0.030754  3.162017  0.048  -0.373903  0.023133  3.479726  0.032  -0.39853  0.019478  3.490327  0.027  -0.246939  -0.355159  0.026397  3.473404  0.037
N  N53  1  0.94499153  0.49042599  0.23427065  1  -0.398505  -0.029679  3.161898  -0.048  -0.373968  -0.022935  3.479544  -0.033  -0.398585  -0.01922  3.490159  -0.027  -0.246977  -0.355283  -0.026352  3.473219  -0.038
N  N54  1  0.94515174  0.00960253  0.73426009  1  -0.398826  -0.032683  3.163439  -0.053  -0.374205  -0.024415  3.481164  -0.034  -0.398648  -0.020264  3.491705  -0.028  -0.247179  -0.355623  -0.028059  3.474964  -0.04
N  N55  1  0.05491038  0.50956199  0.76571004  1  -0.398969  -0.032806  3.163174  -0.053  -0.374234  -0.02459  3.480715  -0.035  -0.398655  -0.020386  3.491204  -0.028  -0.247137  -0.35571  -0.028314  3.474581  -0.04
N  N56  1  0.95368086  0.01504617  0.34211315  1  -0.05308  -0.006577  3.095475  -0.011  -0.034079  -0.003443  3.394797  -0.005  -0.033857  -0.002954  3.406283  -0.005  -0.079748  -0.034489  -0.004138  3.387493  -0.007
N  N57  1  0.04633495  0.51505587  0.15788902  1  -0.052947  0.006844  3.095239  0.011  -0.034028  0.003444  3.394589  0.005  -0.033814  0.002985  3.406067  0.005  -0.079712  -0.03442  0.004086  3.387292  0.006
N  N58  1  0.04646910  0.98501005  0.65791847  1  -0.052302  -0.00058  3.095011  -0.001  -0.033775  -0.001258  3.394775  -0.002  -0.033597  -0.000729  3.406291  -0.001  -0.07961  -0.033874  -0.001927  3.387226  -0.003
N  N59  1  0.95361289  0.48491405  0.84208122  1  -0.052324  -0.000566  3.095277  -0.001  -0.033796  -0.001273  3.394958  -0.002  -0.033636  -0.000714  3.40646  -0.001  -0.079779  -0.033888  -0.001957  3.387419  -0.003
N  N60  1  0.87301559  0.90678393  0.35717676  1  -0.042792  0.005559  3.020507  0.009  -0.024091  0.00244  3.31841  0.004  -0.02063  0.002053  3.326057  0.003  -0.072217  -0.027324  0.00296  3.313909  0.005
N  N61  1  0.12699021  0.40677983  0.14282169  1  -0.042974  -0.00626  3.02048  -0.01  -0.024186  -0.003286  3.318362  -0.005  -0.020714  -0.002551  3.326017  -0.004  -0.072271  -0.027439  -0.004236  3.313845  -0.007
N  N62  1  0.12711918  0.09330140  0.64284166  1  -0.042881  0.002466  3.019837  0.004  -0.024164  -0.000329  3.317762  0.0  -0.020783  -0.000176  3.325412  0.0  -0.071904  -0.027183  -0.00036  3.31307  0.0
N  N63  1  0.87297007  0.59320314  0.85719489  1  -0.042578  0.001682  3.020487  0.003  -0.023866  -0.00118  3.318421  -0.002  -0.020463  -0.000704  3.326061  -0.001  -0.071912  -0.026916  -0.00163  3.313739  -0.002
N  N64  1  0.91670647  0.80575322  0.28983653  1  -0.393265  -0.031749  3.151163  -0.055  -0.370608  -0.02375  3.470872  -0.037  -0.395491  -0.019761  3.479781  -0.03  -0.241717  -0.351333  -0.027162  3.465535  -0.042
N  N65  1  0.08329666  0.30574673  0.21016528  1  -0.393129  0.033099  3.151136  0.055  -0.370442  0.02413  3.470805  0.037  -0.395354  0.020156  3.47974  0.03  -0.241679  -0.351119  0.027487  3.465422  0.042
N  N66  1  0.08338164  0.19431506  0.71010924  1  -0.393373  -0.036839  3.15274  -0.063  -0.370443  -0.026747  3.471884  -0.041  -0.395066  -0.02193  3.480624  -0.033  -0.241894  -0.351297  -0.030707  3.466732  -0.047
N  N67  1  0.91666683  0.69424125  0.78994222  1  -0.393472  -0.03688  3.152699  -0.063  -0.370673  -0.026807  3.471932  -0.041  -0.395309  -0.021967  3.48066  -0.033  -0.241796  -0.351513  -0.030809  3.466787  -0.047
N  N68  1  0.10911633  0.78637951  0.16186973  1  -0.355003  -0.000252  3.427144  -0.001  -0.296151  0.000295  3.671245  0.0  -0.316529  0.000305  3.680021  0.0  -0.371062  -0.281501  9e-05  3.665481  0.0
N  N69  1  0.89088408  0.28638198  0.33813165  1  -0.355202  0.000255  3.427603  0.001  -0.29636  -0.000254  3.671701  0.0  -0.316734  -0.00025  3.680474  0.0  -0.37109  -0.281718  -7.5e-05  3.66593  0.0
N  N70  1  0.89093870  0.21362653  0.83807095  1  -0.354856  -0.001736  3.427516  -0.004  -0.296367  -0.00096  3.67172  -0.002  -0.316728  -0.000537  3.68052  -0.001  -0.371088  -0.281758  -0.001584  3.666063  -0.003
N  N71  1  0.10908096  0.71363410  0.66193333  1  -0.354687  -0.001748  3.42828  -0.004  -0.296251  -0.000919  3.672305  -0.002  -0.316603  -0.000483  3.6811  -0.001  -0.370969  -0.281637  -0.001594  3.666662  -0.003
O  O72  1  0.21215355  0.08301690  0.06044972  1  -0.519957  0.029669  2.187479  0.048  -0.478935  0.023192  2.447741  0.034  -0.508745  0.018231  2.444025  0.026  -0.28785  -0.454202  0.028482  2.448312  0.043
O  O73  1  0.78778702  0.58300644  0.43955715  1  -0.51991  -0.029076  2.187085  -0.049  -0.478935  -0.02329  2.447336  -0.035  -0.508762  -0.018125  2.443723  -0.027  -0.287946  -0.454264  -0.028816  2.44789  -0.044
O  O74  1  0.78769205  0.91700321  0.93937609  1  -0.51937  -0.029834  2.187524  -0.05  -0.478577  -0.023529  2.447965  -0.036  -0.508379  -0.018292  2.44429  -0.027  -0.28761  -0.453917  -0.029323  2.448653  -0.045
O  O75  1  0.21240347  0.41696747  0.56070535  1  -0.519459  -0.029422  2.186484  -0.049  -0.478746  -0.02313  2.446969  -0.035  -0.508583  -0.018058  2.443322  -0.026  -0.287751  -0.454085  -0.028799  2.447732  -0.044
O  O76  1  0.27050364  0.18381144  0.44850769  1  -0.815901  0.033114  1.987845  0.053  -0.781471  0.029003  2.225343  0.044  -0.80856  0.023245  2.191419  0.035  -0.574781  -0.75783  0.034721  2.248959  0.053
O  O77  1  0.72952764  0.68380700  0.05147870  1  -0.815969  -0.032216  1.987981  -0.054  -0.781608  -0.028978  2.225426  -0.045  -0.808686  -0.022945  2.191491  -0.036  -0.574757  -0.758082  -0.035168  2.248969  -0.055
O  O78  1  0.72951931  0.81625182  0.55146730  1  -0.815865  -0.031899  1.988382  -0.054  -0.781417  -0.028556  2.225921  -0.045  -0.808516  -0.022641  2.19199  -0.036  -0.574711  -0.757992  -0.034568  2.24957  -0.054
O  O79  1  0.27050286  0.31615689  0.94851246  1  -0.81563  -0.032227  1.987857  -0.054  -0.781137  -0.029028  2.226133  -0.045  -0.808256  -0.023113  2.192209  -0.036  -0.574592  -0.757677  -0.034941  2.24976  -0.054
O  O80  1  0.31216078  0.63729669  0.99617485  1  -0.494184  0.00257  2.123034  0.004  -0.43482  0.001874  2.340065  0.003  -0.456056  0.00144  2.336212  0.002  -0.283468  -0.419567  0.002493  2.342133  0.004
O  O81  1  0.68782510  0.13726740  0.50379186  1  -0.494523  -0.002341  2.122525  -0.004  -0.435051  -0.001654  2.339519  -0.003  -0.456253  -0.001105  2.335636  -0.002  -0.28372  -0.419858  -0.002399  2.341785  -0.004
O  O82  1  0.68804236  0.36272339  0.00390799  1  -0.49439  -0.002572  2.123011  -0.005  -0.435068  -0.001584  2.340079  -0.003  -0.456266  -0.000927  2.336195  -0.002  -0.283444  -0.419831  -0.002556  2.342227  -0.005
O  O83  1  0.31189574  0.86268950  0.49602429  1  -0.494265  -0.002855  2.123449  -0.005  -0.434957  -0.001895  2.340543  -0.003  -0.456172  -0.001304  2.336675  -0.002  -0.283469  -0.419677  -0.002831  2.342573  -0.005
O  O84  1  0.44803952  0.24205152  0.24749196  1  -0.827822  0.032986  2.006027  0.053  -0.78822  0.026908  2.226762  0.04  -0.818023  0.021911  2.194091  0.032  -0.578691  -0.763368  0.031659  2.250735  0.048
O  O85  1  0.55187532  0.74206029  0.25245595  1  -0.827717  -0.032096  2.006047  -0.053  -0.788088  -0.026909  2.226676  -0.041  -0.817867  -0.021772  2.194029  -0.033  -0.578603  -0.763302  -0.0319  2.250645  -0.048
O  O86  1  0.55174653  0.75795355  0.75228585  1  -0.827892  -0.033019  2.005502  -0.055  -0.788348  -0.027847  2.225779  -0.043  -0.818072  -0.022348  2.193082  -0.034  -0.57888  -0.763568  -0.03319  2.249721  -0.051
O  O87  1  0.44825054  0.25796883  0.74775385  1  -0.827571  -0.032806  2.00604  -0.055  -0.788066  -0.027441  2.226549  -0.042  -0.817822  -0.022064  2.193812  -0.034  -0.578574  -0.763268  -0.032666  2.250499  -0.05
O  O88  1  0.39047820  0.92444451  0.86877480  1  -0.428524  -0.000161  2.0834  -0.001  -0.382573  -0.000104  2.29829  -0.001  -0.401344  -0.000105  2.295677  -0.001  -0.270752  -0.369543  -0.000122  2.300214  -0.001
O  O89  1  0.60953743  0.42439446  0.63123450  1  -0.428659  -0.000232  2.083779  -0.001  -0.382662  6.4e-05  2.298713  0.0  -0.401414  0.000331  2.296051  0.0  -0.270776  -0.369642  -0.000374  2.300647  -0.001
O  O90  1  0.60951203  0.07558262  0.13114231  1  -0.428283  -0.00037  2.083588  0.0  -0.382239  -7.9e-05  2.298274  0.0  -0.401003  -5e-06  2.295634  0.0  -0.270531  -0.369227  -0.000179  2.300228  0.0
O  O91  1  0.39045799  0.57552727  0.36886327  1  -0.428207  -0.000749  2.083464  -0.002  -0.382123  -0.000186  2.298071  -0.001  -0.400891  0.000112  2.295441  0.0  -0.270511  -0.369103  -0.000745  2.30001  -0.001
O  O92  1  0.43567746  0.98244456  0.32810527  1  -0.811853  0.025707  1.952244  0.041  -0.761075  0.022571  2.161778  0.034  -0.78741  0.018742  2.131907  0.028  -0.559232  -0.740349  0.02578  2.183818  0.039
O  O93  1  0.56436375  0.48246983  0.17189561  1  -0.812055  -0.024769  1.952242  -0.041  -0.761218  -0.022266  2.161763  -0.034  -0.78754  -0.018384  2.131893  -0.028  -0.559279  -0.740533  -0.025582  2.183806  -0.039
O  O94  1  0.56423792  0.01749023  0.67176521  1  -0.812333  -0.025585  1.952814  -0.043  -0.761316  -0.02294  2.162257  -0.035  -0.787614  -0.018822  2.13234  -0.029  -0.559226  -0.740574  -0.026592  2.184334  -0.041
O  O95  1  0.43568251  0.51743785  0.82821826  1  -0.812395  -0.025685  1.95262  -0.043  -0.761413  -0.023072  2.162131  -0.036  -0.787728  -0.018902  2.13222  -0.029  -0.559288  -0.740686  -0.026817  2.184176  -0.041
