# generated using pymatgen
data_Cd3H22C30(N3O2)4
_symmetry_space_group_name_H-M   'P 1'
_cell_length_a   8.16264261
_cell_length_b   9.30520513
_cell_length_c   21.27470414
_cell_angle_alpha   89.99978801
_cell_angle_beta   91.14976110
_cell_angle_gamma   89.99982165
_symmetry_Int_Tables_number   1
_chemical_formula_structural   Cd3H22C30(N3O2)4
_chemical_formula_sum   'Cd6 H44 C60 N24 O16'
_cell_volume   1615.59616511
_cell_formula_units_Z   2
loop_
 _symmetry_equiv_pos_site_id
 _symmetry_equiv_pos_as_xyz
  1  'x, y, z'
loop_
 _atom_site_type_symbol
 _atom_site_label
 _atom_site_symmetry_multiplicity
 _atom_site_fract_x
 _atom_site_fract_y
 _atom_site_fract_z
 _atom_site_occupancy
 _atom_site_hle17_bader_spin_density
 _atom_site_hle17_ddec_charge
 _atom_site_hle17_ddec_spin_density
 _atom_site_hle17_ddec_sum_bond_order
 _atom_site_hle17_magmom
 _atom_site_hse06_10hf_bader_spin_density
 _atom_site_hse06_10hf_ddec_charge
 _atom_site_hse06_10hf_ddec_spin_density
 _atom_site_hse06_10hf_ddec_sum_bond_order
 _atom_site_hse06_10hf_magmom
 _atom_site_hse06_bader_spin_density
 _atom_site_hse06_ddec_charge
 _atom_site_hse06_ddec_spin_density
 _atom_site_hse06_ddec_sum_bond_order
 _atom_site_hse06_magmom
 _atom_site_pbe_bader_spin_density
 _atom_site_pbe_cm5_charge
 _atom_site_pbe_ddec_charge
 _atom_site_pbe_ddec_spin_density
 _atom_site_pbe_ddec_sum_bond_order
 _atom_site_pbe_magmom
Cd  Cd0  1  0.08417009  0.31831783  0.15752380  1  0  1.044846  0  1.795881  0  0  0.838517  0  2.255769  0  0  0.895274  0  2.207082  0  0  0.77705  0.798806  0  2.288484  0
Cd  Cd1  1  0.91583571  0.81831672  0.34247636  1  0  1.044835  0  1.795847  0  0  0.838516  0  2.255732  0  0  0.895275  0  2.207039  0  0  0.77704  0.798804  0  2.288449  0
Cd  Cd2  1  0.91583220  0.68168247  0.84247617  1  0  1.044829  0  1.795875  0  0  0.838504  0  2.255754  0  0  0.895261  0  2.207068  0  0  0.777048  0.798794  0  2.28847  0
Cd  Cd3  1  0.08416414  0.18168144  0.65752312  1  0  1.044851  0  1.795835  0  0  0.838547  0  2.255712  0  0  0.895302  0  2.207024  0  0  0.777042  0.798832  0  2.288428  0
Cd  Cd4  1  0.00000153  0.49999972  0.00000008  1  0  1.203792  0  1.675725  0  0  1.008348  0  2.143225  0  0  1.065402  0  2.087261  0  0  0.805588  0.967521  0  2.181912  0
Cd  Cd5  1  0.00000054  0.99999948  0.49999940  1  0  1.203856  0  1.675709  0  0  1.008436  0  2.143206  0  0  1.065489  0  2.08724  0  0  0.805616  0.967607  0  2.181894  0
H  H6  1  0.27259105  0.07334670  0.26469154  1  0  0.089394  0  0.932257  0  0  0.098975  0  0.992119  0  0  0.101245  0  0.991526  0  0  0.120393  0.097221  0  0.992735  0
H  H7  1  0.72740586  0.57334486  0.23530752  1  0  0.089402  0  0.932209  0  0  0.098962  0  0.992101  0  0  0.101232  0  0.991508  0  0  0.120384  0.097209  0  0.992714  0
H  H8  1  0.72740513  0.92665575  0.73530743  1  0  0.089415  0  0.932206  0  0  0.098965  0  0.992106  0  0  0.101232  0  0.991516  0  0  0.1204  0.097213  0  0.992714  0
H  H9  1  0.27259521  0.42665652  0.76469243  1  0  0.089404  0  0.932197  0  0  0.098961  0  0.992097  0  0  0.10123  0  0.991504  0  0  0.120387  0.097211  0  0.992701  0
H  H10  1  0.43697915  0.84398507  0.25996594  1  0  0.094764  0  0.930338  0  0  0.102488  0  0.990688  0  0  0.10579  0  0.988481  0  0  0.118924  0.099902  0  0.992696  0
H  H11  1  0.56301673  0.34398526  0.24003502  1  0  0.094818  0  0.930311  0  0  0.102549  0  0.990647  0  0  0.105852  0  0.988438  0  0  0.118937  0.099962  0  0.992656  0
H  H12  1  0.56301700  0.15601631  0.74003444  1  0  0.094781  0  0.930343  0  0  0.102516  0  0.990677  0  0  0.105818  0  0.988469  0  0  0.11893  0.099929  0  0.992686  0
H  H13  1  0.43698310  0.65601612  0.75996492  1  0  0.094806  0  0.930341  0  0  0.10254  0  0.990677  0  0  0.105842  0  0.988468  0  0  0.118943  0.099953  0  0.992688  0
H  H14  1  0.38838696  0.84402573  0.06482666  1  0  0.105216  0  0.914183  0  0  0.110881  0  0.976828  0  0  0.114745  0  0.974023  0  0  0.124088  0.10805  0  0.978949  0
H  H15  1  0.61161383  0.34402306  0.43517434  1  0  0.105154  0  0.914188  0  0  0.110833  0  0.97683  0  0  0.114691  0  0.974031  0  0  0.124041  0.108002  0  0.97895  0
H  H16  1  0.61161654  0.15597780  0.93517379  1  0  0.105179  0  0.914174  0  0  0.110849  0  0.976815  0  0  0.114708  0  0.974014  0  0  0.124037  0.108019  0  0.978935  0
H  H17  1  0.38838479  0.65597725  0.56482559  1  0  0.105156  0  0.914212  0  0  0.110832  0  0.976856  0  0  0.11469  0  0.974055  0  0  0.124041  0.108001  0  0.978978  0
H  H18  1  0.28893529  0.98078995  0.88113419  1  0  0.120839  0  0.945129  0  0  0.128656  0  1.006358  0  0  0.132434  0  1.004533  0  0  0.111432  0.125942  0  1.007897  0
H  H19  1  0.71106362  0.48078968  0.61886558  1  0  0.120843  0  0.945119  0  0  0.128687  0  1.006331  0  0  0.132465  0  1.004506  0  0  0.111447  0.12597  0  1.007869  0
H  H20  1  0.71106455  0.01920928  0.11886528  1  0  0.120874  0  0.945069  0  0  0.128701  0  1.006294  0  0  0.132479  0  1.004469  0  0  0.111461  0.125985  0  1.007831  0
H  H21  1  0.28893499  0.51920955  0.38113436  1  0  0.120856  0  0.945101  0  0  0.128701  0  1.006311  0  0  0.132479  0  1.004485  0  0  0.111457  0.125985  0  1.007849  0
H  H22  1  0.26237970  0.99377999  0.76377090  1  0  0.087798  0  0.942295  0  0  0.096798  0  1.005836  0  0  0.099565  0  1.003096  0  0  0.117264  0.094776  0  1.007803  0
H  H23  1  0.73761794  0.49377973  0.73622883  1  0  0.087835  0  0.942258  0  0  0.096823  0  1.005813  0  0  0.09959  0  1.003073  0  0  0.117266  0.094801  0  1.00778  0
H  H24  1  0.73762014  0.00621924  0.23622857  1  0  0.087833  0  0.942274  0  0  0.096827  0  1.005818  0  0  0.099594  0  1.003078  0  0  0.117266  0.094805  0  1.007785  0
H  H25  1  0.26238068  0.50621950  0.26377110  1  0  0.087817  0  0.942288  0  0  0.096813  0  1.005831  0  0  0.09958  0  1.00309  0  0  0.117259  0.094791  0  1.007798  0
H  H26  1  0.91316608  0.31599819  0.77361836  1  0  0.080594  0  0.951742  0  0  0.088807  0  1.019388  0  0  0.090876  0  1.017864  0  0  0.114964  0.087362  0  1.020379  0
H  H27  1  0.08683099  0.81599817  0.72638071  1  0  0.080611  0  0.95172  0  0  0.08883  0  1.019364  0  0  0.090899  0  1.017839  0  0  0.114973  0.087385  0  1.020356  0
H  H28  1  0.08683254  0.68399997  0.22638110  1  0  0.08057  0  0.951696  0  0  0.088781  0  1.019356  0  0  0.090853  0  1.017828  0  0  0.114944  0.087338  0  1.020349  0
H  H29  1  0.91316761  0.18400214  0.27361969  1  0  0.080605  0  0.95171  0  0  0.088809  0  1.019374  0  0  0.090883  0  1.017848  0  0  0.114951  0.087362  0  1.020364  0
H  H30  1  0.93085677  0.32216519  0.89003316  1  0  0.111816  0  0.993553  0  0  0.118303  0  1.061709  0  0  0.121986  0  1.059556  0  0  0.106637  0.115657  0  1.063344  0
H  H31  1  0.06914151  0.82216405  0.60996545  1  0  0.111817  0  0.993532  0  0  0.118279  0  1.061711  0  0  0.121962  0  1.059559  0  0  0.10664  0.115632  0  1.063343  0
H  H32  1  0.06914185  0.67783404  0.10996583  1  0  0.11183  0  0.993512  0  0  0.118313  0  1.061665  0  0  0.121997  0  1.05951  0  0  0.106647  0.115667  0  1.0633  0
H  H33  1  0.93085710  0.17783518  0.39003495  1  0  0.111827  0  0.993472  0  0  0.118302  0  1.061639  0  0  0.121985  0  1.059484  0  0  0.106635  0.115656  0  1.063274  0
H  H34  1  0.57217471  0.58665203  0.13447424  1  0  0.09424  0  0.952723  0  0  0.102043  0  1.025992  0  0  0.104919  0  1.02399  0  0  0.092174  0.099984  0  1.027457  0
H  H35  1  0.42783070  0.08664937  0.36552676  1  0  0.094279  0  0.952706  0  0  0.102058  0  1.025991  0  0  0.10493  0  1.023995  0  0  0.092176  0.100001  0  1.027455  0
H  H36  1  0.42783002  0.41335150  0.86552670  1  0  0.094242  0  0.952721  0  0  0.102012  0  1.026019  0  0  0.104886  0  1.024017  0  0  0.092158  0.099955  0  1.027483  0
H  H37  1  0.57216792  0.91334771  0.63447270  1  0  0.094263  0  0.952701  0  0  0.102078  0  1.025953  0  0  0.104947  0  1.023965  0  0  0.09217  0.100019  0  1.02742  0
H  H38  1  0.56511881  0.58805698  0.05100139  1  0  0.104002  0  0.927887  0  0  0.11868  0  0.985671  0  0  0.120898  0  0.985302  0  0  0.096506  0.117048  0  0.986104  0
H  H39  1  0.43488291  0.08805790  0.44900004  1  0  0.104031  0  0.927832  0  0  0.118696  0  0.985633  0  0  0.120914  0  0.985257  0  0  0.096497  0.117058  0  0.986068  0
H  H40  1  0.43488101  0.41194333  0.94899996  1  0  0.104012  0  0.927896  0  0  0.118679  0  0.985685  0  0  0.120897  0  0.98531  0  0  0.096512  0.117046  0  0.986118  0
H  H41  1  0.56511816  0.91194026  0.55099992  1  0  0.104015  0  0.927833  0  0  0.118677  0  0.98564  0  0  0.120896  0  0.985263  0  0  0.096488  0.117039  0  0.986075  0
H  H42  1  0.51325528  0.30359232  0.11972176  1  0  0.094252  0  0.942659  0  0  0.105096  0  1.00809  0  0  0.107495  0  1.007082  0  0  0.092487  0.10351  0  1.008627  0
H  H43  1  0.48674688  0.80359312  0.38027933  1  0  0.094245  0  0.942692  0  0  0.105142  0  1.008091  0  0  0.107546  0  1.007083  0  0  0.092497  0.103556  0  1.008628  0
H  H44  1  0.48674699  0.69640906  0.88027915  1  0  0.094276  0  0.942723  0  0  0.105129  0  1.008153  0  0  0.107532  0  1.007144  0  0  0.092517  0.103545  0  1.008691  0
H  H45  1  0.51325418  0.19640396  0.61972063  1  0  0.094256  0  0.942733  0  0  0.105152  0  1.008133  0  0  0.107551  0  1.007126  0  0  0.092519  0.103568  0  1.008666  0
H  H46  1  0.58911836  0.33431083  0.04288870  1  0  0.117571  0  0.924852  0  0  0.131338  0  0.983873  0  0  0.134416  0  0.981737  0  0  0.103947  0.129073  0  0.985616  0
H  H47  1  0.41088981  0.83430690  0.45711287  1  0  0.117548  0  0.924818  0  0  0.131343  0  0.983851  0  0  0.134426  0  0.981715  0  0  0.10394  0.129078  0  0.985594  0
H  H48  1  0.41088758  0.66569378  0.95711319  1  0  0.117529  0  0.924832  0  0  0.131307  0  0.98386  0  0  0.134389  0  0.981724  0  0  0.103933  0.129044  0  0.985603  0
H  H49  1  0.58911125  0.16569019  0.54288709  1  0  0.117546  0  0.924837  0  0  0.131352  0  0.983861  0  0  0.134433  0  0.981724  0  0  0.103952  0.129087  0  0.985605  0
C  C50  1  0.29941367  0.02194337  0.21992196  1  0  0.091634  0  3.694493  0  0  0.064473  0  3.947505  0  0  0.067561  0  3.96595  0  0  0.055046  0.06239  0  3.934947  0
C  C51  1  0.70058341  0.52194337  0.28007813  1  0  0.091707  0  3.694459  0  0  0.064563  0  3.947469  0  0  0.067654  0  3.965911  0  0  0.055074  0.062481  0  3.934911  0
C  C52  1  0.70058372  0.97805694  0.78007796  1  0  0.091677  0  3.694439  0  0  0.064544  0  3.947447  0  0  0.067634  0  3.965893  0  0  0.05508  0.062463  0  3.934893  0
C  C53  1  0.29941643  0.47805694  0.71992182  1  0  0.09174  0  3.69441  0  0  0.064599  0  3.947421  0  0  0.06769  0  3.965866  0  0  0.055085  0.062517  0  3.934866  0
C  C54  1  0.39037893  0.89503524  0.21708633  1  0  0.062908  0  3.701379  0  0  0.039301  0  3.964727  0  0  0.040846  0  3.980803  0  0  0.051308  0.038187  0  3.954039  0
C  C55  1  0.60962045  0.39503386  0.28291412  1  0  0.062682  0  3.701339  0  0  0.039068  0  3.964685  0  0  0.040613  0  3.98076  0  0  0.051202  0.037955  0  3.953997  0
C  C56  1  0.60961968  0.10496614  0.78291408  1  0  0.062826  0  3.701468  0  0  0.03921  0  3.964808  0  0  0.040754  0  3.980886  0  0  0.051259  0.038096  0  3.954122  0
C  C57  1  0.39038061  0.60496644  0.71708584  1  0  0.062683  0  3.701297  0  0  0.039063  0  3.964648  0  0  0.040607  0  3.980725  0  0  0.051182  0.037949  0  3.953963  0
C  C58  1  0.36412678  0.89464455  0.10997114  1  0  0.060818  0  3.64204  0  0  0.032926  0  3.896934  0  0  0.03391  0  3.912324  0  0  0.064142  0.03198  0  3.886735  0
C  C59  1  0.63587261  0.39464327  0.39002931  1  0  0.060897  0  3.641998  0  0  0.032971  0  3.896926  0  0  0.033959  0  3.912318  0  0  0.064217  0.032033  0  3.886735  0
C  C60  1  0.63587306  0.10535898  0.89002881  1  0  0.060856  0  3.641928  0  0  0.032971  0  3.896811  0  0  0.03396  0  3.912203  0  0  0.064205  0.032027  0  3.886616  0
C  C61  1  0.36412723  0.60535811  0.60997064  1  0  0.060884  0  3.642036  0  0  0.032966  0  3.896949  0  0  0.033955  0  3.912341  0  0  0.064219  0.032022  0  3.886754  0
C  C62  1  0.27265294  0.02245110  0.11197129  1  0  0.129814  0  3.769478  0  0  0.131125  0  4.009348  0  0  0.135345  0  4.02875  0  0  0.130503  0.127793  0  3.996551  0
C  C63  1  0.72734536  0.52244904  0.38802881  1  0  0.129931  0  3.769396  0  0  0.131256  0  4.00931  0  0  0.135476  0  4.02871  0  0  0.130481  0.127898  0  3.996547  0
C  C64  1  0.72734568  0.97755028  0.88802818  1  0  0.129904  0  3.769389  0  0  0.131222  0  4.009296  0  0  0.135441  0  4.028698  0  0  0.130519  0.127882  0  3.996512  0
C  C65  1  0.27265448  0.47755126  0.61197114  1  0  0.129917  0  3.769448  0  0  0.131242  0  4.009359  0  0  0.135461  0  4.028761  0  0  0.130487  0.127904  0  3.996569  0
C  C66  1  0.20873142  0.09405436  0.05575015  1  0  0.252815  0  3.850466  0  0  0.229046  0  4.120793  0  0  0.238056  0  4.139785  0  0  0.202103  0.223156  0  4.107808  0
C  C67  1  0.79126785  0.59405380  0.44424936  1  0  0.252889  0  3.850285  0  0  0.229062  0  4.120694  0  0  0.238073  0  4.139685  0  0  0.202166  0.22318  0  4.107714  0
C  C68  1  0.79126842  0.90594594  0.94424932  1  0  0.252917  0  3.850228  0  0  0.229081  0  4.120657  0  0  0.238091  0  4.13965  0  0  0.202148  0.223193  0  4.107675  0
C  C69  1  0.20873199  0.40594650  0.55575058  1  0  0.252879  0  3.850276  0  0  0.229048  0  4.120696  0  0  0.238058  0  4.139688  0  0  0.202135  0.223159  0  4.107713  0
C  C70  1  0.14011905  0.15474998  0.96357726  1  0  0.294084  0  3.770437  0  0  0.273941  0  4.037175  0  0  0.283938  0  4.054163  0  0  0.210112  0.267465  0  4.025373  0
C  C71  1  0.85987862  0.65474945  0.53642161  1  0  0.294049  0  3.770495  0  0  0.273955  0  4.037163  0  0  0.283952  0  4.054151  0  0  0.210082  0.26748  0  4.025361  0
C  C72  1  0.85987834  0.84524925  0.03642219  1  0  0.29411  0  3.770469  0  0  0.27404  0  4.037132  0  0  0.284036  0  4.054123  0  0  0.210148  0.267565  0  4.025328  0
C  C73  1  0.14012122  0.34525085  0.46357833  1  0  0.294109  0  3.770473  0  0  0.274044  0  4.037114  0  0  0.284041  0  4.054102  0  0  0.210107  0.267568  0  4.025311  0
C  C74  1  0.11788159  0.15483842  0.89544330  1  0  0.065693  0  3.748298  0  0  0.078506  0  3.980633  0  0  0.082354  0  3.999963  0  0  0.019471  0.075656  0  3.967705  0
C  C75  1  0.88211731  0.65483726  0.60455559  1  0  0.065596  0  3.748347  0  0  0.078366  0  3.980686  0  0  0.082212  0  4.000019  0  0  0.019408  0.075516  0  3.967755  0
C  C76  1  0.88211704  0.84516081  0.10455570  1  0  0.065612  0  3.748267  0  0  0.078343  0  3.980684  0  0  0.082191  0  4.000013  0  0  0.019394  0.075494  0  3.967751  0
C  C77  1  0.11788131  0.34516197  0.39544435  1  0  0.065577  0  3.748379  0  0  0.078336  0  3.980746  0  0  0.082183  0  4.000077  0  0  0.019391  0.075486  0  3.967814  0
C  C78  1  0.20733449  0.05862456  0.85887311  1  0  -0.118927  0  3.682726  0  0  -0.143018  0  3.936466  0  0  -0.148696  0  3.954919  0  0  -0.075697  -0.139604  0  3.924487  0
C  C79  1  0.79266229  0.55862441  0.64112638  1  0  -0.118861  0  3.682676  0  0  -0.142987  0  3.936436  0  0  -0.148666  0  3.95489  0  0  -0.075699  -0.13957  0  3.924452  0
C  C80  1  0.79266290  0.94137359  0.14112635  1  0  -0.118882  0  3.68263  0  0  -0.142983  0  3.936407  0  0  -0.14866  0  3.954858  0  0  -0.075714  -0.139565  0  3.924422  0
C  C81  1  0.20733632  0.44137590  0.35887355  1  0  -0.118848  0  3.682646  0  0  -0.142981  0  3.936422  0  0  -0.148659  0  3.954873  0  0  -0.075696  -0.139564  0  3.924438  0
C  C82  1  0.19128227  0.06401324  0.79387571  1  0  0.122689  0  3.709421  0  0  0.090097  0  3.965564  0  0  0.097254  0  3.983404  0  0  0.041908  0.085881  0  3.9531  0
C  C83  1  0.80871571  0.56401357  0.70612425  1  0  0.122609  0  3.709405  0  0  0.09003  0  3.965553  0  0  0.097187  0  3.983393  0  0  0.041899  0.085814  0  3.953088  0
C  C84  1  0.80871634  0.93598491  0.20612423  1  0  0.122596  0  3.70935  0  0  0.090022  0  3.965484  0  0  0.09718  0  3.98332  0  0  0.041925  0.085807  0  3.953017  0
C  C85  1  0.19128290  0.43598674  0.29387568  1  0  0.122568  0  3.709326  0  0  0.08998  0  3.965483  0  0  0.097139  0  3.983318  0  0  0.041874  0.085765  0  3.953017  0
C  C86  1  0.99784153  0.24579532  0.79927073  1  0  0.110101  0  3.729113  0  0  0.078286  0  3.98539  0  0  0.084411  0  4.005719  0  0  0.035289  0.074412  0  3.971973  0
C  C87  1  0.00215580  0.74579467  0.70072799  1  0  0.110085  0  3.728952  0  0  0.078239  0  3.985228  0  0  0.084364  0  4.005552  0  0  0.035251  0.074362  0  3.971813  0
C  C88  1  0.00215709  0.75420283  0.20072826  1  0  0.110223  0  3.728936  0  0  0.078414  0  3.985182  0  0  0.08452  0  4.005541  0  0  0.035342  0.074534  0  3.971769  0
C  C89  1  0.99784159  0.25420456  0.29927193  1  0  0.110153  0  3.72902  0  0  0.078346  0  3.98526  0  0  0.084451  0  4.005616  0  0  0.035316  0.074473  0  3.97184  0
C  C90  1  0.00829032  0.24849704  0.86435477  1  0  -0.130456  0  3.692593  0  0  -0.152779  0  3.943174  0  0  -0.159008  0  3.963875  0  0  -0.082142  -0.148886  0  3.929596  0
C  C91  1  0.99170701  0.74849531  0.63564347  1  0  -0.13041  0  3.692485  0  0  -0.15268  0  3.943048  0  0  -0.158906  0  3.96375  0  0  -0.082113  -0.148784  0  3.929467  0
C  C92  1  0.99170708  0.75150219  0.13564421  1  0  -0.130492  0  3.692476  0  0  -0.152773  0  3.943065  0  0  -0.158997  0  3.963762  0  0  -0.082143  -0.14888  0  3.929487  0
C  C93  1  0.00829406  0.25150392  0.36435601  1  0  -0.130472  0  3.692517  0  0  -0.152756  0  3.943081  0  0  -0.158979  0  3.963778  0  0  -0.082127  -0.148863  0  3.9295  0
C  C94  1  0.33971867  0.52501066  0.09658040  1  0  0.721096  0  3.832591  0  0  0.670174  0  4.138089  0  0  0.704943  0  4.130016  0  0  0.208957  0.646957  0  4.141823  0
C  C95  1  0.66028450  0.02501350  0.40342114  1  0  0.721264  0  3.832549  0  0  0.67025  0  4.138158  0  0  0.705019  0  4.13008  0  0  0.208977  0.647032  0  4.141897  0
C  C96  1  0.66028236  0.47498750  0.90342190  1  0  0.721029  0  3.832703  0  0  0.670073  0  4.138248  0  0  0.70484  0  4.130171  0  0  0.20888  0.646855  0  4.141983  0
C  C97  1  0.33971536  0.97498466  0.59657692  1  0  0.721099  0  3.832659  0  0  0.670196  0  4.138112  0  0  0.704965  0  4.130035  0  0  0.208962  0.646977  0  4.141848  0
C  C98  1  0.52543366  0.52957561  0.09271489  1  0  -0.236385  0  3.653274  0  0  -0.277643  0  3.909495  0  0  -0.283088  0  3.916643  0  0  -0.168603  -0.273762  0  3.90433  0
C  C99  1  0.47457071  0.02957570  0.40728713  1  0  -0.236481  0  3.653202  0  0  -0.27764  0  3.909406  0  0  -0.283091  0  3.91659  0  0  -0.168593  -0.273751  0  3.90423  0
C  C100  1  0.47456737  0.47042684  0.90728695  1  0  -0.236402  0  3.653267  0  0  -0.277614  0  3.909501  0  0  -0.283064  0  3.916681  0  0  -0.168607  -0.273728  0  3.904335  0
C  C101  1  0.52542912  0.97042353  0.59271281  1  0  -0.236441  0  3.653266  0  0  -0.277649  0  3.909438  0  0  -0.283106  0  3.916617  0  0  -0.168583  -0.273755  0  3.904258  0
C  C102  1  0.59049740  0.37419582  0.09158246  1  0  -0.239106  0  3.659296  0  0  -0.275058  0  3.906068  0  0  -0.280313  0  3.912417  0  0  -0.164434  -0.271313  0  3.901609  0
C  C103  1  0.40950695  0.87419768  0.40841900  1  0  -0.239103  0  3.659281  0  0  -0.275179  0  3.906152  0  0  -0.280454  0  3.91252  0  0  -0.164454  -0.271431  0  3.901693  0
C  C104  1  0.40950487  0.62580556  0.90841844  1  0  -0.238999  0  3.659382  0  0  -0.275013  0  3.906139  0  0  -0.280283  0  3.912503  0  0  -0.164402  -0.271279  0  3.901695  0
C  C105  1  0.59049167  0.12580048  0.59158046  1  0  -0.239078  0  3.659394  0  0  -0.2752  0  3.906298  0  0  -0.280458  0  3.912645  0  0  -0.164484  -0.271454  0  3.901836  0
C  C106  1  0.76400585  0.36287601  0.11673471  1  0  0.710436  0  3.814297  0  0  0.665247  0  4.101367  0  0  0.69971  0  4.094985  0  0  0.203291  0.641665  0  4.104817  0
C  C107  1  0.23599975  0.86288393  0.38326819  1  0  0.710442  0  3.814063  0  0  0.665292  0  4.101135  0  0  0.699762  0  4.094749  0  0  0.203276  0.641712  0  4.104588  0
C  C108  1  0.23599888  0.63712644  0.88326575  1  0  0.710231  0  3.81447  0  0  0.665155  0  4.101399  0  0  0.699624  0  4.095018  0  0  0.203251  0.641577  0  4.104851  0
C  C109  1  0.76400132  0.13711531  0.61673129  1  0  0.710463  0  3.81404  0  0  0.665407  0  4.100972  0  0  0.699875  0  4.094581  0  0  0.203313  0.641826  0  4.104431  0
N  N110  1  0.24126830  0.08570153  0.16775052  1  0  -0.329538  0  3.182406  0  0  -0.269883  0  3.443155  0  0  -0.284367  0  3.460646  0  0  -0.303929  -0.259502  0  3.430659  0
N  N111  1  0.75873222  0.58569986  0.33224903  1  0  -0.32965  0  3.182377  0  0  -0.269987  0  3.443112  0  0  -0.284471  0  3.460603  0  0  -0.303937  -0.259598  0  3.430623  0
N  N112  1  0.75873153  0.91429985  0.83224943  1  0  -0.329573  0  3.182361  0  0  -0.269912  0  3.443088  0  0  -0.284396  0  3.460582  0  0  -0.303925  -0.259528  0  3.430596  0
N  N113  1  0.24126884  0.41430045  0.66775093  1  0  -0.329656  0  3.182395  0  0  -0.269993  0  3.443124  0  0  -0.284478  0  3.460617  0  0  -0.303925  -0.259609  0  3.43063  0
N  N114  1  0.42305431  0.83170851  0.16211909  1  0  -0.244246  0  3.077178  0  0  -0.210544  0  3.345989  0  0  -0.217417  0  3.362304  0  0  -0.293587  -0.205526  0  3.334463  0
N  N115  1  0.57694530  0.33170675  0.33788192  1  0  -0.244156  0  3.077077  0  0  -0.210429  0  3.345876  0  0  -0.2173  0  3.362189  0  0  -0.293508  -0.205412  0  3.33435  0
N  N116  1  0.57694553  0.16829395  0.83788085  1  0  -0.244289  0  3.077201  0  0  -0.210583  0  3.346007  0  0  -0.217456  0  3.36232  0  0  -0.293616  -0.205566  0  3.334483  0
N  N117  1  0.42305454  0.66829355  0.66211802  1  0  -0.244174  0  3.07705  0  0  -0.210448  0  3.345853  0  0  -0.21732  0  3.362167  0  0  -0.293533  -0.205432  0  3.334328  0
N  N118  1  0.21879190  0.04881011  0.99574728  1  0  -0.435843  0  2.886772  0  0  -0.413344  0  3.150537  0  0  -0.427043  0  3.162671  0  0  -0.332937  -0.403689  0  3.141948  0
N  N119  1  0.78120615  0.54881114  0.50425223  1  0  -0.435869  0  2.88676  0  0  -0.413371  0  3.150529  0  0  -0.427069  0  3.16266  0  0  -0.332974  -0.403716  0  3.141938  0
N  N120  1  0.78120549  0.95118912  0.00425264  1  0  -0.435882  0  2.886683  0  0  -0.413382  0  3.150444  0  0  -0.427079  0  3.162574  0  0  -0.332953  -0.403727  0  3.141854  0
N  N121  1  0.21879369  0.45118916  0.49574724  1  0  -0.435881  0  2.886751  0  0  -0.41339  0  3.150514  0  0  -0.427087  0  3.162644  0  0  -0.332962  -0.403736  0  3.141924  0
N  N122  1  0.13006845  0.22076203  0.06060540  1  0  -0.305622  0  3.227781  0  0  -0.242832  0  3.497509  0  0  -0.261202  0  3.521299  0  0  -0.251738  -0.230637  0  3.481076  0
N  N123  1  0.86993036  0.72076129  0.43939390  1  0  -0.305496  0  3.227513  0  0  -0.242674  0  3.497239  0  0  -0.261045  0  3.521029  0  0  -0.251689  -0.230481  0  3.480807  0
N  N124  1  0.86993140  0.77923828  0.93939407  1  0  -0.305611  0  3.227679  0  0  -0.242799  0  3.497425  0  0  -0.261169  0  3.521215  0  0  -0.25175  -0.230606  0  3.480992  0
N  N125  1  0.13006947  0.27923901  0.56060604  1  0  -0.305503  0  3.227532  0  0  -0.242682  0  3.497259  0  0  -0.261052  0  3.521049  0  0  -0.251702  -0.230489  0  3.480824  0
N  N126  1  0.08567238  0.26079047  0.00198541  1  0  -0.29691  0  3.112026  0  0  -0.239583  0  3.383644  0  0  -0.257633  0  3.404965  0  0  -0.230607  -0.226994  0  3.368889  0
N  N127  1  0.91432752  0.76079019  0.49801338  1  0  -0.29705  0  3.111956  0  0  -0.239737  0  3.383565  0  0  -0.257786  0  3.404884  0  0  -0.230614  -0.22715  0  3.368813  0
N  N128  1  0.91432747  0.73920876  0.99801360  1  0  -0.296971  0  3.112076  0  0  -0.239659  0  3.383674  0  0  -0.257709  0  3.404995  0  0  -0.230599  -0.22707  0  3.368919  0
N  N129  1  0.08567231  0.23921011  0.50198704  1  0  -0.297058  0  3.11198  0  0  -0.239756  0  3.383585  0  0  -0.257806  0  3.404905  0  0  -0.230606  -0.227168  0  3.368829  0
N  N130  1  0.08980545  0.15717212  0.76423138  1  0  -0.352932  0  3.305135  0  0  -0.268629  0  3.572993  0  0  -0.289764  0  3.59296  0  0  -0.344919  -0.254046  0  3.558492  0
N  N131  1  0.91019220  0.65717192  0.73576796  1  0  -0.352909  0  3.305029  0  0  -0.2686  0  3.572879  0  0  -0.289735  0  3.592848  0  0  -0.34491  -0.254017  0  3.55838  0
N  N132  1  0.91019439  0.84282604  0.23576810  1  0  -0.35299  0  3.305027  0  0  -0.268691  0  3.572899  0  0  -0.289822  0  3.592861  0  0  -0.344979  -0.254107  0  3.558399  0
N  N133  1  0.08980518  0.34282731  0.26423243  1  0  -0.352895  0  3.305007  0  0  -0.268592  0  3.572863  0  0  -0.289722  0  3.592827  0  0  -0.344916  -0.254008  0  3.55836  0
O  O134  1  0.28365719  0.48389482  0.14944722  1  0  -0.677488  0  2.007548  0  0  -0.607947  0  2.274992  0  0  -0.637084  0  2.261965  0  0  -0.351853  -0.587939  0  2.282514  0
O  O135  1  0.71634920  0.98389740  0.35055455  1  0  -0.67746  0  2.00746  0  0  -0.607933  0  2.27501  0  0  -0.637069  0  2.261983  0  0  -0.351813  -0.587925  0  2.282534  0
O  O136  1  0.71634630  0.51610334  0.85055417  1  0  -0.67744  0  2.007515  0  0  -0.607899  0  2.274988  0  0  -0.637037  0  2.261962  0  0  -0.351816  -0.587891  0  2.282511  0
O  O137  1  0.28365065  0.01609861  0.64944398  1  0  -0.677372  0  2.007444  0  0  -0.607914  0  2.274977  0  0  -0.637049  0  2.26195  0  0  -0.351838  -0.587908  0  2.282502  0
O  O138  1  0.25447701  0.55784529  0.04810366  1  0  -0.668894  0  1.992944  0  0  -0.603513  0  2.252642  0  0  -0.631763  0  2.240468  0  0  -0.330773  -0.583936  0  2.260063  0
O  O139  1  0.74552604  0.05784749  0.45189830  1  0  -0.669005  0  1.992919  0  0  -0.603588  0  2.252654  0  0  -0.631836  0  2.240479  0  0  -0.330813  -0.584012  0  2.260077  0
O  O140  1  0.74552404  0.44215394  0.95189770  1  0  -0.668895  0  1.993021  0  0  -0.603481  0  2.25271  0  0  -0.63173  0  2.240537  0  0  -0.330763  -0.583905  0  2.260131  0
O  O141  1  0.25447504  0.94215067  0.54809978  1  0  -0.668929  0  1.992937  0  0  -0.60353  0  2.252592  0  0  -0.631778  0  2.240419  0  0  -0.330772  -0.583953  0  2.26001  0
O  O142  1  0.79800496  0.26829539  0.15809729  1  0  -0.640875  0  1.945623  0  0  -0.581034  0  2.190447  0  0  -0.610044  0  2.1823  0  0  -0.326831  -0.560782  0  2.195482  0
O  O143  1  0.20199977  0.76829838  0.34190434  1  0  -0.640902  0  1.945516  0  0  -0.581052  0  2.190321  0  0  -0.610057  0  2.182154  0  0  -0.32679  -0.560798  0  2.195356  0
O  O144  1  0.20199731  0.73170706  0.84190408  1  0  -0.640833  0  1.945734  0  0  -0.581011  0  2.190487  0  0  -0.610015  0  2.182327  0  0  -0.326819  -0.560759  0  2.195522  0
O  O145  1  0.79800130  0.23170085  0.65809514  1  0  -0.640984  0  1.945534  0  0  -0.581167  0  2.19031  0  0  -0.610163  0  2.182122  0  0  -0.326843  -0.560916  0  2.19535  0
O  O146  1  0.87370007  0.45085036  0.09730616  1  0  -0.692096  0  2.046542  0  0  -0.612069  0  2.312652  0  0  -0.643246  0  2.29955  0  0  -0.342729  -0.590019  0  2.320931  0
O  O147  1  0.12630645  0.95085626  0.40269567  1  0  -0.692136  0  2.046544  0  0  -0.612139  0  2.312663  0  0  -0.643317  0  2.299558  0  0  -0.342777  -0.590092  0  2.320939  0
O  O148  1  0.12630341  0.54915102  0.90269617  1  0  -0.692002  0  2.046529  0  0  -0.612034  0  2.312614  0  0  -0.643213  0  2.299511  0  0  -0.342716  -0.589984  0  2.320893  0
O  O149  1  0.87369462  0.04914189  0.59730382  1  0  -0.692098  0  2.046577  0  0  -0.612139  0  2.312677  0  0  -0.643319  0  2.299574  0  0  -0.342736  -0.590082  0  2.320935  0
