# generated using pymatgen
data_ZnH13C21N3O4
_symmetry_space_group_name_H-M   'P 1'
_cell_length_a   16.12306288
_cell_length_b   16.63220765
_cell_length_c   17.71726473
_cell_angle_alpha   90.43018683
_cell_angle_beta   90.50194443
_cell_angle_gamma   89.68725513
_symmetry_Int_Tables_number   1
_chemical_formula_structural   ZnH13C21N3O4
_chemical_formula_sum   'Zn2 H26 C42 N6 O8'
_cell_volume   4750.71412666
_cell_formula_units_Z   2
loop_
 _symmetry_equiv_pos_site_id
 _symmetry_equiv_pos_as_xyz
  1  'x, y, z'
loop_
 _atom_site_type_symbol
 _atom_site_label
 _atom_site_symmetry_multiplicity
 _atom_site_fract_x
 _atom_site_fract_y
 _atom_site_fract_z
 _atom_site_occupancy
 _atom_site_pbe_bader_charge
 _atom_site_pbe_bader_spin_density
 _atom_site_pbe_cm5_charge
 _atom_site_pbe_ddec_charge
 _atom_site_pbe_ddec_spin_density
 _atom_site_pbe_ddec_sum_bond_order
 _atom_site_pbe_magmom
Zn  Zn0  1  0.50208792  0.58563687  0.50276562  1  1.287974  0  0.673136  0.837355  0  2.386108  0
Zn  Zn1  1  0.50610436  0.41142022  0.49741103  1  1.284609  0  0.671134  0.832229  0  2.393459  0
H  H2  1  0.59111564  0.70946698  0.43140803  1  0.130281  0  0.126734  0.104862  0  0.978638  0
H  H3  1  0.46577493  0.37130434  0.87725176  1  0.068214  0  0.103261  0.105433  0  0.992228  0
H  H4  1  0.46877067  0.63460361  0.26451406  1  0.069801  0  0.105572  0.111276  0  0.996872  0
H  H5  1  0.48980061  0.36796346  0.73774693  1  0.102081  0  0.105092  0.110618  0  0.998089  0
H  H6  1  0.47161369  0.37678768  0.26261504  1  0.10332  0  0.106069  0.114069  0  0.997128  0
H  H7  1  0.50306583  0.62530531  0.73508062  1  0.137042  0  0.104331  0.111519  0  1.003785  0
H  H8  1  0.45883820  0.37603240  0.12148793  1  0.036953  0  0.103461  0.105479  0  0.992644  0
H  H9  1  0.47841782  0.63019179  0.87462758  1  0.061163  0  0.103047  0.105473  0  0.992974  0
H  H10  1  0.39697676  0.87119170  0.58276530  1  0.072482  0  0.110994  0.13019  0  0.989692  0
H  H11  1  0.60565511  0.12477427  0.41675135  1  0.080094  0  0.111029  0.130454  0  0.989032  0
H  H12  1  0.01301159  0.42739171  0.67441477  1  0.416338  0  0.292968  0.284655  0  0.961194  0
H  H13  1  0.41581973  0.28904165  0.57034737  1  0.11033  0  0.126908  0.104175  0  0.97619  0
H  H14  1  0.10371476  0.47241854  0.66139277  1  0.413648  0  0.291043  0.282704  0  0.966335  0
H  H15  1  0.99503205  0.57422813  0.32514960  1  0.41578  0  0.293133  0.285749  0  0.95994  0
H  H16  1  0.90380085  0.53020561  0.33841443  1  0.409686  0  0.290568  0.281801  0  0.967836  0
H  H17  1  0.33876845  0.74301041  0.61716744  1  0.453433  0  0.320352  0.31417  0  0.924398  0
H  H18  1  0.37254334  0.65208165  0.57876365  1  0.54619  0  0.302567  0.332226  0  0.979784  0
H  H19  1  0.63554136  0.34315982  0.42523814  1  0.496826  0  0.305769  0.327977  0  0.972083  0
H  H20  1  0.66816478  0.25284612  0.38510777  1  0.453693  0  0.321757  0.315585  0  0.92244  0
H  H21  1  0.59858517  0.85949378  0.42321808  1  0.065717  0  0.110501  0.124937  0  0.99468  0
H  H22  1  0.40475805  0.13898848  0.57693689  1  0.098541  0  0.110451  0.125028  0  0.995364  0
H  H23  1  0.95253695  0.59470296  0.59717642  1  0.075997  0  0.099325  0.098838  0  0.993725  0
H  H24  1  0.05514123  0.40706776  0.40230852  1  0.085864  0  0.099269  0.099144  0  0.992954  0
H  H25  1  0.94501621  0.36734929  0.52117832  1  0.037037  0  0.101943  0.100234  0  0.98431  0
H  H26  1  0.06291181  0.63435101  0.47856687  1  0.066349  0  0.101879  0.100606  0  0.984571  0
H  H27  1  0.45846961  0.63532134  0.12329260  1  0.075762  0  0.103481  0.106072  0  0.992645  0
C  C28  1  0.51193299  0.49489674  0.64511334  1  1.570757  0  0.212562  0.588227  0  4.180069  0
C  C29  1  0.48099364  0.57290430  0.84438873  1  0.023191  0  -0.087532  -0.132752  0  3.960891  0
C  C30  1  0.45864428  0.50566958  0.11306600  1  0.098916  0  -0.000967  0.139734  0  4.122944  0
C  C31  1  0.47094808  0.50099227  0.88518873  1  0.101018  0  -0.000822  0.140928  0  4.122277  0
C  C32  1  0.45730126  0.50507314  0.03324904  1  -0.480322  0  -0.047904  -0.111787  0  4.130312  0
C  C33  1  0.46113041  0.50315826  0.96441467  1  0.038182  0  -0.048105  -0.11302  0  4.131241  0
C  C34  1  0.44080567  0.83710260  0.54849237  1  -0.019653  0  -0.092782  -0.295274  0  3.868495  0
C  C35  1  0.56278965  0.15945462  0.45153278  1  -0.014367  0  -0.092267  -0.294541  0  3.866903  0
C  C36  1  0.43913223  0.75213402  0.54875135  1  1.026385  0  0.235356  0.461982  0  4.081306  0
C  C37  1  0.56671670  0.24430639  0.45260722  1  1.027143  0  0.234886  0.459751  0  4.082623  0
C  C38  1  0.54900328  0.74808975  0.46329412  1  0.456245  0  0.050427  0.117702  0  3.97796  0
C  C39  1  0.48190712  0.50478601  0.35553405  1  1.566253  0  0.213689  0.58919  0  4.176471  0
C  C40  1  0.45681426  0.24979700  0.53793941  1  0.504736  0  0.051332  0.120572  0  3.977068  0
C  C41  1  0.55341350  0.83074452  0.45918042  1  0.035205  0  -0.100774  -0.226674  0  3.970109  0
C  C42  1  0.45042980  0.16721902  0.54113141  1  -0.039731  0  -0.100309  -0.2273  0  3.971406  0
C  C43  1  0.34135679  0.48855246  0.51477585  1  1.648486  0  0.21912  0.673782  0  4.239075  0
C  C44  1  0.66622109  0.50645954  0.48470230  1  1.612548  0  0.218787  0.674045  0  4.238873  0
C  C45  1  0.49763860  0.87697653  0.50335389  1  0.131951  0  0.013543  0.195416  0  4.147434  0
C  C46  1  0.50503666  0.12033426  0.49633820  1  0.085326  0  0.014068  0.195432  0  4.146721  0
C  C47  1  0.49933693  0.96208322  0.50102076  1  -0.419648  0  -0.033585  -0.094134  0  4.080261  0
C  C48  1  0.50194727  0.03524350  0.49805337  1  0.013341  0  -0.033106  -0.093957  0  4.080067  0
C  C49  1  0.97616682  0.55334862  0.55398168  1  -0.067182  0  -0.078775  -0.153958  0  3.625067  0
C  C50  1  0.46674871  0.57853219  0.23234907  1  0.028235  0  -0.08437  -0.092324  0  3.995016  0
C  C51  1  0.03162443  0.44840244  0.44559591  1  -0.074578  0  -0.079948  -0.154392  0  3.629364  0
C  C52  1  0.02772093  0.47313701  0.56892576  1  0.459151  0  0.097851  0.266364  0  3.732213  0
C  C53  1  0.98006102  0.52868271  0.43069843  1  0.457949  0  0.097394  0.256665  0  3.751481  0
C  C54  1  0.25185273  0.49037525  0.51400784  1  0.139934  0  -0.064106  -0.22178  0  4.010976  0
C  C55  1  0.75578911  0.50859221  0.48564108  1  0.332777  0  -0.064182  -0.220477  0  4.006538  0
C  C56  1  0.03595225  0.57522964  0.48856279  1  -0.035123  0  -0.07778  -0.133031  0  3.654821  0
C  C57  1  0.97190239  0.42648247  0.51108527  1  -0.00846  0  -0.077766  -0.133462  0  3.65045  0
C  C58  1  0.08899137  0.49674929  0.50272945  1  0.063421  0  0.001919  0.074381  0  3.813723  0
C  C59  1  0.91876997  0.50489032  0.49675497  1  0.158957  0  0.002005  0.076266  0  3.813889  0
C  C60  1  0.17643271  0.49285600  0.50825630  1  -0.402097  0  -0.039442  -0.039018  0  4.109833  0
C  C61  1  0.48739244  0.42486805  0.76855934  1  -0.030123  0  -0.084154  -0.091363  0  3.995762  0
C  C62  1  0.83125885  0.50816299  0.49141349  1  -0.671574  0  -0.039741  -0.040306  0  4.108116  0
C  C63  1  0.46072334  0.57883369  0.15407555  1  -0.079791  0  -0.086627  -0.13203  0  3.959519  0
C  C64  1  0.47382546  0.42680071  0.84585000  1  -0.105926  0  -0.086322  -0.131068  0  3.957628  0
C  C65  1  0.47154576  0.50565941  0.27151833  1  -0.00953  0  -0.01659  -0.027434  0  3.957621  0
C  C66  1  0.49858802  0.49644309  0.72859490  1  -0.011379  0  -0.017575  -0.028897  0  3.95894  0
C  C67  1  0.46816300  0.43279391  0.23119676  1  -0.078957  0  -0.084722  -0.092613  0  3.995122  0
C  C68  1  0.49486973  0.57033618  0.76718350  1  -0.063582  0  -0.085098  -0.091674  0  3.994322  0
C  C69  1  0.46122644  0.43249189  0.15307179  1  0.04664  0  -0.086589  -0.13057  0  3.960465  0
N  N70  1  0.49389024  0.70895625  0.50658990  1  -1.247778  0  -0.333568  -0.317567  0  3.425657  0
N  N71  1  0.51290376  0.28812309  0.49509731  1  -1.227165  0  -0.334124  -0.315989  0  3.426218  0
N  N72  1  0.05850911  0.43851279  0.63629951  1  -1.182284  0  -0.617299  -0.662601  0  3.263374  0
N  N73  1  0.94951998  0.56355826  0.36336808  1  -1.175123  0  -0.616904  -0.659998  0  3.269112  0
N  N74  1  0.38431848  0.71136119  0.59147230  1  -1.292778  0  -0.574024  -0.632148  0  3.290084  0
N  N75  1  0.62293470  0.28465093  0.41105706  1  -1.249695  0  -0.573185  -0.623277  0  3.293182  0
O  O76  1  0.52674075  0.56183064  0.61355897  1  -1.163219  0  -0.321522  -0.548959  0  2.33385  0
O  O77  1  0.49802110  0.43690275  0.38525834  1  -1.165281  0  -0.318353  -0.548907  0  2.356902  0
O  O78  1  0.50618170  0.42696142  0.61159668  1  -1.169715  0  -0.318031  -0.549649  0  2.337235  0
O  O79  1  0.47452602  0.57154057  0.39080633  1  -1.169956  0  -0.319867  -0.550075  0  2.3247  0
O  O80  1  0.37797715  0.55534210  0.52874992  1  -1.175248  0  -0.312796  -0.571135  0  2.317078  0
O  O81  1  0.63366341  0.43666258  0.49034828  1  -1.159267  0  -0.313514  -0.564335  0  2.295438  0
O  O82  1  0.37650679  0.42179470  0.50062982  1  -1.144216  0  -0.305406  -0.528489  0  2.250933  0
O  O83  1  0.62761716  0.57296838  0.47941592  1  -1.148201  0  -0.308178  -0.536333  0  2.267918  0
