# generated using pymatgen
data_ZnH9C12(NO2)2
_symmetry_space_group_name_H-M   'P 1'
_cell_length_a   10.40387787
_cell_length_b   10.40387775
_cell_length_c   11.18121976
_cell_angle_alpha   96.17955185
_cell_angle_beta   96.17962215
_cell_angle_gamma   100.60674748
_symmetry_Int_Tables_number   1
_chemical_formula_structural   ZnH9C12(NO2)2
_chemical_formula_sum   'Zn4 H36 C48 N8 O16'
_cell_volume   1172.56823812
_cell_formula_units_Z   4
loop_
 _symmetry_equiv_pos_site_id
 _symmetry_equiv_pos_as_xyz
  1  'x, y, z'
loop_
 _atom_site_type_symbol
 _atom_site_label
 _atom_site_symmetry_multiplicity
 _atom_site_fract_x
 _atom_site_fract_y
 _atom_site_fract_z
 _atom_site_occupancy
 _atom_site_hle17_bader_spin_density
 _atom_site_hle17_ddec_charge
 _atom_site_hle17_ddec_spin_density
 _atom_site_hle17_ddec_sum_bond_order
 _atom_site_hle17_magmom
 _atom_site_hse06_10hf_bader_spin_density
 _atom_site_hse06_10hf_ddec_charge
 _atom_site_hse06_10hf_ddec_spin_density
 _atom_site_hse06_10hf_ddec_sum_bond_order
 _atom_site_hse06_10hf_magmom
 _atom_site_hse06_bader_spin_density
 _atom_site_hse06_ddec_charge
 _atom_site_hse06_ddec_spin_density
 _atom_site_hse06_ddec_sum_bond_order
 _atom_site_hse06_magmom
 _atom_site_pbe_bader_spin_density
 _atom_site_pbe_cm5_charge
 _atom_site_pbe_ddec_charge
 _atom_site_pbe_ddec_spin_density
 _atom_site_pbe_ddec_sum_bond_order
 _atom_site_pbe_magmom
Zn  Zn0  1  0.57267325  0.84649867  0.81594090  1  0  0.9757  0  1.894378  0  0  0.802904  0  2.34297  0  0  0.848939  0  2.293846  0  0  0.666174  0.770994  0  2.376584  0
Zn  Zn1  1  0.15350161  0.42732750  0.68405950  1  0  0.975662  0  1.894407  0  0  0.80287  0  2.342981  0  0  0.848903  0  2.293858  0  0  0.666151  0.770957  0  2.376595  0
Zn  Zn2  1  0.42732567  0.15350179  0.18405844  1  0  0.975702  0  1.894337  0  0  0.802919  0  2.342896  0  0  0.848959  0  2.293775  0  0  0.666186  0.771011  0  2.376515  0
Zn  Zn3  1  0.84649828  0.57267295  0.31594082  1  0  0.975666  0  1.89439  0  0  0.80286  0  2.342974  0  0  0.848894  0  2.293855  0  0  0.666169  0.770952  0  2.376592  0
H  H4  1  0.55046565  0.09659513  0.67751794  1  0  0.080802  0  0.971822  0  0  0.088349  0  1.03731  0  0  0.090372  0  1.036217  0  0  0.118159  0.086825  0  1.038197  0
H  H5  1  0.90340392  0.44953262  0.82248072  1  0  0.080866  0  0.971759  0  0  0.088365  0  1.037295  0  0  0.090385  0  1.036208  0  0  0.118171  0.086843  0  1.038184  0
H  H6  1  0.44953245  0.90340138  0.32247913  1  0  0.08085  0  0.971778  0  0  0.088367  0  1.037295  0  0  0.09039  0  1.036203  0  0  0.11816  0.086844  0  1.038183  0
H  H7  1  0.09659459  0.55046587  0.17751570  1  0  0.080839  0  0.971761  0  0  0.08839  0  1.037244  0  0  0.090414  0  1.036148  0  0  0.118178  0.086868  0  1.038134  0
H  H8  1  0.67737723  0.21843559  0.53069302  1  0  0.127175  0  0.954697  0  0  0.132653  0  1.016531  0  0  0.13629  0  1.015275  0  0  0.114113  0.129752  0  1.018275  0
H  H9  1  0.78156405  0.32262077  0.96930568  1  0  0.127178  0  0.954701  0  0  0.132656  0  1.016537  0  0  0.136295  0  1.01528  0  0  0.114121  0.129753  0  1.018279  0
H  H10  1  0.32262108  0.78156191  0.46930507  1  0  0.127175  0  0.954724  0  0  0.13267  0  1.016532  0  0  0.136308  0  1.015274  0  0  0.114115  0.129765  0  1.018273  0
H  H11  1  0.21843466  0.67737870  0.03069175  1  0  0.127184  0  0.954663  0  0  0.132664  0  1.016504  0  0  0.136303  0  1.015244  0  0  0.114122  0.129763  0  1.018245  0
H  H12  1  0.89065306  0.15623398  0.48553142  1  0  0.10667  0  0.942692  0  0  0.117503  0  0.999873  0  0  0.120546  0  0.997426  0  0  0.110581  0.115313  0  1.001589  0
H  H13  1  0.84376585  0.10934441  0.01446886  1  0  0.106645  0  0.942668  0  0  0.117468  0  0.999859  0  0  0.120515  0  0.997412  0  0  0.110559  0.115278  0  1.001575  0
H  H14  1  0.10934779  0.84376647  0.51447079  1  0  0.106611  0  0.942719  0  0  0.117507  0  0.999833  0  0  0.120556  0  0.997382  0  0  0.110555  0.115312  0  1.001557  0
H  H15  1  0.15623286  0.89065507  0.98553035  1  0  0.106636  0  0.942695  0  0  0.117459  0  0.999883  0  0  0.120505  0  0.997437  0  0  0.11057  0.115268  0  1.0016  0
H  H16  1  0.95908600  0.96302484  0.57847005  1  0  0.102821  0  0.964728  0  0  0.113349  0  1.027835  0  0  0.115716  0  1.02783  0  0  0.108533  0.111657  0  1.028009  0
H  H17  1  0.03697547  0.04091467  0.92152871  1  0  0.102843  0  0.964765  0  0  0.113319  0  1.027924  0  0  0.115685  0  1.027921  0  0  0.108529  0.111631  0  1.02809  0
H  H18  1  0.04091602  0.03697659  0.42153237  1  0  0.102858  0  0.964714  0  0  0.113386  0  1.027811  0  0  0.115753  0  1.027804  0  0  0.108539  0.111693  0  1.027986  0
H  H19  1  0.96302461  0.95908678  0.07847084  1  0  0.102766  0  0.964775  0  0  0.113297  0  1.027876  0  0  0.115662  0  1.027872  0  0  0.108516  0.111609  0  1.028036  0
H  H20  1  0.91321988  0.78401108  0.70985865  1  0  0.098268  0  0.921818  0  0  0.10409  0  0.990208  0  0  0.108472  0  0.984429  0  0  0.121868  0.100786  0  0.994566  0
H  H21  1  0.21599047  0.08678107  0.79014213  1  0  0.098228  0  0.921834  0  0  0.104056  0  0.990233  0  0  0.108438  0  0.984455  0  0  0.121868  0.100752  0  0.994585  0
H  H22  1  0.08678193  0.21598936  0.29014544  1  0  0.098198  0  0.921881  0  0  0.104061  0  0.99025  0  0  0.108443  0  0.984472  0  0  0.121866  0.100761  0  0.994603  0
H  H23  1  0.78401058  0.91322037  0.20985841  1  0  0.098227  0  0.921834  0  0  0.104083  0  0.990216  0  0  0.108467  0  0.984436  0  0  0.121875  0.100779  0  0.994572  0
H  H24  1  0.77434582  0.66863885  0.95450969  1  0  0.089094  0  0.91402  0  0  0.107983  0  0.969412  0  0  0.108044  0  0.96996  0  0  0.113633  0.107838  0  0.969104  0
H  H25  1  0.33136118  0.22565453  0.54548997  1  0  0.089072  0  0.914021  0  0  0.107981  0  0.969419  0  0  0.10804  0  0.969969  0  0  0.113626  0.107833  0  0.969112  0
H  H26  1  0.22565290  0.33136062  0.04549131  1  0  0.089067  0  0.913942  0  0  0.107984  0  0.96934  0  0  0.108042  0  0.969891  0  0  0.11362  0.107838  0  0.969031  0
H  H27  1  0.66863891  0.77434691  0.45451048  1  0  0.08908  0  0.914038  0  0  0.107987  0  0.969424  0  0  0.108045  0  0.969975  0  0  0.113633  0.107841  0  0.969114  0
H  H28  1  0.87900732  0.63909790  0.84166014  1  0  0.066244  0  0.941786  0  0  0.080047  0  1.010001  0  0  0.080883  0  1.009026  0  0  0.102208  0.079253  0  1.010828  0
H  H29  1  0.36090320  0.12099284  0.65833968  1  0  0.066218  0  0.941799  0  0  0.080049  0  1.010016  0  0  0.080886  0  1.00904  0  0  0.102206  0.079253  0  1.010843  0
H  H30  1  0.12099200  0.36090454  0.15834211  1  0  0.066216  0  0.941738  0  0  0.080036  0  1.009981  0  0  0.080873  0  1.009004  0  0  0.102206  0.079241  0  1.010809  0
H  H31  1  0.63909688  0.87900860  0.34165987  1  0  0.066225  0  0.941772  0  0  0.08003  0  1.010003  0  0  0.080866  0  1.009027  0  0  0.102202  0.079235  0  1.010828  0
H  H32  1  0.70420250  0.55628155  0.61416376  1  0  0.105198  0  0.949899  0  0  0.115874  0  1.011248  0  0  0.118551  0  1.010449  0  0  0.10126  0.113917  0  1.011882  0
H  H33  1  0.44371907  0.29579903  0.88583521  1  0  0.105172  0  0.949866  0  0  0.115881  0  1.011185  0  0  0.118556  0  1.010386  0  0  0.101264  0.113923  0  1.011817  0
H  H34  1  0.29579951  0.44371988  0.38583688  1  0  0.105212  0  0.949866  0  0  0.115865  0  1.011246  0  0  0.118543  0  1.010446  0  0  0.101271  0.113909  0  1.011878  0
H  H35  1  0.55628101  0.70420241  0.11416523  1  0  0.105227  0  0.949827  0  0  0.115904  0  1.011176  0  0  0.11858  0  1.010378  0  0  0.101273  0.113949  0  1.011808  0
H  H36  1  0.62324024  0.48056662  0.97383360  1  0  0.106923  0  0.980714  0  0  0.113473  0  1.048553  0  0  0.117125  0  1.046215  0  0  0.101058  0.110902  0  1.050222  0
H  H37  1  0.51943408  0.37676156  0.52616540  1  0  0.10692  0  0.980741  0  0  0.113479  0  1.048563  0  0  0.11713  0  1.046225  0  0  0.101065  0.110907  0  1.050233  0
H  H38  1  0.37676061  0.51943383  0.02616682  1  0  0.106915  0  0.980733  0  0  0.11346  0  1.048578  0  0  0.117112  0  1.04624  0  0  0.101054  0.110892  0  1.050241  0
H  H39  1  0.48056696  0.62323987  0.47383424  1  0  0.106934  0  0.98076  0  0  0.113488  0  1.048586  0  0  0.11714  0  1.046247  0  0  0.101064  0.110915  0  1.050252  0
C  C40  1  0.64069731  0.07009538  0.65090623  1  0  0.150511  0  3.669922  0  0  0.118765  0  3.919114  0  0  0.12547  0  3.936626  0  0  0.064191  0.114539  0  3.907175  0
C  C41  1  0.92990529  0.35929983  0.84909254  1  0  0.150409  0  3.669881  0  0  0.118701  0  3.919096  0  0  0.125407  0  3.936608  0  0  0.064151  0.114474  0  3.907164  0
C  C42  1  0.35930023  0.92990311  0.34909188  1  0  0.15041  0  3.670019  0  0  0.118685  0  3.919221  0  0  0.125392  0  3.936734  0  0  0.064146  0.114459  0  3.907285  0
C  C43  1  0.07009419  0.64069865  0.15090397  1  0  0.150427  0  3.669816  0  0  0.118678  0  3.91902  0  0  0.125384  0  3.936531  0  0  0.064113  0.114453  0  3.907088  0
C  C44  1  0.71274900  0.13828412  0.57062874  1  0  -0.088452  0  3.650202  0  0  -0.099431  0  3.895544  0  0  -0.105173  0  3.915469  0  0  -0.063994  -0.096421  0  3.883338  0
C  C45  1  0.86171458  0.28724833  0.92936986  1  0  -0.088419  0  3.65011  0  0  -0.099397  0  3.895447  0  0  -0.105138  0  3.915368  0  0  -0.063976  -0.096381  0  3.883242  0
C  C46  1  0.28725124  0.86171336  0.42937043  1  0  -0.088419  0  3.650205  0  0  -0.099407  0  3.895537  0  0  -0.10515  0  3.915464  0  0  -0.06396  -0.096391  0  3.883325  0
C  C47  1  0.13828296  0.71275017  0.07062735  1  0  -0.088418  0  3.650029  0  0  -0.099414  0  3.895393  0  0  -0.105156  0  3.915313  0  0  -0.063936  -0.096399  0  3.883186  0
C  C48  1  0.82977005  0.10137827  0.54401204  1  0  0.003179  0  3.686274  0  0  -0.015614  0  3.937271  0  0  -0.01314  0  3.956021  0  0  -0.060819  -0.016929  0  3.924649  0
C  C49  1  0.89862164  0.17022847  0.95598599  1  0  0.003219  0  3.686191  0  0  -0.015566  0  3.937162  0  0  -0.0131  0  3.955921  0  0  -0.060801  -0.016883  0  3.924541  0
C  C50  1  0.17022963  0.89862120  0.45598817  1  0  0.003238  0  3.686266  0  0  -0.015607  0  3.937255  0  0  -0.013141  0  3.956014  0  0  -0.060815  -0.016919  0  3.924628  0
C  C51  1  0.10137824  0.82977199  0.04401254  1  0  0.003233  0  3.686143  0  0  -0.015536  0  3.937116  0  0  -0.013066  0  3.95587  0  0  -0.060811  -0.016849  0  3.924489  0
C  C52  1  0.86904929  0.99654733  0.59643836  1  0  -0.143581  0  3.713433  0  0  -0.166683  0  3.967026  0  0  -0.173465  0  3.990258  0  0  -0.077025  -0.162574  0  3.95144  0
C  C53  1  0.00345210  0.13094930  0.90356004  1  0  -0.143582  0  3.713455  0  0  -0.166613  0  3.967037  0  0  -0.173397  0  3.99027  0  0  -0.076973  -0.162505  0  3.951454  0
C  C54  1  0.13095135  0.00345213  0.40356284  1  0  -0.143622  0  3.713462  0  0  -0.166721  0  3.967051  0  0  -0.173504  0  3.990285  0  0  -0.077021  -0.16261  0  3.951459  0
C  C55  1  0.99654661  0.86905018  0.09643918  1  0  -0.143552  0  3.713425  0  0  -0.166635  0  3.967003  0  0  -0.173417  0  3.990234  0  0  -0.076988  -0.162522  0  3.951414  0
C  C56  1  0.79061314  0.93264548  0.67439513  1  0  0.182236  0  3.818587  0  0  0.183023  0  4.062293  0  0  0.187108  0  4.08419  0  0  0.114017  0.180352  0  4.047264  0
C  C57  1  0.06735510  0.20938436  0.82560684  1  0  0.182326  0  3.818176  0  0  0.18309  0  4.06193  0  0  0.187177  0  4.083819  0  0  0.11402  0.180421  0  4.046903  0
C  C58  1  0.20938654  0.06735399  0.32560597  1  0  0.182236  0  3.818496  0  0  0.183055  0  4.062206  0  0  0.187141  0  4.084102  0  0  0.114024  0.180384  0  4.047177  0
C  C59  1  0.93264555  0.79061510  0.17439347  1  0  0.182356  0  3.818209  0  0  0.183134  0  4.061972  0  0  0.187219  0  4.083865  0  0  0.11405  0.180464  0  4.046946  0
C  C60  1  0.82517209  0.82112550  0.73230783  1  0  0.09279  0  3.637786  0  0  0.052548  0  3.890952  0  0  0.062265  0  3.901943  0  0  0.088129  0.046125  0  3.883469  0
C  C61  1  0.17887687  0.17483254  0.76768975  1  0  0.092718  0  3.638042  0  0  0.052452  0  3.891274  0  0  0.062166  0  3.902269  0  0  0.088084  0.046028  0  3.883786  0
C  C62  1  0.17482993  0.17887593  0.26769281  1  0  0.092809  0  3.637896  0  0  0.052464  0  3.891147  0  0  0.062179  0  3.902141  0  0  0.088077  0.046041  0  3.883663  0
C  C63  1  0.82112438  0.82516988  0.23230912  1  0  0.092783  0  3.637866  0  0  0.052444  0  3.891138  0  0  0.062158  0  3.902132  0  0  0.088112  0.046023  0  3.883652  0
C  C64  1  0.77868821  0.65222166  0.85639953  1  0  -0.021021  0  3.690915  0  0  -0.082485  0  3.94933  0  0  -0.078247  0  3.961056  0  0  -0.056017  -0.084917  0  3.941194  0
C  C65  1  0.34777829  0.22131030  0.64360084  1  0  -0.020966  0  3.690794  0  0  -0.082522  0  3.949295  0  0  -0.078284  0  3.961021  0  0  -0.056016  -0.084955  0  3.941157  0
C  C66  1  0.22131188  0.34777978  0.14360359  1  0  -0.02089  0  3.69066  0  0  -0.08249  0  3.949192  0  0  -0.078246  0  3.96092  0  0  -0.056018  -0.084921  0  3.941057  0
C  C67  1  0.65222255  0.77869015  0.35639868  1  0  -0.021003  0  3.690822  0  0  -0.082497  0  3.949274  0  0  -0.078259  0  3.960999  0  0  -0.05601  -0.084927  0  3.941134  0
C  C68  1  0.67455724  0.53299303  0.80092693  1  0  0.052628  0  3.758659  0  0  0.075547  0  3.996009  0  0  0.072921  0  4.022446  0  0  -0.016264  0.076677  0  3.978421  0
C  C69  1  0.46700850  0.32544321  0.69907202  1  0  0.052615  0  3.758599  0  0  0.075577  0  3.995935  0  0  0.07295  0  4.022376  0  0  -0.016252  0.076709  0  3.978342  0
C  C70  1  0.32544402  0.46700939  0.19907284  1  0  0.052474  0  3.758823  0  0  0.075502  0  3.996091  0  0  0.072852  0  4.022561  0  0  -0.016254  0.076631  0  3.978507  0
C  C71  1  0.53299158  0.67455823  0.30092843  1  0  0.052705  0  3.758458  0  0  0.075588  0  3.995876  0  0  0.072965  0  4.022309  0  0  -0.016238  0.076719  0  3.97829  0
C  C72  1  0.64694617  0.50097915  0.67479487  1  0  -0.104995  0  3.728387  0  0  -0.127438  0  3.978868  0  0  -0.130274  0  4.001638  0  0  -0.093564  -0.124733  0  3.963584  0
C  C73  1  0.49902137  0.35305472  0.82520313  1  0  -0.104984  0  3.728429  0  0  -0.127462  0  3.978894  0  0  -0.130296  0  4.001665  0  0  -0.093549  -0.124755  0  3.963602  0
C  C74  1  0.35305391  0.49902229  0.32520468  1  0  -0.104894  0  3.728366  0  0  -0.127345  0  3.978803  0  0  -0.130171  0  4.001577  0  0  -0.093535  -0.124636  0  3.963513  0
C  C75  1  0.50097562  0.64694576  0.17479601  1  0  -0.105091  0  3.728473  0  0  -0.127525  0  3.978967  0  0  -0.130357  0  4.001729  0  0  -0.093604  -0.124817  0  3.963683  0
C  C76  1  0.60103305  0.45749149  0.87555084  1  0  -0.113099  0  3.744394  0  0  -0.131594  0  3.992724  0  0  -0.134295  0  4.014184  0  0  -0.092649  -0.129984  0  3.978646  0
C  C77  1  0.54250908  0.39896856  0.62444723  1  0  -0.113069  0  3.744288  0  0  -0.131575  0  3.992594  0  0  -0.134273  0  4.014053  0  0  -0.092629  -0.129962  0  3.978516  0
C  C78  1  0.39896683  0.54250897  0.12444948  1  0  -0.113014  0  3.744594  0  0  -0.131529  0  3.992873  0  0  -0.134221  0  4.014342  0  0  -0.092609  -0.129914  0  3.978795  0
C  C79  1  0.45749120  0.60103386  0.37555333  1  0  -0.113188  0  3.744336  0  0  -0.131666  0  3.992668  0  0  -0.134368  0  4.014126  0  0  -0.092672  -0.130051  0  3.978586  0
C  C80  1  0.55961292  0.98848777  0.04425019  1  0  0.534371  0  3.909136  0  0  0.495136  0  4.195712  0  0  0.524901  0  4.188787  0  0  0.198536  0.474734  0  4.200162  0
C  C81  1  0.01151238  0.44038688  0.45574969  1  0  0.534393  0  3.909204  0  0  0.495167  0  4.195762  0  0  0.524933  0  4.188837  0  0  0.198547  0.474767  0  4.200214  0
C  C82  1  0.44038656  0.01151071  0.95574900  1  0  0.534419  0  3.909196  0  0  0.495194  0  4.195751  0  0  0.524961  0  4.188826  0  0  0.198563  0.474791  0  4.200202  0
C  C83  1  0.98848846  0.55961357  0.54424984  1  0  0.53439  0  3.909146  0  0  0.495164  0  4.195703  0  0  0.524929  0  4.188782  0  0  0.198535  0.474761  0  4.200157  0
C  C84  1  0.36017190  0.62806239  0.81800783  1  0  0.529347  0  3.919372  0  0  0.487901  0  4.205602  0  0  0.517439  0  4.199823  0  0  0.202403  0.467848  0  4.2086  0
C  C85  1  0.37194120  0.63983219  0.68199592  1  0  0.529125  0  3.919568  0  0  0.487709  0  4.205779  0  0  0.517246  0  4.200002  0  0  0.202325  0.467654  0  4.208778  0
C  C86  1  0.63982936  0.37194003  0.18199462  1  0  0.529168  0  3.919501  0  0  0.487736  0  4.205732  0  0  0.517274  0  4.199956  0  0  0.202347  0.467683  0  4.208735  0
C  C87  1  0.62805848  0.36016728  0.31800518  1  0  0.52923  0  3.919484  0  0  0.487779  0  4.205742  0  0  0.517316  0  4.199967  0  0  0.20237  0.467725  0  4.208746  0
N  N88  1  0.67857834  0.97024067  0.70141762  1  0  -0.330102  0  3.251598  0  0  -0.260192  0  3.508736  0  0  -0.276707  0  3.524722  0  0  -0.308037  -0.248643  0  3.497489  0
N  N89  1  0.02975921  0.32142099  0.79858169  1  0  -0.330251  0  3.251465  0  0  -0.260334  0  3.508614  0  0  -0.276847  0  3.524592  0  0  -0.308104  -0.248783  0  3.497372  0
N  N90  1  0.32142073  0.02975583  0.29858133  1  0  -0.330112  0  3.25168  0  0  -0.260212  0  3.508801  0  0  -0.27673  0  3.52479  0  0  -0.308031  -0.248664  0  3.497559  0
N  N91  1  0.97024143  0.67857847  0.20141592  1  0  -0.330225  0  3.251417  0  0  -0.260294  0  3.508551  0  0  -0.276807  0  3.524535  0  0  -0.308101  -0.248745  0  3.497314  0
N  N92  1  0.74967172  0.76758320  0.80416434  1  0  -0.268219  0  3.198979  0  0  -0.191521  0  3.470833  0  0  -0.20865  0  3.486522  0  0  -0.307791  -0.180184  0  3.460189  0
N  N93  1  0.23241475  0.25032606  0.69583926  1  0  -0.268037  0  3.199181  0  0  -0.191321  0  3.471051  0  0  -0.208447  0  3.486741  0  0  -0.307728  -0.179983  0  3.460401  0
N  N94  1  0.25032680  0.23241529  0.19584013  1  0  -0.268149  0  3.198927  0  0  -0.191387  0  3.470811  0  0  -0.208512  0  3.486496  0  0  -0.307734  -0.180052  0  3.460169  0
N  N95  1  0.76758472  0.74967242  0.30416262  1  0  -0.268153  0  3.199099  0  0  -0.191392  0  3.470952  0  0  -0.208518  0  3.486641  0  0  -0.307775  -0.180055  0  3.460307  0
O  O96  1  0.64624709  0.93565932  0.99726342  1  0  -0.592962  0  2.050169  0  0  -0.542129  0  2.305748  0  0  -0.56673  0  2.294394  0  0  -0.318463  -0.524661  0  2.312597  0
O  O97  1  0.06434032  0.35375238  0.50273678  1  0  -0.592991  0  2.050184  0  0  -0.542172  0  2.305772  0  0  -0.566771  0  2.294419  0  0  -0.318482  -0.524697  0  2.312612  0
O  O98  1  0.35375162  0.06434016  0.00273669  1  0  -0.592986  0  2.05015  0  0  -0.542158  0  2.305721  0  0  -0.56676  0  2.294369  0  0  -0.318485  -0.52469  0  2.31257  0
O  O99  1  0.93565956  0.64624807  0.49726354  1  0  -0.592954  0  2.050202  0  0  -0.542136  0  2.305799  0  0  -0.566737  0  2.294451  0  0  -0.318454  -0.524657  0  2.312629  0
O  O100  1  0.56235861  0.02432371  0.15652367  1  0  -0.583073  0  2.043083  0  0  -0.529821  0  2.288293  0  0  -0.554021  0  2.277601  0  0  -0.316031  -0.513115  0  2.295502  0
O  O101  1  0.97567750  0.43764103  0.34347685  1  0  -0.583089  0  2.043155  0  0  -0.529833  0  2.28836  0  0  -0.554032  0  2.277664  0  0  -0.316025  -0.513126  0  2.295568  0
O  O102  1  0.43764030  0.97567675  0.84347656  1  0  -0.5831  0  2.043184  0  0  -0.529848  0  2.288383  0  0  -0.554044  0  2.277682  0  0  -0.316033  -0.513143  0  2.295591  0
O  O103  1  0.02432335  0.56235941  0.65652447  1  0  -0.583092  0  2.043069  0  0  -0.529839  0  2.288271  0  0  -0.554037  0  2.277578  0  0  -0.316038  -0.513131  0  2.295479  0
O  O104  1  0.44514664  0.70474759  0.89576489  1  0  -0.573209  0  2.072115  0  0  -0.512206  0  2.316885  0  0  -0.538963  0  2.310138  0  0  -0.303425  -0.493481  0  2.321087  0
O  O105  1  0.29525370  0.55485499  0.60423750  1  0  -0.57312  0  2.072139  0  0  -0.512123  0  2.316904  0  0  -0.53888  0  2.310162  0  0  -0.303398  -0.493397  0  2.321105  0
O  O106  1  0.55485365  0.29525484  0.10423746  1  0  -0.573139  0  2.072166  0  0  -0.512136  0  2.316934  0  0  -0.538895  0  2.310194  0  0  -0.303411  -0.49341  0  2.321138  0
O  O107  1  0.70474522  0.44514548  0.39576363  1  0  -0.573113  0  2.072076  0  0  -0.512111  0  2.316867  0  0  -0.538869  0  2.310127  0  0  -0.303393  -0.493385  0  2.32107  0
O  O108  1  0.26572192  0.54260170  0.84173205  1  0  -0.585199  0  2.067903  0  0  -0.529984  0  2.319996  0  0  -0.555334  0  2.31072  0  0  -0.310774  -0.511844  0  2.325523  0
O  O109  1  0.45739835  0.73427787  0.65826913  1  0  -0.585164  0  2.068038  0  0  -0.529975  0  2.320124  0  0  -0.555323  0  2.310848  0  0  -0.310786  -0.511832  0  2.32564  0
O  O110  1  0.73427699  0.45739876  0.15826908  1  0  -0.585158  0  2.067973  0  0  -0.529951  0  2.320053  0  0  -0.5553  0  2.310779  0  0  -0.31078  -0.51181  0  2.325583  0
O  O111  1  0.54260133  0.26572160  0.34173108  1  0  -0.585172  0  2.067999  0  0  -0.529979  0  2.320102  0  0  -0.555326  0  2.31083  0  0  -0.310788  -0.511833  0  2.325623  0
