# generated using pymatgen
data_RbH6C6NO4
_symmetry_space_group_name_H-M   'P 1'
_cell_length_a   7.26563981
_cell_length_b   11.06332513
_cell_length_c   19.72400000
_cell_angle_alpha   90.00000000
_cell_angle_beta   90.00000000
_cell_angle_gamma   90.00000000
_symmetry_Int_Tables_number   1
_chemical_formula_structural   RbH6C6NO4
_chemical_formula_sum   'Rb8 H48 C48 N8 O32'
_cell_volume   1585.45724001
_cell_formula_units_Z   8
loop_
 _symmetry_equiv_pos_site_id
 _symmetry_equiv_pos_as_xyz
  1  'x, y, z'
loop_
 _atom_site_type_symbol
 _atom_site_label
 _atom_site_symmetry_multiplicity
 _atom_site_fract_x
 _atom_site_fract_y
 _atom_site_fract_z
 _atom_site_occupancy
 _atom_site_hle17_bader_spin_density
 _atom_site_hle17_ddec_charge
 _atom_site_hle17_ddec_spin_density
 _atom_site_hle17_ddec_sum_bond_order
 _atom_site_hle17_magmom
 _atom_site_hse06_10hf_bader_spin_density
 _atom_site_hse06_10hf_ddec_charge
 _atom_site_hse06_10hf_ddec_spin_density
 _atom_site_hse06_10hf_ddec_sum_bond_order
 _atom_site_hse06_10hf_magmom
 _atom_site_hse06_bader_spin_density
 _atom_site_hse06_ddec_charge
 _atom_site_hse06_ddec_spin_density
 _atom_site_hse06_ddec_sum_bond_order
 _atom_site_hse06_magmom
 _atom_site_pbe_bader_charge
 _atom_site_pbe_bader_spin_density
 _atom_site_pbe_cm5_charge
 _atom_site_pbe_ddec_charge
 _atom_site_pbe_ddec_spin_density
 _atom_site_pbe_ddec_sum_bond_order
 _atom_site_pbe_magmom
Rb  Rb0  1  0.90958541  0.15775095  0.48160110  1  0  0.93601  0  0.527558  0  0  0.881622  0  0.751283  0  0  0.897555  0  0.725981  0  0.894235  0  0.821166  0.869966  0  0.769126  0
Rb  Rb1  1  0.40958678  0.34224611  0.51839840  1  0  0.936014  0  0.527519  0  0  0.881625  0  0.751268  0  0  0.897558  0  0.725966  0  0.894222  0  0.821168  0.86996  0  0.769129  0
Rb  Rb2  1  0.09041461  0.65775162  0.01839789  1  0  0.936007  0  0.52751  0  0  0.881623  0  0.751226  0  0  0.897555  0  0.725922  0  0.894234  0  0.821168  0.869943  0  0.769115  0
Rb  Rb3  1  0.59041462  0.84224678  0.98160211  1  0  0.936012  0  0.527499  0  0  0.881636  0  0.751206  0  0  0.897568  0  0.725904  0  0.89422  0  0.821167  0.869967  0  0.769073  0
Rb  Rb4  1  0.09041048  0.84224588  0.51839840  1  0  0.936018  0  0.527502  0  0  0.881627  0  0.751231  0  0  0.897558  0  0.725929  0  0.894252  0  0.82117  0.869954  0  0.769108  0
Rb  Rb5  1  0.59041600  0.65775162  0.48160160  1  0  0.93601  0  0.52752  0  0  0.881632  0  0.751228  0  0  0.897565  0  0.725925  0  0.894222  0  0.821186  0.869967  0  0.769089  0
Rb  Rb6  1  0.90958541  0.34224701  0.98160160  1  0  0.936018  0  0.527501  0  0  0.881637  0  0.751252  0  0  0.897569  0  0.725949  0  0.894216  0  0.821169  0.869967  0  0.769122  0
Rb  Rb7  1  0.40958127  0.15775366  0.01839941  1  0  0.936015  0  0.527542  0  0  0.881649  0  0.751241  0  0  0.897581  0  0.725941  0  0.894229  0  0.821168  0.870002  0  0.769069  0
H  H8  1  0.48137949  0.94322818  0.65390692  1  0  0.11692  0  0.952094  0  0  0.124754  0  1.01627  0  0  0.129205  0  1.014049  0  0.120152  0  0.107581  0.121567  0  1.018119  0
H  H9  1  0.98137813  0.55677203  0.34609562  1  0  0.11698  0  0.952029  0  0  0.124805  0  1.016177  0  0  0.129256  0  1.013956  0  0.120217  0  0.107639  0.121619  0  1.018026  0
H  H10  1  0.51862742  0.44322841  0.84609968  1  0  0.116993  0  0.951919  0  0  0.124791  0  1.016145  0  0  0.12924  0  1.013923  0  0.120159  0  0.107623  0.121605  0  1.017993  0
H  H11  1  0.01861639  0.05676955  0.15389880  1  0  0.11705  0  0.951976  0  0  0.124868  0  1.016125  0  0  0.129318  0  1.013905  0  0.119819  0  0.107642  0.121683  0  1.017972  0
H  H12  1  0.51862466  0.05677407  0.34609968  1  0  0.117006  0  0.951925  0  0  0.124804  0  1.016107  0  0  0.129253  0  1.013887  0  0.11982  0  0.107616  0.121618  0  1.017954  0
H  H13  1  0.01861226  0.44323022  0.65389678  1  0  0.11703  0  0.951974  0  0  0.124858  0  1.016133  0  0  0.129308  0  1.013912  0  0.119813  0  0.107636  0.121671  0  1.017979  0
H  H14  1  0.48137949  0.55677565  0.15390590  1  0  0.116907  0  0.95209  0  0  0.124763  0  1.016194  0  0  0.129213  0  1.013975  0  0.120113  0  0.107626  0.121577  0  1.018043  0
H  H15  1  0.98137951  0.94322456  0.84609511  1  0  0.116947  0  0.952017  0  0  0.124763  0  1.016212  0  0  0.129214  0  1.013992  0  0.120089  0  0.107634  0.121577  0  1.01806  0
H  H16  1  0.48530757  0.95214503  0.78025806  1  0  0.100427  0  0.974465  0  0  0.107627  0  1.042149  0  0  0.110616  0  1.03945  0  0.101335  0  0.108044  0.105438  0  1.044044  0
H  H17  1  0.98531171  0.54785699  0.21974397  1  0  0.1005  0  0.974446  0  0  0.107651  0  1.042163  0  0  0.110639  0  1.039465  0  0.101368  0  0.108071  0.105459  0  1.044064  0
H  H18  1  0.51470484  0.45214435  0.71974650  1  0  0.100398  0  0.97454  0  0  0.107642  0  1.042187  0  0  0.110631  0  1.039486  0  0.101324  0  0.10803  0.105451  0  1.044083  0
H  H19  1  0.01470208  0.04785089  0.28025147  1  0  0.100507  0  0.974371  0  0  0.10765  0  1.04206  0  0  0.11064  0  1.039359  0  0.101447  0  0.108012  0.105489  0  1.04393  0
H  H20  1  0.51470347  0.04785451  0.21974802  1  0  0.100476  0  0.974426  0  0  0.107627  0  1.042127  0  0  0.110616  0  1.039427  0  0.101382  0  0.108023  0.105461  0  1.043998  0
H  H21  1  0.01470896  0.45214707  0.78024995  1  0  0.100419  0  0.974385  0  0  0.10764  0  1.042047  0  0  0.11063  0  1.039346  0  0.101463  0  0.108038  0.105456  0  1.043937  0
H  H22  1  0.48529105  0.54785066  0.28025806  1  0  0.10047  0  0.974497  0  0  0.107661  0  1.042189  0  0  0.110652  0  1.039486  0  0.10134  0  0.108069  0.105497  0  1.044052  0
H  H23  1  0.98529244  0.95214774  0.71974295  1  0  0.10044  0  0.974516  0  0  0.107635  0  1.042214  0  0  0.110624  0  1.039512  0  0.101275  0  0.10806  0.10547  0  1.044079  0
H  H24  1  0.72396652  0.30829068  0.77298520  1  0  0.105922  0  0.952383  0  0  0.114848  0  1.014994  0  0  0.117737  0  1.012465  0  0.114796  0  0.111084  0.112679  0  1.016875  0
H  H25  1  0.22396789  0.19171090  0.22701582  1  0  0.105899  0  0.952411  0  0  0.114821  0  1.015023  0  0  0.11771  0  1.012494  0  0.114804  0  0.111082  0.11267  0  1.016884  0
H  H26  1  0.27602800  0.80828593  0.72701683  1  0  0.105842  0  0.952438  0  0  0.114847  0  1.014969  0  0  0.11774  0  1.012433  0  0.11474  0  0.111099  0.112658  0  1.016875  0
H  H27  1  0.77604315  0.69170615  0.27298114  1  0  0.105897  0  0.952426  0  0  0.114845  0  1.014971  0  0  0.117735  0  1.012437  0  0.11472  0  0.111106  0.112677  0  1.016851  0
H  H28  1  0.27603488  0.69170976  0.22701937  1  0  0.105895  0  0.952476  0  0  0.114874  0  1.014982  0  0  0.117763  0  1.012452  0  0.114737  0  0.11109  0.112719  0  1.016848  0
H  H29  1  0.77605141  0.80829045  0.77298266  1  0  0.105856  0  0.95254  0  0  0.114842  0  1.01508  0  0  0.117731  0  1.012549  0  0.114858  0  0.111106  0.11269  0  1.016941  0
H  H30  1  0.72396240  0.19170999  0.27298570  1  0  0.105912  0  0.952404  0  0  0.114846  0  1.015005  0  0  0.117736  0  1.012473  0  0.114827  0  0.111107  0.112668  0  1.016899  0
H  H31  1  0.22396101  0.30828797  0.72701328  1  0  0.105941  0  0.95243  0  0  0.114889  0  1.015012  0  0  0.117779  0  1.012482  0  0.114826  0  0.111128  0.11271  0  1.016907  0
H  H32  1  0.71927320  0.30225723  0.64640337  1  0  0.116292  0  0.946879  0  0  0.124889  0  1.011841  0  0  0.128951  0  1.010718  0  0.062403  0  0.111337  0.121993  0  1.012871  0
H  H33  1  0.21927594  0.19774164  0.35359815  1  0  0.116267  0  0.946848  0  0  0.12484  0  1.011826  0  0  0.128911  0  1.010694  0  0.062374  0  0.111318  0.121944  0  1.012856  0
H  H34  1  0.28071031  0.80225519  0.85359968  1  0  0.11621  0  0.946848  0  0  0.124814  0  1.011806  0  0  0.128883  0  1.010678  0  0.062379  0  0.111324  0.121919  0  1.012833  0
H  H35  1  0.78072959  0.69773598  0.14639830  1  0  0.116249  0  0.946901  0  0  0.124841  0  1.011854  0  0  0.128904  0  1.01073  0  0.062307  0  0.111317  0.121943  0  1.01288  0
H  H36  1  0.28071306  0.69774502  0.35360170  1  0  0.116266  0  0.946863  0  0  0.124833  0  1.011815  0  0  0.128903  0  1.010686  0  0.062363  0  0.111323  0.121938  0  1.012845  0
H  H37  1  0.78071996  0.80226242  0.64640032  1  0  0.116265  0  0.946899  0  0  0.124859  0  1.01186  0  0  0.12893  0  1.010728  0  0.062379  0  0.111325  0.121964  0  1.012887  0
H  H38  1  0.71928008  0.19774615  0.14640286  1  0  0.116284  0  0.946909  0  0  0.124879  0  1.011866  0  0  0.128924  0  1.010764  0  0.062435  0  0.111336  0.121983  0  1.012897  0
H  H39  1  0.21927869  0.30225542  0.85359613  1  0  0.116294  0  0.94691  0  0  0.124893  0  1.011871  0  0  0.128941  0  1.010764  0  0.062426  0  0.111337  0.121996  0  1.012903  0
H  H40  1  0.84868919  0.48609075  0.54172277  1  0  0.401988  0  0.916099  0  0  0.375659  0  0.974115  0  0  0.386267  0  0.958609  0  0.629023  0  0.279727  0.368192  0  0.985009  0
H  H41  1  0.34869193  0.01390812  0.45827773  1  0  0.401933  0  0.916177  0  0  0.3756  0  0.974192  0  0  0.386208  0  0.958687  0  0.62901  0  0.279714  0.368134  0  0.985085  0
H  H42  1  0.15131083  0.98609142  0.95827520  1  0  0.401978  0  0.916108  0  0  0.375628  0  0.974168  0  0  0.386238  0  0.95866  0  0.62898  0  0.279704  0.36816  0  0.985065  0
H  H43  1  0.65130672  0.51390879  0.04172430  1  0  0.40194  0  0.916166  0  0  0.375617  0  0.974171  0  0  0.386226  0  0.958664  0  0.628979  0  0.279711  0.368151  0  0.985065  0
H  H44  1  0.15130670  0.51390788  0.45827621  1  0  0.401942  0  0.916158  0  0  0.375624  0  0.974154  0  0  0.386233  0  0.958647  0  0.628985  0  0.279721  0.368157  0  0.985049  0
H  H45  1  0.65130809  0.98608961  0.54172531  1  0  0.401998  0  0.916077  0  0  0.375654  0  0.974125  0  0  0.386263  0  0.958618  0  0.628988  0  0.279726  0.368187  0  0.98502  0
H  H46  1  0.84869057  0.01390992  0.04172277  1  0  0.402013  0  0.916068  0  0  0.375684  0  0.974077  0  0  0.386292  0  0.958571  0  0.629026  0  0.279742  0.368217  0  0.984972  0
H  H47  1  0.34868918  0.48609075  0.95827723  1  0  0.401995  0  0.91609  0  0  0.375674  0  0.97409  0  0  0.386283  0  0.958584  0  0.629024  0  0.279736  0.368208  0  0.984983  0
H  H48  1  0.88749101  0.41348600  0.47547252  1  0  0.399248  0  0.916494  0  0  0.371288  0  0.977741  0  0  0.381628  0  0.962478  0  0.631783  0  0.280927  0.363999  0  0.988495  0
H  H49  1  0.38749100  0.08651287  0.52452799  1  0  0.399436  0  0.916267  0  0  0.371396  0  0.977595  0  0  0.381733  0  0.962336  0  0.631773  0  0.280989  0.364104  0  0.988354  0
H  H50  1  0.11250902  0.91348757  0.02452596  1  0  0.399201  0  0.916542  0  0  0.371218  0  0.977827  0  0  0.381556  0  0.962565  0  0.631802  0  0.280897  0.36393  0  0.988576  0
H  H51  1  0.61250765  0.58651354  0.97547353  1  0  0.399232  0  0.916503  0  0  0.371272  0  0.977753  0  0  0.381611  0  0.962491  0  0.631793  0  0.280908  0.363982  0  0.988508  0
H  H52  1  0.11250627  0.58651264  0.52452647  1  0  0.399205  0  0.91654  0  0  0.371224  0  0.977824  0  0  0.381564  0  0.96256  0  0.631783  0  0.28089  0.363934  0  0.988578  0
H  H53  1  0.61250765  0.91348757  0.47547455  1  0  0.399241  0  0.916502  0  0  0.371259  0  0.977781  0  0  0.381598  0  0.962517  0  0.631793  0  0.280913  0.36397  0  0.988533  0
H  H54  1  0.88748963  0.08651197  0.97547201  1  0  0.399454  0  0.91624  0  0  0.371435  0  0.977553  0  0  0.381773  0  0.96229  0  0.63178  0  0.280988  0.364145  0  0.988307  0
H  H55  1  0.38748962  0.41348690  0.02452748  1  0  0.399366  0  0.916341  0  0  0.371336  0  0.977679  0  0  0.381675  0  0.962414  0  0.631791  0  0.280957  0.364045  0  0.988434  0
C  C56  1  0.59446244  0.12389765  0.64064997  1  0  0.415039  0  3.858795  0  0  0.398445  0  4.127167  0  0  0.420435  0  4.137709  0  0.689114  0  0.097481  0.383859  0  4.119408  0
C  C57  1  0.09446518  0.37610302  0.35935206  1  0  0.414842  0  3.858945  0  0  0.398344  0  4.127174  0  0  0.420337  0  4.137716  0  0.689249  0  0.097471  0.383758  0  4.119416  0
C  C58  1  0.40552932  0.62389561  0.85935409  1  0  0.41481  0  3.858666  0  0  0.398186  0  4.127056  0  0  0.420179  0  4.137599  0  0.688978  0  0.097376  0.383601  0  4.119301  0
C  C59  1  0.90553209  0.87610098  0.14064389  1  0  0.415016  0  3.858691  0  0  0.398402  0  4.126914  0  0  0.420396  0  4.137454  0  0.689394  0  0.097463  0.383815  0  4.119158  0
C  C60  1  0.40553483  0.87610550  0.35935459  1  0  0.414948  0  3.858712  0  0  0.398317  0  4.126974  0  0  0.420309  0  4.137517  0  0.689248  0  0.097435  0.383732  0  4.119215  0
C  C61  1  0.90553622  0.62390284  0.64064439  1  0  0.415069  0  3.858456  0  0  0.398459  0  4.126819  0  0  0.420452  0  4.13736  0  0.689432  0  0.097439  0.383873  0  4.11906  0
C  C62  1  0.59446933  0.37610754  0.14064997  1  0  0.414971  0  3.858827  0  0  0.398344  0  4.127232  0  0  0.42033  0  4.13778  0  0.689234  0  0.097456  0.383758  0  4.11948  0
C  C63  1  0.09447069  0.12389313  0.85934952  1  0  0.415005  0  3.858813  0  0  0.398378  0  4.127204  0  0  0.420366  0  4.137749  0  0.689109  0  0.097474  0.383792  0  4.11945  0
C  C64  1  0.53350567  0.02293795  0.68027631  1  0  -0.198872  0  3.678666  0  0  -0.218624  0  3.93546  0  0  -0.231787  0  3.9563  0  -0.092443  0  -0.104645  -0.210198  0  3.921463  0
C  C65  1  0.03350840  0.47706182  0.31972470  1  0  -0.198838  0  3.6789  0  0  -0.218617  0  3.935625  0  0  -0.231783  0  3.956467  0  -0.092717  0  -0.104663  -0.210187  0  3.921619  0
C  C66  1  0.46648748  0.52293772  0.81972470  1  0  -0.198887  0  3.678829  0  0  -0.218653  0  3.935647  0  0  -0.231817  0  3.956495  0  -0.092818  0  -0.104774  -0.210224  0  3.921642  0
C  C67  1  0.96648612  0.97705887  0.18027226  1  0  -0.199102  0  3.678793  0  0  -0.218892  0  3.935491  0  0  -0.232055  0  3.956326  0  -0.092465  0  -0.104818  -0.210466  0  3.921506  0
C  C68  1  0.46649161  0.97705978  0.31972825  1  0  -0.19904  0  3.67886  0  0  -0.21876  0  3.935548  0  0  -0.231922  0  3.956384  0  -0.092434  0  -0.104784  -0.210331  0  3.921547  0
C  C69  1  0.96649300  0.52294133  0.68027124  1  0  -0.199132  0  3.678633  0  0  -0.218857  0  3.935416  0  0  -0.232021  0  3.956251  0  -0.0925  0  -0.10475  -0.210435  0  3.92143  0
C  C70  1  0.53350842  0.47706272  0.18027682  1  0  -0.198668  0  3.678914  0  0  -0.21847  0  3.935655  0  0  -0.231632  0  3.956504  0  -0.092624  0  -0.104617  -0.210043  0  3.921654  0
C  C71  1  0.03350978  0.02293614  0.81972470  1  0  -0.198698  0  3.678778  0  0  -0.218476  0  3.935564  0  0  -0.231637  0  3.956408  0  -0.092498  0  -0.104645  -0.210054  0  3.921574  0
C  C72  1  0.53592252  0.02718803  0.74994524  1  0  -0.069632  0  3.771286  0  0  -0.091721  0  4.0259  0  0  -0.085245  0  4.045488  0  0.029998  0  -0.081033  -0.095374  0  4.012282  0
C  C73  1  0.03592526  0.47281445  0.25005780  1  0  -0.069794  0  3.771581  0  0  -0.091854  0  4.026187  0  0  -0.085382  0  4.045788  0  0.030001  0  -0.081108  -0.095508  0  4.012571  0
C  C74  1  0.46408026  0.52717966  0.75006236  1  0  -0.069691  0  3.771554  0  0  -0.091804  0  4.026143  0  0  -0.085326  0  4.045727  0  0.030018  0  -0.080979  -0.095453  0  4.012524  0
C  C75  1  0.96407890  0.97281151  0.24993663  1  0  -0.069355  0  3.770022  0  0  -0.091732  0  4.026094  0  0  -0.085253  0  4.045678  0  0.030008  0  -0.080956  -0.095412  0  4.012461  0
C  C76  1  0.46408301  0.97281512  0.25006287  1  0  -0.069312  0  3.769961  0  0  -0.091711  0  4.026018  0  0  -0.085229  0  4.045595  0  0.030185  0  -0.080968  -0.095383  0  4.012388  0
C  C77  1  0.96408715  0.52719322  0.74993510  1  0  -0.069688  0  3.771604  0  0  -0.091753  0  4.026228  0  0  -0.085278  0  4.04582  0  0.030205  0  -0.081033  -0.095407  0  4.012606  0
C  C78  1  0.53591564  0.47281355  0.24994322  1  0  -0.069886  0  3.771529  0  0  -0.091955  0  4.026129  0  0  -0.085479  0  4.045716  0  0.029946  0  -0.081122  -0.095619  0  4.012501  0
C  C79  1  0.03591700  0.02718351  0.75005628  1  0  -0.069897  0  3.771498  0  0  -0.091983  0  4.026119  0  0  -0.085509  0  4.045707  0  0.030042  0  -0.081137  -0.095648  0  4.012489  0
C  C80  1  0.60072893  0.13159244  0.78322095  1  0  0.024381  0  3.766274  0  0  0.013832  0  4.020188  0  0  0.002457  0  4.046847  0  0.293387  0  0.064289  0.020892  0  4.002215  0
C  C81  1  0.10073167  0.36841004  0.21678159  1  0  0.024435  0  3.766342  0  0  0.013926  0  4.020211  0  0  0.00255  0  4.046872  0  0.29344  0  0.064342  0.020985  0  4.002241  0
C  C82  1  0.39926697  0.63159041  0.71678311  1  0  0.024449  0  3.766162  0  0  0.013911  0  4.020095  0  0  0.002535  0  4.046758  0  0.293636  0  0.064337  0.020973  0  4.002112  0
C  C83  1  0.89926974  0.86840619  0.28321487  1  0  0.032258  0  3.770909  0  0  0.013796  0  4.020249  0  0  0.002418  0  4.046912  0  0.293587  0  0.064294  0.020856  0  4.002281  0
C  C84  1  0.39927248  0.86840890  0.21678513  1  0  0.032345  0  3.770793  0  0  0.01382  0  4.020148  0  0  0.002444  0  4.046808  0  0.293435  0  0.064321  0.020879  0  4.002185  0
C  C85  1  0.89928488  0.63159041  0.78321436  1  0  0.024601  0  3.766261  0  0  0.01393  0  4.020366  0  0  0.002554  0  4.047029  0  0.293355  0  0.06437  0.020988  0  4.002399  0
C  C86  1  0.60072755  0.36840913  0.28322044  1  0  0.024652  0  3.766321  0  0  0.01409  0  4.020239  0  0  0.002717  0  4.046898  0  0.293411  0  0.064427  0.021148  0  4.002266  0
C  C87  1  0.10072891  0.13158973  0.71678006  1  0  0.024629  0  3.766391  0  0  0.014095  0  4.020284  0  0  0.002723  0  4.046944  0  0.29339  0  0.064418  0.021153  0  4.002312  0
C  C88  1  0.66863623  0.23060879  0.74595974  1  0  -0.067583  0  3.770816  0  0  -0.08818  0  4.025512  0  0  -0.081873  0  4.045365  0  0.000297  0  -0.078426  -0.091719  0  4.011699  0
C  C89  1  0.16864034  0.26939279  0.25404330  1  0  -0.067584  0  3.771005  0  0  -0.088192  0  4.025648  0  0  -0.081885  0  4.045501  0  0.000319  0  -0.078499  -0.091747  0  4.011836  0
C  C90  1  0.33136105  0.73060313  0.75404634  1  0  -0.067519  0  3.771344  0  0  -0.088192  0  4.026041  0  0  -0.081884  0  4.045891  0  0.000388  0  -0.078505  -0.09172  0  4.012239  0
C  C91  1  0.83136794  0.76938894  0.24595265  1  0  -0.067166  0  3.769634  0  0  -0.088087  0  4.025698  0  0  -0.081775  0  4.045542  0  0.000285  0  -0.078503  -0.091633  0  4.011893  0
C  C92  1  0.33136380  0.76939346  0.25404735  1  0  -0.067208  0  3.769587  0  0  -0.088192  0  4.025702  0  0  -0.081885  0  4.045558  0  0.000369  0  -0.078486  -0.091744  0  4.011889  0
C  C93  1  0.83137482  0.73061398  0.74595467  1  0  -0.067494  0  3.770822  0  0  -0.08812  0  4.025553  0  0  -0.081809  0  4.045398  0  0.00022  0  -0.078524  -0.091678  0  4.011748  0
C  C94  1  0.66863760  0.26939369  0.24595873  1  0  -0.067664  0  3.771072  0  0  -0.088255  0  4.025748  0  0  -0.081947  0  4.045594  0  0.000304  0  -0.078519  -0.091789  0  4.011942  0
C  C95  1  0.16863759  0.23060517  0.75404026  1  0  -0.067698  0  3.771126  0  0  -0.088307  0  4.025826  0  0  -0.082  0  4.045671  0  0.000316  0  -0.078526  -0.091841  0  4.01202  0
C  C96  1  0.66556836  0.22696974  0.67621578  1  0  -0.209338  0  3.694989  0  0  -0.234223  0  3.959958  0  0  -0.247345  0  3.980961  0  -0.092553  0  -0.106175  -0.225793  0  3.945808  0
C  C97  1  0.16557248  0.27303184  0.32378422  1  0  -0.209219  0  3.695035  0  0  -0.2341  0  3.959936  0  0  -0.247229  0  3.980936  0  -0.092585  0  -0.106121  -0.225674  0  3.945795  0
C  C98  1  0.33442478  0.72696499  0.82378422  1  0  -0.209159  0  3.695118  0  0  -0.234085  0  3.960109  0  0  -0.247216  0  3.981113  0  -0.092328  0  -0.106138  -0.225652  0  3.945949  0
C  C99  1  0.83443443  0.77302799  0.17621274  1  0  -0.209225  0  3.695144  0  0  -0.234191  0  3.960072  0  0  -0.247315  0  3.981081  0  -0.092643  0  -0.106152  -0.225754  0  3.945914  0
C  C100  1  0.33442616  0.77303251  0.32378828  1  0  -0.209232  0  3.694963  0  0  -0.234102  0  3.959892  0  0  -0.24723  0  3.980893  0  -0.092643  0  -0.106134  -0.225674  0  3.945745  0
C  C101  1  0.83443718  0.72697312  0.67621121  1  0  -0.209397  0  3.695018  0  0  -0.234264  0  3.95999  0  0  -0.247395  0  3.98099  0  -0.092766  0  -0.106152  -0.225834  0  3.945844  0
C  C102  1  0.66557662  0.27303545  0.17621679  1  0  -0.20928  0  3.694983  0  0  -0.234198  0  3.959975  0  0  -0.247303  0  3.980986  0  -0.092537  0  -0.106172  -0.225769  0  3.945826  0
C  C103  1  0.16557523  0.22696612  0.82378372  1  0  -0.209293  0  3.694988  0  0  -0.234226  0  3.960014  0  0  -0.247334  0  3.981022  0  -0.09253  0  -0.106182  -0.225795  0  3.945863  0
N  N104  1  0.59153221  0.13756172  0.85455486  1  0  0.503089  0  3.923653  0  0  0.540753  0  4.206601  0  0  0.562979  0  4.217385  0  0.203693  0  0.0146  0.52602  0  4.199262  0
N  N105  1  0.09152945  0.36244167  0.14544717  1  0  0.502909  0  3.924149  0  0  0.540552  0  4.207122  0  0  0.56278  0  4.217913  0  0.203617  0  0.014505  0.525819  0  4.199777  0
N  N106  1  0.40846919  0.63755787  0.64544920  1  0  0.503124  0  3.924279  0  0  0.540829  0  4.207209  0  0  0.563056  0  4.217996  0  0.203531  0  0.014657  0.526096  0  4.19986  0
N  N107  1  0.90846645  0.86244144  0.35454877  1  0  0.476487  0  3.963944  0  0  0.540802  0  4.207304  0  0  0.563031  0  4.218094  0  0.203524  0  0.014681  0.526068  0  4.199955  0
N  N108  1  0.40847194  0.86244144  0.14545123  1  0  0.476349  0  3.963911  0  0  0.540793  0  4.207095  0  0  0.56302  0  4.217885  0  0.203538  0  0.014664  0.526058  0  4.199751  0
N  N109  1  0.90847333  0.63756239  0.85454928  1  0  0.502969  0  3.924272  0  0  0.540639  0  4.207267  0  0  0.562866  0  4.218058  0  0.203583  0  0.01457  0.525905  0  4.199922  0
N  N110  1  0.59152533  0.36244347  0.35455384  1  0  0.502762  0  3.924208  0  0  0.540456  0  4.207168  0  0  0.562682  0  4.217957  0  0.203711  0  0.014437  0.525723  0  4.19982  0
N  N111  1  0.09152670  0.13755720  0.64544717  1  0  0.502723  0  3.924124  0  0  0.540415  0  4.207089  0  0  0.562639  0  4.217877  0  0.203639  0  0.014395  0.525682  0  4.199743  0
O  O112  1  0.58636543  0.12279039  0.57484385  1  0  -0.690739  0  2.044123  0  0  -0.630769  0  2.268413  0  0  -0.658138  0  2.263182  0  -1.186999  0  -0.420769  -0.611417  0  2.271289  0
O  O113  1  0.08636679  0.37720757  0.42515768  1  0  -0.690607  0  2.044178  0  0  -0.630718  0  2.268445  0  0  -0.658081  0  2.263198  0  -1.187056  0  -0.420768  -0.611368  0  2.271321  0
O  O114  1  0.41362634  0.62279016  0.92515970  1  0  -0.690426  0  2.044039  0  0  -0.630567  0  2.268335  0  0  -0.657931  0  2.263091  0  -1.187118  0  -0.420679  -0.611215  0  2.271211  0
O  O115  1  0.91362498  0.87720734  0.07483827  1  0  -0.690504  0  2.044093  0  0  -0.630636  0  2.268352  0  0  -0.657998  0  2.263103  0  -1.187181  0  -0.420717  -0.611283  0  2.271232  0
O  O116  1  0.41363047  0.87720915  0.42516224  1  0  -0.690578  0  2.043992  0  0  -0.63062  0  2.268263  0  0  -0.657984  0  2.263015  0  -1.187152  0  -0.420704  -0.61127  0  2.271143  0
O  O117  1  0.91362360  0.62279558  0.57483725  1  0  -0.69063  0  2.043942  0  0  -0.630667  0  2.268226  0  0  -0.658033  0  2.262979  0  -1.187196  0  -0.420748  -0.611317  0  2.271108  0
O  O118  1  0.58637369  0.37721119  0.07484334  1  0  -0.690636  0  2.044102  0  0  -0.630757  0  2.268433  0  0  -0.65812  0  2.26319  0  -1.186978  0  -0.420802  -0.611405  0  2.27131  0
O  O119  1  0.08637505  0.12278949  0.92515717  1  0  -0.690666  0  2.044092  0  0  -0.630775  0  2.268412  0  0  -0.658144  0  2.263179  0  -1.187009  0  -0.420798  -0.611422  0  2.271289  0
O  O120  1  0.53122094  0.04753273  0.88694839  1  0  -0.4829  0  1.787629  0  0  -0.455483  0  2.011765  0  0  -0.468442  0  2.008077  0  -0.538644  0  -0.252073  -0.446643  0  2.014296  0
O  O121  1  0.03121129  0.45247066  0.11305465  1  0  -0.482822  0  1.787609  0  0  -0.455377  0  2.011729  0  0  -0.46833  0  2.008031  0  -0.538711  0  -0.251988  -0.446533  0  2.014259  0
O  O122  1  0.46878459  0.54753159  0.61305618  1  0  -0.483109  0  1.787829  0  0  -0.455609  0  2.011929  0  0  -0.468573  0  2.008246  0  -0.538576  0  -0.252092  -0.446767  0  2.014459  0
O  O123  1  0.96878048  0.95247133  0.38694129  1  0  -0.474081  0  1.799868  0  0  -0.455552  0  2.011925  0  0  -0.468514  0  2.008237  0  -0.538517  0  -0.252078  -0.446712  0  2.014458  0
O  O124  1  0.46879285  0.95246952  0.11305871  1  0  -0.473971  0  1.799734  0  0  -0.455553  0  2.01173  0  0  -0.46852  0  2.008057  0  -0.53858  0  -0.252091  -0.446715  0  2.014265  0
O  O125  1  0.96878323  0.54752526  0.88694129  1  0  -0.482974  0  1.787545  0  0  -0.455527  0  2.01164  0  0  -0.468485  0  2.007946  0  -0.538584  0  -0.252058  -0.446683  0  2.014172  0
O  O126  1  0.53120855  0.45247066  0.38694687  1  0  -0.482862  0  1.787808  0  0  -0.455359  0  2.011905  0  0  -0.468318  0  2.008219  0  -0.538792  0  -0.251975  -0.446521  0  2.014437  0
O  O127  1  0.03121680  0.04753001  0.61305313  1  0  -0.4828  0  1.787742  0  0  -0.455297  0  2.011857  0  0  -0.468253  0  2.008169  0  -0.53871  0  -0.251952  -0.446459  0  2.014389  0
O  O128  1  0.63885496  0.23349580  0.88463547  1  0  -0.479574  0  1.751754  0  0  -0.453879  0  1.971949  0  0  -0.465885  0  1.966677  0  -0.553548  0  -0.228085  -0.445732  0  1.975676  0
O  O129  1  0.13884806  0.26650848  0.11536656  1  0  -0.479501  0  1.752076  0  0  -0.453807  0  1.972278  0  0  -0.465816  0  1.967008  0  -0.55336  0  -0.228079  -0.445661  0  1.976003  0
O  O130  1  0.36115058  0.73349286  0.61537061  1  0  -0.479557  0  1.752085  0  0  -0.453821  0  1.972286  0  0  -0.465833  0  1.967018  0  -0.553342  0  -0.228078  -0.44567  0  1.976004  0
O  O131  1  0.86114371  0.76650916  0.38462989  1  0  -0.470569  0  1.764056  0  0  -0.453822  0  1.972226  0  0  -0.465833  0  1.966957  0  -0.553294  0  -0.22809  -0.445674  0  1.975949  0
O  O132  1  0.36114507  0.76651006  0.11537061  1  0  -0.470426  0  1.764106  0  0  -0.453793  0  1.972212  0  0  -0.465801  0  1.966946  0  -0.553272  0  -0.228071  -0.445643  0  1.975937  0
O  O133  1  0.86115609  0.73349015  0.88462989  1  0  -0.479445  0  1.752255  0  0  -0.453728  0  1.97242  0  0  -0.465735  0  1.967151  0  -0.553261  0  -0.22802  -0.44558  0  1.976144  0
O  O134  1  0.63884670  0.26650848  0.38463598  1  0  -0.479507  0  1.751889  0  0  -0.453753  0  1.972076  0  0  -0.465765  0  1.966806  0  -0.553399  0  -0.228069  -0.445606  0  1.975797  0
O  O135  1  0.13884531  0.23349490  0.61536605  1  0  -0.479493  0  1.751862  0  0  -0.45374  0  1.972047  0  0  -0.465749  0  1.966777  0  -0.553402  0  -0.228018  -0.445591  0  1.975768  0
O  O136  1  0.79822289  0.41943900  0.51324731  1  0  -0.920707  0  1.810965  0  0  -0.880872  0  1.983176  0  0  -0.899152  0  1.952468  0  -1.306007  0  -0.725025  -0.867756  0  2.004551  0
O  O137  1  0.29822563  0.08055896  0.48675370  1  0  -0.92085  0  1.810813  0  0  -0.880914  0  1.983183  0  0  -0.899194  0  1.952477  0  -1.306021  0  -0.725083  -0.867798  0  2.004556  0
O  O138  1  0.20177989  0.91944329  0.98675269  1  0  -0.920658  0  1.810984  0  0  -0.880778  0  1.983143  0  0  -0.899058  0  1.952436  0  -1.305986  0  -0.724978  -0.867661  0  2.00452  0
O  O139  1  0.70177577  0.58055873  0.01324833  1  0  -0.92066  0  1.811022  0  0  -0.880818  0  1.983193  0  0  -0.899099  0  1.952487  0  -1.305993  0  -0.724989  -0.867701  0  2.004567  0
O  O140  1  0.20177714  0.58055692  0.48675319  1  0  -0.920635  0  1.811036  0  0  -0.880767  0  1.983206  0  0  -0.899048  0  1.9525  0  -1.305991  0  -0.724979  -0.867651  0  2.004581  0
O  O141  1  0.70177853  0.91944238  0.51324681  1  0  -0.920704  0  1.810937  0  0  -0.880842  0  1.983128  0  0  -0.899122  0  1.952421  0  -1.305982  0  -0.725016  -0.867725  0  2.004504  0
O  O142  1  0.79822564  0.08056167  0.01324630  1  0  -0.920921  0  1.810741  0  0  -0.881029  0  1.983072  0  0  -0.899307  0  1.95236  0  -1.306009  0  -0.725094  -0.867915  0  2.004448  0
O  O143  1  0.29822150  0.41943990  0.98675370  1  0  -0.920834  0  1.810801  0  0  -0.880926  0  1.983112  0  0  -0.899206  0  1.952402  0  -1.306013  0  -0.72506  -0.867811  0  2.004487  0
