# generated using pymatgen
data_AgH2C6N4ClO4
_symmetry_space_group_name_H-M   'P 1'
_cell_length_a   7.88400336
_cell_length_b   7.88396543
_cell_length_c   15.09665860
_cell_angle_alpha   90.00020455
_cell_angle_beta   90.00000760
_cell_angle_gamma   89.99998057
_symmetry_Int_Tables_number   1
_chemical_formula_structural   AgH2C6N4ClO4
_chemical_formula_sum   'Ag4 H8 C24 N16 Cl4 O16'
_cell_volume   938.36617817
_cell_formula_units_Z   4
loop_
 _symmetry_equiv_pos_site_id
 _symmetry_equiv_pos_as_xyz
  1  'x, y, z'
loop_
 _atom_site_type_symbol
 _atom_site_label
 _atom_site_symmetry_multiplicity
 _atom_site_fract_x
 _atom_site_fract_y
 _atom_site_fract_z
 _atom_site_occupancy
 _atom_site_hle17_bader_spin_density
 _atom_site_hle17_ddec_charge
 _atom_site_hle17_ddec_spin_density
 _atom_site_hle17_ddec_sum_bond_order
 _atom_site_hle17_magmom
 _atom_site_hse06_10hf_bader_spin_density
 _atom_site_hse06_10hf_ddec_charge
 _atom_site_hse06_10hf_ddec_spin_density
 _atom_site_hse06_10hf_ddec_sum_bond_order
 _atom_site_hse06_10hf_magmom
 _atom_site_hse06_bader_spin_density
 _atom_site_hse06_ddec_charge
 _atom_site_hse06_ddec_spin_density
 _atom_site_hse06_ddec_sum_bond_order
 _atom_site_hse06_magmom
 _atom_site_pbe_bader_spin_density
 _atom_site_pbe_cm5_charge
 _atom_site_pbe_ddec_charge
 _atom_site_pbe_ddec_spin_density
 _atom_site_pbe_ddec_sum_bond_order
 _atom_site_pbe_magmom
Ag  Ag0  1  0.75000092  0.25000006  0.10324098  1  0  0.607478  0  1.51959  0  0  0.494363  0  1.98122  0  0  0.509219  0  1.937854  0  0  0.526273  0.486128  0  2.010493  0
Ag  Ag1  1  0.24999985  0.74999903  0.60324013  1  0  0.607491  0  1.519552  0  0  0.494389  0  1.981176  0  0  0.509245  0  1.937808  0  0  0.526258  0.486147  0  2.010449  0
Ag  Ag2  1  0.24999989  0.75000133  0.89676072  1  0  0.607481  0  1.519528  0  0  0.494368  0  1.981148  0  0  0.509222  0  1.937781  0  0  0.52625  0.486128  0  2.010422  0
Ag  Ag3  1  0.74999969  0.25000236  0.39675957  1  0  0.607504  0  1.519548  0  0  0.494397  0  1.981176  0  0  0.509255  0  1.937807  0  0  0.526263  0.486153  0  2.010449  0
H  H4  1  0.74999971  0.59002739  0.95841132  1  0  0.105603  0  0.93625  0  0  0.107381  0  1.002332  0  0  0.110226  0  1.000117  0  0  0.125904  0.105278  0  1.004108  0
H  H5  1  0.90997418  0.74999967  0.45841208  1  0  0.105606  0  0.936267  0  0  0.107382  0  1.002348  0  0  0.110226  0  1.000134  0  0  0.1259  0.105276  0  1.004125  0
H  H6  1  0.24999983  0.40997653  0.04158640  1  0  0.105558  0  0.936281  0  0  0.107329  0  1.002361  0  0  0.110173  0  1.000149  0  0  0.125897  0.105228  0  1.004136  0
H  H7  1  0.74999966  0.90997553  0.95841160  1  0  0.105602  0  0.936228  0  0  0.107363  0  1.00232  0  0  0.110209  0  1.000105  0  0  0.125898  0.105259  0  1.004096  0
H  H8  1  0.09002663  0.25000045  0.54158961  1  0  0.105582  0  0.936274  0  0  0.107355  0  1.002352  0  0  0.1102  0  1.000139  0  0  0.125885  0.10525  0  1.004127  0
H  H9  1  0.59002759  0.74999973  0.45841207  1  0  0.105556  0  0.936291  0  0  0.107327  0  1.002364  0  0  0.110171  0  1.000151  0  0  0.125872  0.105221  0  1.004142  0
H  H10  1  0.24999988  0.09002840  0.04158678  1  0  0.105599  0  0.936253  0  0  0.107371  0  1.002325  0  0  0.110216  0  1.000112  0  0  0.125901  0.105267  0  1.0041  0
H  H11  1  0.40997322  0.25000040  0.54158962  1  0  0.105603  0  0.936235  0  0  0.107372  0  1.002319  0  0  0.110216  0  1.000105  0  0  0.125903  0.105267  0  1.004094  0
C  C12  1  0.74999962  0.56906084  0.25316384  1  0  0.304891  0  3.646694  0  0  0.280723  0  3.91702  0  0  0.29303  0  3.932359  0  0  0.22297  0.272071  0  3.907532  0
C  C13  1  0.93093946  0.74999944  0.75316472  1  0  0.304884  0  3.646457  0  0  0.280718  0  3.916816  0  0  0.293023  0  3.932157  0  0  0.222944  0.27207  0  3.907337  0
C  C14  1  0.24999992  0.43094308  0.74683454  1  0  0.304902  0  3.646532  0  0  0.280745  0  3.916873  0  0  0.293049  0  3.932214  0  0  0.222965  0.272096  0  3.907386  0
C  C15  1  0.74999956  0.93093965  0.25316550  1  0  0.304855  0  3.646632  0  0  0.280753  0  3.917031  0  0  0.293059  0  3.93238  0  0  0.222965  0.272103  0  3.907541  0
C  C16  1  0.06906262  0.24999942  0.24683697  1  0  0.304676  0  3.646037  0  0  0.280538  0  3.916434  0  0  0.29284  0  3.931774  0  0  0.222773  0.271889  0  3.906959  0
C  C17  1  0.56905986  0.74999950  0.75316471  1  0  0.304975  0  3.64662  0  0  0.280792  0  3.916946  0  0  0.293097  0  3.932282  0  0  0.223004  0.27214  0  3.907467  0
C  C18  1  0.24999998  0.06905921  0.74683355  1  0  0.30477  0  3.64612  0  0  0.280624  0  3.916475  0  0  0.292928  0  3.931813  0  0  0.222878  0.271971  0  3.906992  0
C  C19  1  0.43093842  0.25000062  0.24683698  1  0  0.304645  0  3.646097  0  0  0.28051  0  3.916473  0  0  0.292812  0  3.931809  0  0  0.222795  0.271859  0  3.906997  0
C  C20  1  0.75000086  0.66070226  0.17157832  1  0  0.143791  0  3.788787  0  0  0.143817  0  4.024952  0  0  0.146242  0  4.04113  0  0  0.160292  0.141832  0  4.014842  0
C  C21  1  0.83929692  0.75000044  0.67157912  1  0  0.1438  0  3.788653  0  0  0.143725  0  4.024808  0  0  0.146141  0  4.040985  0  0  0.160283  0.14173  0  4.014712  0
C  C22  1  0.24999995  0.33929913  0.82842072  1  0  0.143874  0  3.788627  0  0  0.143813  0  4.024818  0  0  0.146231  0  4.040997  0  0  0.160307  0.141821  0  4.014716  0
C  C23  1  0.74999956  0.83929639  0.17158114  1  0  0.143875  0  3.788566  0  0  0.143621  0  4.024991  0  0  0.146026  0  4.041201  0  0  0.160302  0.141634  0  4.014879  0
C  C24  1  0.16070262  0.24999969  0.32842125  1  0  0.143993  0  3.788389  0  0  0.143879  0  4.024673  0  0  0.146298  0  4.040844  0  0  0.160339  0.141885  0  4.014578  0
C  C25  1  0.66070237  0.75000047  0.67157845  1  0  0.143752  0  3.788677  0  0  0.143761  0  4.024759  0  0  0.146187  0  4.040922  0  0  0.160254  0.141773  0  4.01466  0
C  C26  1  0.24999998  0.16070373  0.82841989  1  0  0.143866  0  3.788697  0  0  0.143783  0  4.024905  0  0  0.146204  0  4.041082  0  0  0.160306  0.1418  0  4.014799  0
C  C27  1  0.33929717  0.24999966  0.32842192  1  0  0.143897  0  3.788413  0  0  0.143807  0  4.024668  0  0  0.146234  0  4.040828  0  0  0.160264  0.141818  0  4.014571  0
C  C28  1  0.74999957  0.66076515  0.02049456  1  0  0.161038  0  3.553433  0  0  0.133332  0  3.810616  0  0  0.138985  0  3.820891  0  0  0.092498  0.129222  0  3.804212  0
C  C29  1  0.83923728  0.74999990  0.52049734  1  0  0.16099  0  3.553572  0  0  0.133295  0  3.810757  0  0  0.138942  0  3.821042  0  0  0.092482  0.12919  0  3.804343  0
C  C30  1  0.24999997  0.33923751  0.97950249  1  0  0.16109  0  3.553569  0  0  0.133422  0  3.810715  0  0  0.139071  0  3.820995  0  0  0.092518  0.129315  0  3.804301  0
C  C31  1  0.74999954  0.83923878  0.02049936  1  0  0.160931  0  3.553678  0  0  0.133306  0  3.810791  0  0  0.138955  0  3.821069  0  0  0.092503  0.129197  0  3.80439  0
C  C32  1  0.16076353  0.25000022  0.47950435  1  0  0.160959  0  3.553607  0  0  0.133292  0  3.810761  0  0  0.13894  0  3.82104  0  0  0.092483  0.129177  0  3.804369  0
C  C33  1  0.66076450  0.74999993  0.52049667  1  0  0.161032  0  3.553534  0  0  0.133388  0  3.810684  0  0  0.139038  0  3.820964  0  0  0.092545  0.129283  0  3.804271  0
C  C34  1  0.25000000  0.16076388  0.97950101  1  0  0.161045  0  3.553554  0  0  0.133383  0  3.810703  0  0  0.139033  0  3.82098  0  0  0.092553  0.129272  0  3.804311  0
C  C35  1  0.33923631  0.25000019  0.47950502  1  0  0.160985  0  3.553495  0  0  0.133319  0  3.810657  0  0  0.138969  0  3.820934  0  0  0.092472  0.129206  0  3.804256  0
N  N36  1  0.74999964  0.49656837  0.32046013  1  0  -0.355971  0  2.825106  0  0  -0.317414  0  3.118135  0  0  -0.329121  0  3.122748  0  0  -0.298483  -0.310308  0  3.115703  0
N  N37  1  0.00343225  0.74999983  0.82046104  1  0  -0.355945  0  2.824872  0  0  -0.317378  0  3.117894  0  0  -0.329084  0  3.122506  0  0  -0.298436  -0.310274  0  3.115469  0
N  N38  1  0.24999990  0.50343175  0.67953891  1  0  -0.356029  0  2.824965  0  0  -0.317463  0  3.117986  0  0  -0.32917  0  3.122598  0  0  -0.298512  -0.310357  0  3.115557  0
N  N39  1  0.74999972  0.00343328  0.32046101  1  0  -0.355956  0  2.824963  0  0  -0.317392  0  3.117971  0  0  -0.329096  0  3.122583  0  0  -0.298485  -0.310287  0  3.115538  0
N  N40  1  0.99656856  0.25000029  0.17953734  1  0  -0.355839  0  2.824441  0  0  -0.317269  0  3.11746  0  0  -0.328974  0  3.122073  0  0  -0.298312  -0.310168  0  3.115041  0
N  N41  1  0.49656751  0.74999975  0.82046040  1  0  -0.356032  0  2.825068  0  0  -0.317473  0  3.118102  0  0  -0.329181  0  3.122713  0  0  -0.298506  -0.310368  0  3.115678  0
N  N42  1  0.24999982  0.99656684  0.67953737  1  0  -0.355883  0  2.824523  0  0  -0.317331  0  3.117562  0  0  -0.329038  0  3.122173  0  0  -0.29841  -0.310225  0  3.115137  0
N  N43  1  0.50343330  0.25000037  0.17953798  1  0  -0.355798  0  2.824503  0  0  -0.317239  0  3.117531  0  0  -0.328944  0  3.122143  0  0  -0.298324  -0.310136  0  3.11511  0
N  N44  1  0.74999960  0.57182666  0.09544881  1  0  -0.247104  0  3.114032  0  0  -0.208356  0  3.391257  0  0  -0.217506  0  3.400674  0  0  -0.274082  -0.202192  0  3.385333  0
N  N45  1  0.92817181  0.75000015  0.59544770  1  0  -0.247069  0  3.114091  0  0  -0.208325  0  3.39134  0  0  -0.217471  0  3.400759  0  0  -0.274052  -0.202161  0  3.385416  0
N  N46  1  0.24999994  0.42817473  0.90455155  1  0  -0.247154  0  3.114125  0  0  -0.208417  0  3.39137  0  0  -0.217565  0  3.400789  0  0  -0.274063  -0.202251  0  3.385447  0
N  N47  1  0.74999954  0.92817272  0.09544715  1  0  -0.247078  0  3.114092  0  0  -0.208294  0  3.391383  0  0  -0.21744  0  3.40081  0  0  -0.274063  -0.202129  0  3.385456  0
N  N48  1  0.07182900  0.24999997  0.40455333  1  0  -0.247109  0  3.113995  0  0  -0.208348  0  3.391251  0  0  -0.217497  0  3.400674  0  0  -0.274032  -0.202185  0  3.385326  0
N  N49  1  0.57182746  0.75000021  0.59544769  1  0  -0.247055  0  3.114027  0  0  -0.208338  0  3.391229  0  0  -0.217486  0  3.400644  0  0  -0.274054  -0.202178  0  3.385308  0
N  N50  1  0.25000000  0.07182740  0.90455057  1  0  -0.247138  0  3.114172  0  0  -0.208391  0  3.391413  0  0  -0.217535  0  3.400825  0  0  -0.274106  -0.202231  0  3.385488  0
N  N51  1  0.42817208  0.24999991  0.40455268  1  0  -0.247096  0  3.113944  0  0  -0.208334  0  3.39118  0  0  -0.217485  0  3.4006  0  0  -0.274033  -0.202173  0  3.385257  0
Cl  Cl52  1  0.74999976  0.24999649  0.89058010  1  0  1.385113  0  6.184552  0  0  1.329511  0  6.739217  0  0  1.382461  0  6.715797  0  0  0.712847  1.29291  0  6.753918  0
Cl  Cl53  1  0.24999855  0.75000082  0.39058248  1  0  1.385279  0  6.184262  0  0  1.329676  0  6.73893  0  0  1.382632  0  6.715506  0  0  0.712907  1.293077  0  6.753629  0
Cl  Cl54  1  0.24999978  0.74999983  0.10942093  1  0  1.384984  0  6.184419  0  0  1.329369  0  6.739125  0  0  1.38233  0  6.715697  0  0  0.712749  1.292768  0  6.753825  0
Cl  Cl55  1  0.74999845  0.25000058  0.60941656  1  0  1.385273  0  6.184303  0  0  1.32968  0  6.738926  0  0  1.382637  0  6.7155  0  0  0.712881  1.293077  0  6.753633  0
O  O56  1  0.90080894  0.24999413  0.94883472  1  0  -0.585633  0  1.894954  0  0  -0.552073  0  2.157033  0  0  -0.57051  0  2.145196  0  0  -0.334197  -0.538922  0  2.164683  0
O  O57  1  0.24999853  0.90081092  0.44883657  1  0  -0.585688  0  1.894743  0  0  -0.552151  0  2.156849  0  0  -0.570587  0  2.145009  0  0  -0.334214  -0.538996  0  2.164482  0
O  O58  1  0.40080894  0.74999960  0.05116632  1  0  -0.585569  0  1.894923  0  0  -0.552  0  2.156985  0  0  -0.570443  0  2.145147  0  0  -0.334155  -0.538851  0  2.164634  0
O  O59  1  0.59919060  0.24999419  0.94883471  1  0  -0.585648  0  1.894958  0  0  -0.552089  0  2.157044  0  0  -0.570526  0  2.145206  0  0  -0.334208  -0.538939  0  2.164694  0
O  O60  1  0.74999715  0.40080900  0.55116142  1  0  -0.585729  0  1.894812  0  0  -0.552175  0  2.15692  0  0  -0.570615  0  2.145083  0  0  -0.334235  -0.53902  0  2.164553  0
O  O61  1  0.24999985  0.59919113  0.44883696  1  0  -0.585736  0  1.894879  0  0  -0.552177  0  2.156964  0  0  -0.57062  0  2.145129  0  0  -0.334231  -0.539023  0  2.164603  0
O  O62  1  0.09919060  0.74999965  0.05116631  1  0  -0.585582  0  1.894924  0  0  -0.552013  0  2.156989  0  0  -0.570458  0  2.145151  0  0  -0.334164  -0.538864  0  2.164637  0
O  O63  1  0.74999720  0.09919048  0.55116314  1  0  -0.585753  0  1.89487  0  0  -0.552192  0  2.156944  0  0  -0.570635  0  2.145107  0  0  -0.334233  -0.539038  0  2.164583  0
O  O64  1  0.74999978  0.09742080  0.83684490  1  0  -0.522907  0  1.858594  0  0  -0.499269  0  2.096591  0  0  -0.517109  0  2.086779  0  0  -0.31443  -0.486414  0  2.102637  0
O  O65  1  0.40257839  0.75000060  0.33685007  1  0  -0.522897  0  1.858769  0  0  -0.499296  0  2.096783  0  0  -0.51713  0  2.086956  0  0  -0.314489  -0.486443  0  2.102827  0
O  O66  1  0.24999976  0.90257932  0.16315348  1  0  -0.522934  0  1.858799  0  0  -0.499318  0  2.096804  0  0  -0.517149  0  2.086973  0  0  -0.314486  -0.486459  0  2.102848  0
O  O67  1  0.74999973  0.40258069  0.83685113  1  0  -0.522921  0  1.858914  0  0  -0.499322  0  2.096921  0  0  -0.517155  0  2.087097  0  0  -0.314499  -0.486466  0  2.102968  0
O  O68  1  0.59741988  0.25000079  0.66315096  1  0  -0.522896  0  1.858664  0  0  -0.49928  0  2.096666  0  0  -0.517109  0  2.08683  0  0  -0.314452  -0.486426  0  2.102712  0
O  O69  1  0.09742124  0.74999812  0.33684939  1  0  -0.522929  0  1.858772  0  0  -0.4993  0  2.096772  0  0  -0.51713  0  2.086936  0  0  -0.314456  -0.486449  0  2.102817  0
O  O70  1  0.24999981  0.59741944  0.16315321  1  0  -0.522875  0  1.85861  0  0  -0.499268  0  2.09663  0  0  -0.517091  0  2.086784  0  0  -0.314436  -0.486416  0  2.102684  0
O  O71  1  0.90257704  0.25000201  0.66314832  1  0  -0.522876  0  1.858811  0  0  -0.499287  0  2.096843  0  0  -0.517109  0  2.086995  0  0  -0.314441  -0.486435  0  2.102898  0
