# generated using pymatgen
data_ZnH20C34N5O4
_symmetry_space_group_name_H-M   'P 1'
_cell_length_a   11.00720395
_cell_length_b   18.21195836
_cell_length_c   19.62246813
_cell_angle_alpha   90.00030591
_cell_angle_beta   89.88167772
_cell_angle_gamma   90.00054050
_symmetry_Int_Tables_number   1
_chemical_formula_structural   ZnH20C34N5O4
_chemical_formula_sum   'Zn2 H40 C68 N10 O8'
_cell_volume   3933.56534029
_cell_formula_units_Z   2
loop_
 _symmetry_equiv_pos_site_id
 _symmetry_equiv_pos_as_xyz
  1  'x, y, z'
loop_
 _atom_site_type_symbol
 _atom_site_label
 _atom_site_symmetry_multiplicity
 _atom_site_fract_x
 _atom_site_fract_y
 _atom_site_fract_z
 _atom_site_occupancy
 _atom_site_pbe_bader_charge
 _atom_site_pbe_bader_spin_density
 _atom_site_pbe_cm5_charge
 _atom_site_pbe_ddec_charge
 _atom_site_pbe_ddec_spin_density
 _atom_site_pbe_ddec_sum_bond_order
 _atom_site_pbe_magmom
Zn  Zn0  1  0.49999741  0.42393606  0.50000178  1  1.268584  0  0.671272  0.804658  0  2.429821  0
Zn  Zn1  1  0.49999766  0.57157971  0.50000047  1  1.258946  0  0.670333  0.79749  0  2.454944  0
H  H2  1  0.07776182  0.75083821  0.54671117  1  0.061151  0  0.093261  0.095096  0  1.013272  0
H  H3  1  0.91730584  0.25185744  0.54373376  1  0.010052  0  0.093685  0.09364  0  1.006876  0
H  H4  1  0.92224996  0.75083729  0.45328999  1  0.061164  0  0.093272  0.095065  0  1.013265  0
H  H5  1  0.08267628  0.25185564  0.45627372  1  0.010331  0  0.093675  0.093645  0  1.006906  0
H  H6  1  0.45590741  0.61036289  0.71499017  1  0.118715  0  0.110737  0.113898  0  0.992895  0
H  H7  1  0.44994567  0.38200193  0.28153606  1  0.096438  0  0.107782  0.107844  0  1.004918  0
H  H8  1  0.54408217  0.61035929  0.28501319  1  0.11838  0  0.110695  0.113906  0  0.992983  0
H  H9  1  0.55007211  0.38201045  0.71846909  1  0.096674  0  0.107855  0.107935  0  1.00494  0
H  H10  1  0.45576221  0.61330053  0.84260275  1  0.061157  0  0.108248  0.110314  0  0.983527  0
H  H11  1  0.44572471  0.38418894  0.15414593  1  0.065114  0  0.108763  0.110971  0  0.983535  0
H  H12  1  0.54422560  0.61329692  0.15740116  1  0.061413  0  0.108243  0.110288  0  0.983516  0
H  H13  1  0.55429856  0.38420024  0.84585822  1  0.065043  0  0.108711  0.110947  0  0.983413  0
H  H14  1  0.44920289  0.30676181  0.60146883  1  0.149948  0  0.14378  0.12858  0  0.960467  0
H  H15  1  0.32967200  0.68888182  0.45531121  1  0.187408  0  0.143536  0.131064  0  0.968979  0
H  H16  1  0.55079099  0.30676429  0.39852746  1  0.149837  0  0.143785  0.128591  0  0.960599  0
H  H17  1  0.67032972  0.68887620  0.54469038  1  0.187272  0  0.143581  0.131027  0  0.969089  0
H  H18  1  0.31914547  0.06533271  0.54304489  1  0.094488  0  0.116328  0.119795  0  0.975986  0
H  H19  1  0.68134121  0.93046364  0.45750104  1  0.086744  0  0.116734  0.120126  0  0.977815  0
H  H20  1  0.68088095  0.06533098  0.45695152  1  0.094157  0  0.116281  0.119656  0  0.975973  0
H  H21  1  0.31868066  0.93046592  0.54250138  1  0.086817  0  0.116597  0.119963  0  0.977734  0
H  H22  1  0.11174704  0.29215396  0.33571796  1  0.014826  0  0.080774  0.104059  0  1.01756  0
H  H23  1  0.08242209  0.38644687  0.32013738  1  0.051808  0  0.090933  0.124737  0  0.988489  0
H  H24  1  0.22435817  0.34797639  0.29618578  1  0.028108  0  0.082912  0.110086  0  1.014675  0
H  H25  1  0.24949076  0.42119155  0.40079678  1  0.053699  0  0.092099  0.095498  0  1.013957  0
H  H26  1  0.27865996  0.32877653  0.41895266  1  0.019511  0  0.080122  0.071901  0  1.004498  0
H  H27  1  0.92295562  0.58862080  0.32702542  1  0.037648  0  0.086762  0.116569  0  0.994964  0
H  H28  1  0.82129569  0.52367363  0.36308031  1  0.026125  0  0.083825  0.116007  0  1.012256  0
H  H29  1  0.76769487  0.58764353  0.30231418  1  0.0182  0  0.082779  0.112002  0  1.021979  0
H  H30  1  0.70681059  0.62330509  0.42112798  1  0.079721  0  0.083807  0.084585  0  1.063515  0
H  H31  1  0.79694379  0.69132549  0.38178636  1  0.04219  0  0.085136  0.077678  0  0.985089  0
H  H32  1  0.77564909  0.34799058  0.70382771  1  0.028264  0  0.082889  0.110058  0  1.01464  0
H  H33  1  0.88826661  0.29217208  0.66429498  1  0.014955  0  0.080827  0.104058  0  1.017548  0
H  H34  1  0.91757487  0.38646845  0.67986529  1  0.050794  0  0.090925  0.124752  0  0.988623  0
H  H35  1  0.75049039  0.42119022  0.59920932  1  0.054555  0  0.092159  0.095533  0  1.01422  0
H  H36  1  0.72133881  0.32876954  0.58106321  1  0.019265  0  0.080152  0.071857  0  1.004544  0
H  H37  1  0.07704270  0.58862062  0.67297823  1  0.037704  0  0.086728  0.116513  0  0.994965  0
H  H38  1  0.17870070  0.52367292  0.63692322  1  0.025844  0  0.083841  0.116026  0  1.012259  0
H  H39  1  0.23230252  0.58764203  0.69769049  1  0.018143  0  0.082793  0.112017  0  1.021939  0
H  H40  1  0.29319009  0.62330338  0.57887703  1  0.079771  0  0.083823  0.084659  0  1.063487  0
H  H41  1  0.20306069  0.69132492  0.61821932  1  0.041976  0  0.085137  0.077693  0  0.985064  0
C  C42  1  0.50132585  0.49464619  0.36664267  1  1.570853  0  0.220255  0.590326  0  4.15788  0
C  C43  1  0.49867644  0.49464893  0.63336056  1  1.571276  0  0.22017  0.590248  0  4.157873  0
C  C44  1  0.50171195  0.49597335  0.70962709  1  0.02236  0  -0.008718  -0.023216  0  3.946569  0
C  C45  1  0.49829037  0.49596619  0.29037717  1  0.022776  0  -0.008684  -0.023282  0  3.946722  0
C  C46  1  0.61132347  0.49964542  0.96496439  1  0.059662  0  0.032702  0.01338  0  4.010265  0
C  C47  1  0.38867254  0.49963490  0.03503992  1  0.061489  0  0.032665  0.013268  0  4.009939  0
C  C48  1  0.60874209  0.50026258  0.03720300  1  0.124264  0  0.032856  0.012219  0  4.009504  0
C  C49  1  0.39125030  0.50025869  0.96280183  1  0.124362  0  0.032734  0.012044  0  4.009572  0
C  C50  1  0.49739614  0.49971318  0.07266459  1  0.075696  0  0.031258  0.026691  0  3.936873  0
C  C51  1  0.50259896  0.49971979  0.92733921  1  0.076477  0  0.031367  0.026955  0  3.936638  0
C  C52  1  0.47073084  0.27365066  0.55673142  1  0.48645  0  0.093345  0.091461  0  3.832412  0
C  C53  1  0.40489963  0.72187794  0.47464738  1  0.56114  0  0.092824  0.092769  0  3.819474  0
C  C54  1  0.52927251  0.27365192  0.44326452  1  0.486783  0  0.093346  0.091367  0  3.832347  0
C  C55  1  0.59510532  0.72187408  0.52535453  1  0.56108  0  0.092836  0.093623  0  3.820123  0
C  C56  1  0.46966500  0.19668254  0.55895326  1  0.130311  0  0.024557  -0.016002  0  4.037078  0
C  C57  1  0.40168298  0.79882792  0.47326857  1  0.058117  0  0.024387  -0.012547  0  4.029797  0
C  C58  1  0.53034896  0.19668436  0.44104344  1  0.130151  0  0.024675  -0.015802  0  4.03706  0
C  C59  1  0.59832864  0.79882463  0.52673307  1  0.058065  0  0.024334  -0.015012  0  4.033325  0
C  C60  1  0.50001074  0.15580070  0.49999738  1  0.014478  0  0.048041  0.062475  0  3.8971  0
C  C61  1  0.50000886  0.83980676  0.50000127  1  0.070785  0  0.046199  0.0564  0  3.898255  0
C  C62  1  0.39876058  0.03598463  0.52436387  1  -0.002067  0  -0.070138  -0.097178  0  3.945451  0
C  C63  1  0.60181698  0.95973540  0.47639190  1  -0.036642  0  -0.070043  -0.097094  0  3.94307  0
C  C64  1  0.60126265  0.03598520  0.47563174  1  -0.002102  0  -0.070023  -0.096772  0  3.945088  0
C  C65  1  0.39820353  0.95973757  0.52360826  1  -0.037109  0  -0.069799  -0.096565  0  3.942627  0
C  C66  1  0.50001131  0.92069757  0.49999963  1  -0.028672  0  -0.001446  0.058752  0  4.008887  0
C  C67  1  0.50001193  0.07493295  0.49999749  1  0.048755  0  -0.005016  0.053071  0  4.017432  0
C  C68  1  0.26371202  0.50117640  0.49903149  1  1.516825  0  0.216611  0.596163  0  4.161136  0
C  C69  1  0.73628311  0.50117663  0.50097283  1  1.516652  0  0.21661  0.596207  0  4.160879  0
C  C70  1  0.10870090  0.36821003  0.45981449  1  0.000329  0  -0.008037  0.079424  0  3.916511  0
C  C71  1  0.89165204  0.63517309  0.45954052  1  0.009898  0  -0.011155  0.070049  0  3.919406  0
C  C72  1  0.89128669  0.36821279  0.54019413  1  0.000285  0  -0.00799  0.079648  0  3.916362  0
C  C73  1  0.10835065  0.63517308  0.54046409  1  0.009654  0  -0.011079  0.070155  0  3.919397  0
C  C74  1  0.04987305  0.30381481  0.47720533  1  -0.089662  0  -0.104724  -0.152778  0  4.040975  0
C  C75  1  0.95121963  0.69910104  0.47624235  1  -0.122935  0  -0.106447  -0.156215  0  4.042081  0
C  C76  1  0.95010898  0.30381351  0.52280164  1  -0.02854  0  -0.104796  -0.1529  0  4.040769  0
C  C77  1  0.04878860  0.69910069  0.52375932  1  -0.07485  0  -0.106461  -0.156329  0  4.042122  0
C  C78  1  0.93790037  0.43527051  0.51168148  1  0.013919  0  0.006897  0.026909  0  3.918057  0
C  C79  1  0.06310649  0.56779580  0.51007627  1  0.003839  0  0.00804  0.033334  0  3.896394  0
C  C80  1  0.06209190  0.43526968  0.48832627  1  -0.041654  0  0.006902  0.027002  0  3.917939  0
C  C81  1  0.93689150  0.56779661  0.48992922  1  -0.053218  0  0.008217  0.033422  0  3.896359  0
C  C82  1  0.87224720  0.50181561  0.50138191  1  0.047724  0  -0.01096  -0.122077  0  3.884144  0
C  C83  1  0.12774794  0.50181406  0.49862292  1  0.04777  0  -0.010937  -0.122097  0  3.884187  0
C  C84  1  0.47632577  0.56126884  0.74449292  1  -0.023531  0  -0.072351  -0.071678  0  3.96499  0
C  C85  1  0.47007845  0.43230300  0.25371047  1  -0.029833  0  -0.074729  -0.074922  0  3.965309  0
C  C86  1  0.52366939  0.56126567  0.25551097  1  -0.023491  0  -0.072359  -0.071677  0  3.964739  0
C  C87  1  0.52993739  0.43231031  0.74629519  1  -0.029656  0  -0.074844  -0.075094  0  3.965128  0
C  C88  1  0.47664654  0.56268988  0.81532206  1  -0.100927  0  -0.082863  -0.125182  0  3.979218  0
C  C89  1  0.46775628  0.43367023  0.18285066  1  -0.017647  0  -0.081901  -0.122219  0  3.976225  0
C  C90  1  0.52334592  0.56268451  0.18468083  1  -0.101047  0  -0.082826  -0.125222  0  3.979064  0
C  C91  1  0.53225868  0.43368030  0.81715450  1  -0.017856  0  -0.081967  -0.122266  0  3.976163  0
C  C92  1  0.50447132  0.49879568  0.85187547  1  -0.000929  0  -0.009339  0.058063  0  4.041457  0
C  C93  1  0.49552650  0.49878906  0.14812883  1  -0.000977  0  -0.00956  0.058033  0  4.041301  0
C  C94  1  0.20588422  0.36751735  0.40535726  1  0.029239  0  -0.167139  -0.138908  0  3.977458  0
C  C95  1  0.15295144  0.34710479  0.33547026  1  -0.089549  0  -0.242534  -0.348262  0  3.956294  0
C  C96  1  0.79877713  0.63526892  0.40284287  1  -0.045454  0  -0.170243  -0.154672  0  3.990402  0
C  C97  1  0.82963641  0.58073451  0.34562307  1  -0.06104  0  -0.245593  -0.342308  0  3.940612  0
C  C98  1  0.79410699  0.36751956  0.59465389  1  0.028645  0  -0.167315  -0.139098  0  3.97805  0
C  C99  1  0.84705125  0.34711993  0.66453916  1  -0.089108  0  -0.242594  -0.348263  0  3.956382  0
C  C100  1  0.20122374  0.63526834  0.59716175  1  -0.045284  0  -0.170335  -0.154923  0  3.990575  0
C  C101  1  0.17036088  0.58073320  0.65438000  1  -0.060885  0  -0.245541  -0.342185  0  3.940635  0
C  C102  1  0.72471447  0.49951781  0.92966287  1  0.847335  0  0.177357  0.216472  0  4.026472  0
C  C103  1  0.27527336  0.49950060  0.07034450  1  0.846837  0  0.177571  0.216888  0  4.026576  0
C  C104  1  0.71947529  0.50042817  0.07485528  1  0.827219  0  0.177424  0.216386  0  4.02636  0
C  C105  1  0.28052164  0.50041761  0.92514750  1  0.826947  0  0.177324  0.216379  0  4.0262  0
C  C106  1  0.44182695  0.16180538  0.62222729  1  0.846713  0  0.180404  0.225222  0  4.034987  0
C  C107  1  0.29910061  0.83338734  0.44252155  1  0.851439  0  0.18277  0.226974  0  4.035358  0
C  C108  1  0.55819827  0.16180571  0.37776854  1  0.847002  0  0.18053  0.225389  0  4.035288  0
C  C109  1  0.70091155  0.83338573  0.55748043  1  0.851721  0  0.182918  0.22789  0  4.035755  0
N  N110  1  0.49999743  0.31045952  0.49999867  1  -1.206503  0  -0.307715  -0.177555  0  3.542049  0
N  N111  1  0.50000037  0.68506448  0.50000052  1  -1.210565  0  -0.30847  -0.178857  0  3.529607  0
N  N112  1  0.81735020  0.49947689  0.90050924  1  -1.039988  0  -0.27005  -0.29178  0  2.649652  0
N  N113  1  0.18264853  0.49945312  0.09949812  1  -1.039678  0  -0.270146  -0.291991  0  2.650341  0
N  N114  1  0.80958347  0.50055362  0.10619406  1  -1.033031  0  -0.268792  -0.29027  0  2.650678  0
N  N115  1  0.19041528  0.50054090  0.89380413  1  -1.032694  0  -0.268682  -0.290243  0  2.650369  0
N  N116  1  0.41940792  0.13517282  0.67491607  1  -1.067887  0  -0.288477  -0.319333  0  2.652307  0
N  N117  1  0.21407132  0.85974176  0.41677336  1  -1.08148  0  -0.288537  -0.322458  0  2.659651  0
N  N118  1  0.58061688  0.13517437  0.32508460  1  -1.068314  0  -0.288576  -0.319458  0  2.652732  0
N  N119  1  0.78594398  0.85974008  0.58322837  1  -1.08145  0  -0.28867  -0.322585  0  2.659313  0
O  O120  1  0.47808800  0.43361809  0.39585969  1  -1.163628  0  -0.311461  -0.549538  0  2.354484  0
O  O121  1  0.47371010  0.55462210  0.60322180  1  -1.164143  0  -0.309486  -0.535676  0  2.345586  0
O  O122  1  0.52190879  0.43361987  0.60414447  1  -1.16385  0  -0.311369  -0.549461  0  2.354523  0
O  O123  1  0.52629223  0.55461895  0.39678100  1  -1.164194  0  -0.30945  -0.535638  0  2.345664  0
O  O124  1  0.31786905  0.44289397  0.51836538  1  -1.157323  0  -0.311669  -0.543571  0  2.34221  0
O  O125  1  0.68156848  0.55954088  0.52039519  1  -1.165815  0  -0.314957  -0.550495  0  2.360381  0
O  O126  1  0.68212516  0.44289225  0.48163888  1  -1.157239  0  -0.311724  -0.543668  0  2.342102  0
O  O127  1  0.31842665  0.55954040  0.47960563  1  -1.165819  0  -0.314984  -0.550516  0  2.360363  0
