# generated using pymatgen
data_Zn2H14C29N8Cl
_symmetry_space_group_name_H-M   'P 1'
_cell_length_a   18.52121946
_cell_length_b   18.50901850
_cell_length_c   18.55934262
_cell_angle_alpha   101.12566725
_cell_angle_beta   109.81176721
_cell_angle_gamma   111.11850995
_symmetry_Int_Tables_number   1
_chemical_formula_structural   Zn2H14C29N8Cl
_chemical_formula_sum   'Zn4 H28 C58 N16 Cl2'
_cell_volume   5211.47177492
_cell_formula_units_Z   2
loop_
 _symmetry_equiv_pos_site_id
 _symmetry_equiv_pos_as_xyz
  1  'x, y, z'
loop_
 _atom_site_type_symbol
 _atom_site_label
 _atom_site_symmetry_multiplicity
 _atom_site_fract_x
 _atom_site_fract_y
 _atom_site_fract_z
 _atom_site_occupancy
 _atom_site_pbe_bader_charge
 _atom_site_pbe_bader_spin_density
 _atom_site_pbe_cm5_charge
 _atom_site_pbe_ddec_charge
 _atom_site_pbe_ddec_spin_density
 _atom_site_pbe_ddec_sum_bond_order
 _atom_site_pbe_magmom
Zn  Zn0  1  0.89595825  0.00551122  0.38323267  1  1.195218  0  0.748288  0.624051  0  2.411617  0
Zn  Zn1  1  0.10827297  0.99157622  0.58936675  1  1.188269  0  0.746486  0.624518  0  2.409183  0
Zn  Zn2  1  0.11309426  0.11248960  0.48239138  1  1.198445  0  0.744211  0.644712  0  2.37147  0
Zn  Zn3  1  0.89459814  0.89155077  0.50163873  1  1.198614  0  0.746086  0.632456  0  2.432927  0
H  H4  1  0.87856194  0.89143067  0.21610761  1  0.097349  0  0.121803  0.108399  0  1.010823  0
H  H5  1  0.14686593  0.96803058  0.76985181  1  0.114551  0  0.126701  0.116339  0  0.981926  0
H  H6  1  0.55688704  0.45482818  0.88669180  1  0.043427  0  0.099488  0.091835  0  0.990713  0
H  H7  1  0.47117394  0.48229013  0.10917211  1  0.055359  0  0.099494  0.091921  0  0.988955  0
H  H8  1  0.14740133  0.86111721  0.49096082  1  0.159454  0  0.124926  0.115967  0  0.992389  0
H  H9  1  0.85551634  0.15547509  0.32582711  1  0.107735  0  0.126512  0.116933  0  0.982882  0
H  H10  1  0.31784182  0.16326857  0.49649569  1  0.089282  0  0.126423  0.11762  0  0.982829  0
H  H11  1  0.85128794  0.98894727  0.63064096  1  0.113427  0  0.125924  0.115668  0  0.990603  0
H  H12  1  0.30710653  0.00753828  0.64351451  1  0.120248  0  0.125601  0.116085  0  0.982731  0
H  H13  1  0.85217365  0.13614030  0.47478580  1  0.137102  0  0.123721  0.112994  0  0.997721  0
H  H14  1  0.74268784  0.85507016  0.20894206  1  0.096114  0  0.125804  0.115764  0  0.98132  0
H  H15  1  0.16711868  0.11019704  0.76347415  1  0.101349  0  0.121207  0.113109  0  1.004151  0
H  H16  1  0.86768668  0.72321159  0.38048588  1  0.12824  0  0.113949  0.106067  0  1.03903  0
H  H17  1  0.13430021  0.29141841  0.46573645  1  0.089982  0  0.116225  0.107477  0  1.014676  0
H  H18  1  0.15812474  0.02455048  0.35153519  1  0.150573  0  0.124322  0.116378  0  0.994466  0
H  H19  1  0.86684570  0.84278425  0.65880647  1  0.099432  0  0.127933  0.118673  0  0.981223  0
H  H20  1  0.64677899  0.45425957  0.04342105  1  0.067501  0  0.099893  0.0929  0  0.992522  0
H  H21  1  0.38067424  0.48350685  0.95150935  1  0.066581  0  0.099858  0.092434  0  0.987663  0
H  H22  1  0.61776003  0.36803588  0.13099592  1  0.033878  0  0.086458  0.109627  0  1.008601  0
H  H23  1  0.54881925  0.38424620  0.17198568  1  0.024501  0  0.086293  0.111631  0  1.003162  0
H  H24  1  0.53993466  0.28343228  0.13858819  1  0.031374  0  0.087217  0.11222  0  1.002049  0
H  H25  1  0.41914894  0.29248631  0.03193151  1  0.018764  0  0.092037  0.086363  0  0.974814  0
H  H26  1  0.48953054  0.27875403  0.99254887  1  0.021158  0  0.092434  0.08689  0  0.971267  0
H  H27  1  0.50750976  0.54920686  0.82471061  1  0.005003  0  0.085128  0.107572  0  1.01121  0
H  H28  1  0.42421738  0.56116012  0.84391783  1  -0.010823  0  0.086076  0.111287  0  1.004324  0
H  H29  1  0.50890441  0.64750530  0.84551514  1  0.025366  0  0.086397  0.111168  0  1.002537  0
H  H30  1  0.53514638  0.65752122  0.99079798  1  0.0239  0  0.091068  0.085334  0  0.978241  0
H  H31  1  0.61683285  0.64431918  0.97027144  1  0.054137  0  0.092729  0.087758  0  0.972161  0
C  C32  1  0.94537719  0.92898328  0.26182056  1  0.434741  0  0.023219  -0.031519  0  3.915839  0
C  C33  1  0.07797110  0.93864658  0.72959051  1  0.401617  0  0.021055  -0.044347  0  3.955638  0
C  C34  1  0.00915499  0.75924781  0.42283469  1  0.099111  0  -0.024224  0.034868  0  4.189477  0
C  C35  1  0.99392162  0.25630776  0.39218896  1  0.11575  0  -0.027375  0.033512  0  4.210401  0
C  C36  1  0.34982181  0.09002370  0.57560264  1  0.128094  0  -0.028487  0.031425  0  4.210277  0
C  C37  1  0.83114507  0.07717341  0.56657448  1  0.133547  0  -0.023508  0.034838  0  4.188742  0
C  C38  1  0.71412023  0.75278724  0.25954920  1  0.13621  0  -0.029625  -0.005368  0  4.188056  0
C  C39  1  0.23079403  0.22109550  0.73326887  1  0.15364  0  -0.026251  0.005868  0  4.172725  0
C  C40  1  0.49965586  0.39974607  0.01813950  1  0.014872  0  0.003786  0.091342  0  3.628867  0
C  C41  1  0.52803021  0.53761939  0.97658969  1  0.037668  0  0.003472  0.107683  0  3.607697  0
C  C42  1  0.58745680  0.46088518  0.02300189  1  -0.029448  0  -0.073002  -0.114176  0  3.627681  0
C  C43  1  0.44058713  0.47804397  0.97302995  1  -0.041695  0  -0.072309  -0.109605  0  3.625216  0
C  C44  1  0.67032439  0.67768566  0.19244219  1  -0.637938  0  -0.072744  -0.124613  0  4.214926  0
C  C45  1  0.30616278  0.28044045  0.80413008  1  -0.284148  0  -0.071457  -0.122649  0  4.209812  0
C  C46  1  0.48899228  0.47545456  0.05866893  1  -0.027052  0  -0.073311  -0.109645  0  3.634029  0
C  C47  1  0.53786871  0.46133477  0.93641963  1  -0.026627  0  -0.073502  -0.113758  0  3.629878  0
C  C48  1  0.57795854  0.53783764  0.06547964  1  0.070385  0  0.002462  0.09472  0  3.797861  0
C  C49  1  0.44818541  0.40040758  0.93005984  1  0.09768  0  0.003128  0.097032  0  3.799686  0
C  C50  1  0.63498793  0.61210412  0.13486144  1  0.306438  0  -0.050292  -0.106239  0  4.117243  0
C  C51  1  0.37524362  0.33296035  0.86141559  1  -0.090076  0  -0.051023  -0.106219  0  4.120195  0
C  C52  1  0.01125987  0.68342197  0.40226910  1  0.020008  0  -0.025403  -0.055842  0  4.064566  0
C  C53  1  0.99316192  0.33038890  0.38685693  1  -0.051337  0  -0.028589  -0.062045  0  4.080068  0
C  C54  1  0.07839493  0.84003453  0.46914308  1  0.381328  0  0.022693  -0.034328  0  3.913592  0
C  C55  1  0.92413153  0.17585631  0.36081834  1  0.436791  0  0.01974  -0.047019  0  3.960979  0
C  C56  1  0.00838666  0.61454014  0.39229352  1  -0.198249  0  -0.047089  -0.06115  0  4.335161  0
C  C57  1  0.99624109  0.39750729  0.38493394  1  -0.098144  0  -0.048402  -0.061055  0  4.341584  0
C  C58  1  0.00466551  0.53984538  0.38637440  1  -0.048743  0  -0.029148  -0.019559  0  4.256829  0
C  C59  1  0.00020715  0.47115384  0.38455665  1  -0.037171  0  -0.029669  -0.02173  0  4.259025  0
C  C60  1  0.77599821  0.10105595  0.58943454  1  -0.230805  0  -0.026544  -0.06002  0  4.062596  0
C  C61  1  0.43225553  0.10034960  0.58764140  1  -0.042805  0  -0.028838  -0.061468  0  4.079739  0
C  C62  1  0.71734305  0.11105892  0.59943605  1  0.024713  0  -0.046657  -0.05935  0  4.330037  0
C  C63  1  0.50382989  0.10811715  0.59599356  1  -0.135938  0  -0.049466  -0.064916  0  4.340749  0
C  C64  1  0.64803760  0.11532676  0.60371668  1  -0.130459  0  -0.028512  -0.019777  0  4.248082  0
C  C65  1  0.57998012  0.11358819  0.60189674  1  0.03026  0  -0.028804  -0.018723  0  4.251265  0
C  C66  1  0.02554832  0.92792935  0.17650416  1  -0.005288  0  -0.024759  -0.055192  0  4.067117  0
C  C67  1  0.01203669  0.90230144  0.82458116  1  -0.159484  0  -0.029364  -0.065052  0  4.085206  0
C  C68  1  0.02513345  0.91756345  0.10878337  1  -0.134951  0  -0.047691  -0.063606  0  4.335537  0
C  C69  1  0.01607682  0.90338008  0.89238645  1  -0.069048  0  -0.04837  -0.061035  0  4.344548  0
C  C70  1  0.02331025  0.91013613  0.03482259  1  0.01537  0  -0.027607  -0.017075  0  4.253966  0
C  C71  1  0.02014418  0.90605914  0.96641306  1  -0.081536  0  -0.030129  -0.021361  0  4.255849  0
C  C72  1  0.30059903  0.12292257  0.52969708  1  0.460311  0  0.020097  -0.046767  0  3.959645  0
C  C73  1  0.85872652  0.01869717  0.58679883  1  0.444843  0  0.024782  -0.030021  0  3.910497  0
C  C74  1  0.73906402  0.76539222  0.34360253  1  0.601283  0  0.109327  0.165202  0  4.093658  0
C  C75  1  0.20116778  0.22632004  0.65445380  1  0.583438  0  0.113109  0.176986  0  4.063335  0
C  C76  1  0.29520898  0.04337821  0.60506677  1  0.427091  0  0.019801  -0.046366  0  3.953981  0
C  C77  1  0.85910619  0.09408709  0.50695532  1  0.413117  0  0.025001  -0.028325  0  3.903908  0
C  C78  1  0.74856500  0.83479937  0.26087504  1  0.447868  0  0.019448  -0.035872  0  3.958302  0
C  C79  1  0.17050442  0.14097978  0.71961160  1  0.443641  0  0.012234  -0.043881  0  3.936166  0
C  C80  1  0.93493564  0.76984442  0.41239626  1  0.425832  0  0.022995  -0.024911  0  3.900031  0
C  C81  1  0.06682914  0.24534251  0.43219182  1  0.459996  0  0.019906  -0.034882  0  3.950355  0
C  C82  1  0.08870701  0.99714783  0.33082522  1  0.405296  0  0.021626  -0.036966  0  3.9167  0
C  C83  1  0.93470272  0.87445275  0.67287277  1  0.435829  0  0.023575  -0.040528  0  3.947766  0
C  C84  1  0.02110038  0.94702070  0.25112821  1  0.087484  0  -0.024887  0.034093  0  4.195395  0
C  C85  1  0.00834621  0.90413600  0.74846417  1  0.149375  0  -0.026492  0.031852  0  4.216319  0
C  C86  1  0.48559605  0.32285527  0.03866415  1  0.023607  0  -0.160145  -0.147319  0  4.02051  0
C  C87  1  0.55153824  0.34053838  0.12483764  1  -0.073596  0  -0.241309  -0.345076  0  3.982488  0
C  C88  1  0.54709434  0.61320102  0.95353744  1  -0.021676  0  -0.160613  -0.151826  0  4.018577  0
C  C89  1  0.49396389  0.59176274  0.86188260  1  -0.004081  0  -0.241368  -0.343887  0  3.981358  0
N  N90  1  0.96700686  0.96705393  0.34075670  1  -0.7599  0  -0.277857  -0.176238  0  3.615107  0
N  N91  1  0.04805238  0.93034956  0.65014951  1  -0.749621  0  -0.265757  -0.174197  0  3.531158  0
N  N92  1  0.04694209  0.89292319  0.48604645  1  -0.801269  0  -0.283524  -0.188297  0  3.629719  0
N  N93  1  0.95354894  0.12231592  0.38032062  1  -0.801203  0  -0.267677  -0.179659  0  3.542975  0
N  N94  1  0.22415083  0.09776354  0.53191421  1  -0.783802  0  -0.263265  -0.182539  0  3.539194  0
N  N95  1  0.89708589  0.00113685  0.54092020  1  -0.814912  0  -0.282131  -0.187209  0  3.626186  0
N  N96  1  0.78639236  0.84651360  0.39053502  1  -0.805179  0  -0.277031  -0.255114  0  3.487821  0
N  N97  1  0.13107199  0.15552190  0.59916669  1  -0.778225  0  -0.284146  -0.251187  0  3.555649  0
N  N98  1  0.22076739  0.04848893  0.57882943  1  -0.807535  0  -0.265236  -0.176539  0  3.539251  0
N  N99  1  0.89739168  0.04731644  0.49188926  1  -0.77498  0  -0.27853  -0.180981  0  3.600225  0
N  N100  1  0.79184220  0.88996586  0.33826993  1  -0.787072  0  -0.269276  -0.172415  0  3.52504  0
N  N101  1  0.11218609  0.10176241  0.63932371  1  -0.770063  0  -0.285299  -0.19081  0  3.526278  0
N  N102  1  0.95894932  0.84981604  0.45125416  1  -0.77953  0  -0.279796  -0.183756  0  3.602908  0
N  N103  1  0.04227419  0.16567756  0.42487212  1  -0.799475  0  -0.26772  -0.180554  0  3.547915  0
N  N104  1  0.05483278  0.00892244  0.38308930  1  -0.79789  0  -0.278532  -0.188081  0  3.624833  0
N  N105  1  0.95904842  0.89030093  0.61493164  1  -0.830258  0  -0.267304  -0.17719  0  3.546128  0
Cl  Cl106  1  0.71692499  0.69256110  0.38770464  1  -0.19429  0  0.01598  -0.062662  0  1.487972  0
Cl  Cl107  1  0.24740267  0.30676473  0.62645094  1  -0.197246  0  0.021917  -0.059073  0  1.510229  0
