# generated using pymatgen
data_CdH8C8N6ClO4
_symmetry_space_group_name_H-M   'P 1'
_cell_length_a   7.65588771
_cell_length_b   12.29111039
_cell_length_c   15.38284384
_cell_angle_alpha   104.04320125
_cell_angle_beta   90.00183481
_cell_angle_gamma   90.00056351
_symmetry_Int_Tables_number   1
_chemical_formula_structural   CdH8C8N6ClO4
_chemical_formula_sum   'Cd4 H32 C32 N24 Cl4 O16'
_cell_volume   1404.25392786
_cell_formula_units_Z   4
loop_
 _symmetry_equiv_pos_site_id
 _symmetry_equiv_pos_as_xyz
  1  'x, y, z'
loop_
 _atom_site_type_symbol
 _atom_site_label
 _atom_site_symmetry_multiplicity
 _atom_site_fract_x
 _atom_site_fract_y
 _atom_site_fract_z
 _atom_site_occupancy
 _atom_site_hle17_bader_spin_density
 _atom_site_hle17_ddec_charge
 _atom_site_hle17_ddec_spin_density
 _atom_site_hle17_ddec_sum_bond_order
 _atom_site_hle17_magmom
 _atom_site_hse06_10hf_bader_spin_density
 _atom_site_hse06_10hf_ddec_charge
 _atom_site_hse06_10hf_ddec_spin_density
 _atom_site_hse06_10hf_ddec_sum_bond_order
 _atom_site_hse06_10hf_magmom
 _atom_site_hse06_bader_spin_density
 _atom_site_hse06_ddec_charge
 _atom_site_hse06_ddec_spin_density
 _atom_site_hse06_ddec_sum_bond_order
 _atom_site_hse06_magmom
 _atom_site_pbe_bader_spin_density
 _atom_site_pbe_cm5_charge
 _atom_site_pbe_ddec_charge
 _atom_site_pbe_ddec_spin_density
 _atom_site_pbe_ddec_sum_bond_order
 _atom_site_pbe_magmom
Cd  Cd0  1  0.85412586  0.00301082  0.74220518  1  0  0.943878  0  1.973852  0  0  0.746646  0  2.449214  0  0  0.793925  0  2.409331  0  0  0.700397  0.713867  0  2.476039  0
Cd  Cd1  1  0.35413226  0.99698222  0.75778277  1  0  0.943952  0  1.973903  0  0  0.746747  0  2.44926  0  0  0.794029  0  2.409367  0  0  0.700435  0.713973  0  2.476078  0
Cd  Cd2  1  0.14585479  0.99698998  0.25779274  1  0  0.943821  0  1.97404  0  0  0.746591  0  2.449412  0  0  0.793872  0  2.409522  0  0  0.700404  0.713819  0  2.476231  0
Cd  Cd3  1  0.64585622  0.00301309  0.24220119  1  0  0.943945  0  1.973893  0  0  0.746736  0  2.449259  0  0  0.794022  0  2.409357  0  0  0.700416  0.713964  0  2.476074  0
H  H4  1  0.88709540  0.69906051  0.69686163  1  0  0.132741  0  0.933179  0  0  0.138155  0  0.998383  0  0  0.141721  0  0.993806  0  0  0.148105  0.135447  0  1.001793  0
H  H5  1  0.38710935  0.30093336  0.80313997  1  0  0.132707  0  0.933195  0  0  0.138167  0  0.998323  0  0  0.141719  0  0.993757  0  0  0.148074  0.135461  0  1.001745  0
H  H6  1  0.11290353  0.30094546  0.30316514  1  0  0.132701  0  0.933215  0  0  0.138241  0  0.998289  0  0  0.141814  0  0.9937  0  0  0.148113  0.135538  0  1.001697  0
H  H7  1  0.61288305  0.69905188  0.19681819  1  0  0.132543  0  0.933434  0  0  0.138292  0  0.99828  0  0  0.141853  0  0.9937  0  0  0.148084  0.135575  0  1.001701  0
H  H8  1  0.33775454  0.69564252  0.72866161  1  0  0.130108  0  0.956802  0  0  0.133945  0  1.026925  0  0  0.137403  0  1.022753  0  0  0.144296  0.131369  0  1.029978  0
H  H9  1  0.83776408  0.30434416  0.77133994  1  0  0.13012  0  0.956828  0  0  0.134091  0  1.026797  0  0  0.137537  0  1.022636  0  0  0.144352  0.131511  0  1.029852  0
H  H10  1  0.66223525  0.30433986  0.27133378  1  0  0.130056  0  0.956847  0  0  0.133997  0  1.026875  0  0  0.137459  0  1.022696  0  0  0.144317  0.131422  0  1.029927  0
H  H11  1  0.16221395  0.69566015  0.22866313  1  0  0.130153  0  0.956747  0  0  0.134043  0  1.026798  0  0  0.137491  0  1.022633  0  0  0.144342  0.131463  0  1.029856  0
H  H12  1  0.74270065  0.50648363  0.66517053  1  0  0.142507  0  0.955476  0  0  0.15222  0  1.014324  0  0  0.155828  0  1.012081  0  0  0.126999  0.149738  0  1.015817  0
H  H13  1  0.24273550  0.49349824  0.83481767  1  0  0.142433  0  0.955336  0  0  0.152252  0  1.014082  0  0  0.155851  0  1.01184  0  0  0.12698  0.149756  0  1.015605  0
H  H14  1  0.25731004  0.49351791  0.33484832  1  0  0.142569  0  0.955361  0  0  0.15222  0  1.014267  0  0  0.155835  0  1.012014  0  0  0.126984  0.149748  0  1.015769  0
H  H15  1  0.75727519  0.50648443  0.16516216  1  0  0.142571  0  0.955455  0  0  0.152223  0  1.014352  0  0  0.155816  0  1.012119  0  0  0.126979  0.149724  0  1.015915  0
H  H16  1  0.51506458  0.50465451  0.64153516  1  0  0.133852  0  0.9328  0  0  0.143805  0  0.994342  0  0  0.146885  0  0.992696  0  0  0.127634  0.141631  0  0.995523  0
H  H17  1  0.01511803  0.49534530  0.85848775  1  0  0.133881  0  0.932573  0  0  0.143808  0  0.994166  0  0  0.146876  0  0.992524  0  0  0.127592  0.141631  0  0.995378  0
H  H18  1  0.48494872  0.49533542  0.35848560  1  0  0.133916  0  0.932769  0  0  0.143879  0  0.994254  0  0  0.146961  0  0.992604  0  0  0.127654  0.141705  0  0.995462  0
H  H19  1  0.98489788  0.50466524  0.14150274  1  0  0.133972  0  0.932611  0  0  0.143833  0  0.994197  0  0  0.146909  0  0.992543  0  0  0.127681  0.141667  0  0.995397  0
H  H20  1  0.79410581  0.89379147  0.93003648  1  0  0.12235  0  0.899423  0  0  0.13315  0  0.956993  0  0  0.135918  0  0.953681  0  0  0.150721  0.131048  0  0.959507  0
H  H21  1  0.29408785  0.10619691  0.56995560  1  0  0.122329  0  0.899511  0  0  0.133289  0  0.956909  0  0  0.136059  0  0.953595  0  0  0.150779  0.131184  0  0.959431  0
H  H22  1  0.20589834  0.10619179  0.06996037  1  0  0.122354  0  0.899568  0  0  0.13327  0  0.957015  0  0  0.13604  0  0.953701  0  0  0.150791  0.131166  0  0.959534  0
H  H23  1  0.70589932  0.89378669  0.43002700  1  0  0.122368  0  0.899393  0  0  0.133176  0  0.956953  0  0  0.135944  0  0.95364  0  0  0.150725  0.131072  0  0.959468  0
H  H24  1  0.33699185  0.83162901  0.93255158  1  0  0.129392  0  0.898173  0  0  0.140487  0  0.953799  0  0  0.14318  0  0.950641  0  0  0.153893  0.138426  0  0.956224  0
H  H25  1  0.83699461  0.16837146  0.56746341  1  0  0.12931  0  0.89827  0  0  0.140465  0  0.95385  0  0  0.143161  0  0.950692  0  0  0.153927  0.138388  0  0.956292  0
H  H26  1  0.66301492  0.16837791  0.06745455  1  0  0.129346  0  0.898204  0  0  0.140504  0  0.953778  0  0  0.143198  0  0.950618  0  0  0.153923  0.138441  0  0.956203  0
H  H27  1  0.16301216  0.83162735  0.43254913  1  0  0.129278  0  0.898231  0  0  0.140432  0  0.953823  0  0  0.143129  0  0.950662  0  0  0.153883  0.138362  0  0.956256  0
H  H28  1  0.96261581  0.81201004  0.07191774  1  0  0.114094  0  0.951362  0  0  0.119366  0  1.024923  0  0  0.120779  0  1.025237  0  0  0.116828  0.118383  0  1.024794  0
H  H29  1  0.46261415  0.18799749  0.42808315  1  0  0.114088  0  0.951289  0  0  0.11935  0  1.024846  0  0  0.120749  0  1.025168  0  0  0.116783  0.118364  0  1.02472  0
H  H30  1  0.03737137  0.18800266  0.92808679  1  0  0.113939  0  0.951429  0  0  0.119309  0  1.024912  0  0  0.120704  0  1.025229  0  0  0.116792  0.118323  0  1.024782  0
H  H31  1  0.53737433  0.81202003  0.57191635  1  0  0.114111  0  0.951352  0  0  0.119383  0  1.024919  0  0  0.120791  0  1.025235  0  0  0.116796  0.118409  0  1.024805  0
H  H32  1  0.14680751  0.73036620  0.02645152  1  0  0.138366  0  0.889707  0  0  0.155247  0  0.938348  0  0  0.15756  0  0.936921  0  0  0.13299  0.153548  0  0.939534  0
H  H33  1  0.64682881  0.26963701  0.47354635  1  0  0.138411  0  0.889937  0  0  0.155308  0  0.938519  0  0  0.157604  0  0.937106  0  0  0.133013  0.153605  0  0.939703  0
H  H34  1  0.85318881  0.26964333  0.97355766  1  0  0.138345  0  0.889762  0  0  0.155226  0  0.938421  0  0  0.157522  0  0.936995  0  0  0.133037  0.153524  0  0.939601  0
H  H35  1  0.35320016  0.73035673  0.52644059  1  0  0.138273  0  0.88981  0  0  0.1552  0  0.938398  0  0  0.157502  0  0.936983  0  0  0.133003  0.153513  0  0.93959  0
C  C36  1  0.75272884  0.72837953  0.70796005  1  0  0.209375  0  3.564201  0  0  0.139772  0  3.838444  0  0  0.155654  0  3.847327  0  0  0.179259  0.129275  0  3.832366  0
C  C37  1  0.25274026  0.27160891  0.79204635  1  0  0.209335  0  3.564293  0  0  0.139744  0  3.838477  0  0  0.155658  0  3.847341  0  0  0.179263  0.129245  0  3.832401  0
C  C38  1  0.24726748  0.27161595  0.29205256  1  0  0.209345  0  3.564343  0  0  0.139562  0  3.838717  0  0  0.155457  0  3.847585  0  0  0.17922  0.129066  0  3.832638  0
C  C39  1  0.74724430  0.72837979  0.20793907  1  0  0.209434  0  3.564191  0  0  0.139518  0  3.838512  0  0  0.155423  0  3.847383  0  0  0.179213  0.129029  0  3.832433  0
C  C40  1  0.47031018  0.72687736  0.72574162  1  0  0.180731  0  3.592691  0  0  0.112217  0  3.86591  0  0  0.12665  0  3.876994  0  0  0.169739  0.102847  0  3.858377  0
C  C41  1  0.97032465  0.27311045  0.77425177  1  0  0.180549  0  3.59273  0  0  0.11191  0  3.865977  0  0  0.126352  0  3.877063  0  0  0.169546  0.102542  0  3.858445  0
C  C42  1  0.52967568  0.27311161  0.27425166  1  0  0.180652  0  3.592768  0  0  0.112017  0  3.866042  0  0  0.126449  0  3.877123  0  0  0.169632  0.102645  0  3.858507  0
C  C43  1  0.02966253  0.72688842  0.22573866  1  0  0.180455  0  3.592949  0  0  0.111895  0  3.866206  0  0  0.126331  0  3.877296  0  0  0.169616  0.102523  0  3.858678  0
C  C44  1  0.61492303  0.53825925  0.69208162  1  0  -0.180703  0  3.604521  0  0  -0.237525  0  3.841393  0  0  -0.239734  0  3.848425  0  0  -0.052981  -0.235932  0  3.836763  0
C  C45  1  0.11493597  0.46173688  0.80792463  1  0  -0.180643  0  3.603982  0  0  -0.237463  0  3.840964  0  0  -0.239724  0  3.848097  0  0  -0.052979  -0.235883  0  3.836328  0
C  C46  1  0.38508374  0.46174231  0.30793789  1  0  -0.180958  0  3.604448  0  0  -0.237707  0  3.841305  0  0  -0.239946  0  3.848371  0  0  -0.053034  -0.236153  0  3.83672  0
C  C47  1  0.88506297  0.53826178  0.19205991  1  0  -0.181  0  3.604294  0  0  -0.237606  0  3.841234  0  0  -0.239882  0  3.848386  0  0  -0.053104  -0.236074  0  3.83664  0
C  C48  1  0.57074124  0.49891729  0.77588159  1  0  0.654877  0  3.866191  0  0  0.60414  0  4.191598  0  0  0.636867  0  4.183925  0  0  0.215661  0.582019  0  4.196072  0
C  C49  1  0.07070737  0.50107221  0.72413909  1  0  0.655004  0  3.865401  0  0  0.603892  0  4.191231  0  0  0.636756  0  4.183466  0  0  0.215649  0.581878  0  4.195638  0
C  C50  1  0.42927728  0.50108291  0.22414679  1  0  0.654773  0  3.866265  0  0  0.604037  0  4.191648  0  0  0.63681  0  4.18393  0  0  0.215598  0.581936  0  4.196128  0
C  C51  1  0.92929679  0.49892759  0.27585410  1  0  0.655298  0  3.865773  0  0  0.60428  0  4.191429  0  0  0.637176  0  4.183659  0  0  0.21587  0.582287  0  4.195847  0
C  C52  1  0.93274507  0.89541012  0.91625971  1  0  0.188582  0  3.620871  0  0  0.116716  0  3.902667  0  0  0.131777  0  3.913031  0  0  0.167853  0.106778  0  3.895669  0
C  C53  1  0.43272931  0.10458632  0.58373004  1  0  0.188429  0  3.620846  0  0  0.116429  0  3.902657  0  0  0.13149  0  3.913028  0  0  0.16767  0.106489  0  3.895657  0
C  C54  1  0.06725778  0.10458206  0.08373022  1  0  0.188464  0  3.620809  0  0  0.116486  0  3.902625  0  0  0.131549  0  3.912989  0  0  0.167716  0.10655  0  3.895624  0
C  C55  1  0.56725525  0.89540575  0.41625662  1  0  0.188544  0  3.62096  0  0  0.116685  0  3.902721  0  0  0.131752  0  3.913084  0  0  0.167819  0.106753  0  3.895719  0
C  C56  1  0.21174941  0.86349713  0.91694651  1  0  0.183917  0  3.602357  0  0  0.114375  0  3.877895  0  0  0.128605  0  3.888874  0  0  0.173665  0.105015  0  3.870437  0
C  C57  1  0.71174357  0.13651356  0.58306506  1  0  0.18408  0  3.602399  0  0  0.114454  0  3.87792  0  0  0.128684  0  3.888897  0  0  0.17365  0.10511  0  3.870472  0
C  C58  1  0.78825736  0.13650710  0.08305396  1  0  0.183906  0  3.602414  0  0  0.114294  0  3.877956  0  0  0.128525  0  3.888934  0  0  0.173637  0.104941  0  3.870496  0
C  C59  1  0.28825536  0.86349327  0.41693846  1  0  0.184146  0  3.602359  0  0  0.114516  0  3.877925  0  0  0.128745  0  3.888902  0  0  0.173697  0.10516  0  3.87047  0
C  C60  1  0.02270664  0.76467932  0.00949907  1  0  -0.162125  0  3.602909  0  0  -0.223949  0  3.85228  0  0  -0.223555  0  3.858368  0  0  -0.053122  -0.224298  0  3.848373  0
C  C61  1  0.52271809  0.23533262  0.49050035  1  0  -0.162514  0  3.602822  0  0  -0.224263  0  3.852234  0  0  -0.22384  0  3.858306  0  0  -0.053285  -0.224601  0  3.848317  0
C  C62  1  0.97728968  0.23532846  0.99050786  1  0  -0.162232  0  3.602547  0  0  -0.224162  0  3.852049  0  0  -0.223712  0  3.858077  0  0  -0.053287  -0.224492  0  3.848119  0
C  C63  1  0.47730827  0.76466653  0.50949793  1  0  -0.162258  0  3.60275  0  0  -0.22404  0  3.852255  0  0  -0.223648  0  3.858354  0  0  -0.053227  -0.224455  0  3.84844  0
C  C64  1  0.89977804  0.66914534  0.96291885  1  0  0.618706  0  3.918794  0  0  0.579933  0  4.229384  0  0  0.611692  0  4.224823  0  0  0.204798  0.558573  0  4.231603  0
C  C65  1  0.39978367  0.33087451  0.53708288  1  0  0.619323  0  3.918176  0  0  0.580279  0  4.229013  0  0  0.612082  0  4.224477  0  0  0.204936  0.558976  0  4.23123  0
C  C66  1  0.10023657  0.33086093  0.03709237  1  0  0.619231  0  3.91831  0  0  0.580408  0  4.228981  0  0  0.61219  0  4.22438  0  0  0.204981  0.559064  0  4.231182  0
C  C67  1  0.60026620  0.66914925  0.46292810  1  0  0.619486  0  3.91905  0  0  0.580447  0  4.230031  0  0  0.612207  0  4.22548  0  0  0.204892  0.559077  0  4.232274  0
N  N68  1  0.69767980  0.83344989  0.72443377  1  0  -0.282435  0  3.174729  0  0  -0.220159  0  3.460392  0  0  -0.237277  0  3.478877  0  0  -0.252099  -0.208397  0  3.447458  0
N  N69  1  0.19769756  0.16653842  0.77556201  1  0  -0.282518  0  3.174538  0  0  -0.220272  0  3.46024  0  0  -0.237401  0  3.47871  0  0  -0.252133  -0.208522  0  3.447312  0
N  N70  1  0.30230738  0.16654615  0.27557113  1  0  -0.28251  0  3.174591  0  0  -0.220193  0  3.460282  0  0  -0.237314  0  3.478765  0  0  -0.252093  -0.208438  0  3.447357  0
N  N71  1  0.80229876  0.83345183  0.22442043  1  0  -0.282691  0  3.174743  0  0  -0.220397  0  3.460532  0  0  -0.237533  0  3.479018  0  0  -0.252157  -0.20865  0  3.447599  0
N  N72  1  0.51893278  0.83235547  0.73594072  1  0  -0.284508  0  3.211051  0  0  -0.221848  0  3.4973  0  0  -0.238923  0  3.516676  0  0  -0.257481  -0.210397  0  3.483928  0
N  N73  1  0.01894848  0.16763513  0.76405594  1  0  -0.284162  0  3.210728  0  0  -0.221483  0  3.49702  0  0  -0.238555  0  3.516392  0  0  -0.257306  -0.210033  0  3.483646  0
N  N74  1  0.48105701  0.16763520  0.26405350  1  0  -0.284379  0  3.210876  0  0  -0.221674  0  3.497128  0  0  -0.238751  0  3.516504  0  0  -0.257441  -0.210224  0  3.483758  0
N  N75  1  0.98104523  0.83236458  0.23593463  1  0  -0.284078  0  3.211019  0  0  -0.221366  0  3.49721  0  0  -0.23844  0  3.516592  0  0  -0.25729  -0.209918  0  3.483836  0
N  N76  1  0.61350995  0.65972004  0.70800388  1  0  -0.030254  0  3.538056  0  0  0.061817  0  3.760969  0  0  0.046679  0  3.783738  0  0  -0.215074  0.071546  0  3.745693  0
N  N77  1  0.11352769  0.34027374  0.79200715  1  0  -0.030334  0  3.537694  0  0  0.06181  0  3.760612  0  0  0.046627  0  3.783389  0  0  -0.215011  0.07153  0  3.745352  0
N  N78  1  0.38649160  0.34027825  0.29201766  1  0  -0.030029  0  3.537692  0  0  0.062084  0  3.760671  0  0  0.046936  0  3.783455  0  0  -0.214985  0.071823  0  3.745421  0
N  N79  1  0.88647254  0.65972329  0.20797842  1  0  -0.030072  0  3.537822  0  0  0.062061  0  3.760764  0  0  0.046884  0  3.783542  0  0  -0.215008  0.071782  0  3.745516  0
N  N80  1  0.00688242  0.95066347  0.86254654  1  0  -0.26567  0  3.161358  0  0  -0.210363  0  3.451236  0  0  -0.225531  0  3.468957  0  0  -0.247617  -0.200174  0  3.439144  0
N  N81  1  0.50686317  0.04932922  0.63744184  1  0  -0.265429  0  3.161496  0  0  -0.210134  0  3.451391  0  0  -0.225311  0  3.469126  0  0  -0.247515  -0.199943  0  3.439296  0
N  N82  1  0.99310998  0.04933063  0.13745022  1  0  -0.265689  0  3.161367  0  0  -0.210375  0  3.45128  0  0  -0.225551  0  3.469008  0  0  -0.247625  -0.200186  0  3.439184  0
N  N83  1  0.49312009  0.95066113  0.36254322  1  0  -0.26574  0  3.161485  0  0  -0.210449  0  3.451381  0  0  -0.225625  0  3.469104  0  0  -0.247656  -0.200258  0  3.439285  0
N  N84  1  0.18353454  0.93039699  0.86278696  1  0  -0.253517  0  3.155594  0  0  -0.195074  0  3.444673  0  0  -0.210362  0  3.461768  0  0  -0.24116  -0.184785  0  3.432938  0
N  N85  1  0.68351560  0.06959971  0.63721460  1  0  -0.25364  0  3.155757  0  0  -0.195143  0  3.444817  0  0  -0.210443  0  3.46193  0  0  -0.241181  -0.184858  0  3.433077  0
N  N86  1  0.81646570  0.06960807  0.13721365  1  0  -0.25348  0  3.155802  0  0  -0.195029  0  3.444895  0  0  -0.210323  0  3.461994  0  0  -0.241128  -0.184743  0  3.433161  0
N  N87  1  0.31646505  0.93039676  0.36277867  1  0  -0.253511  0  3.155538  0  0  -0.195038  0  3.444629  0  0  -0.210335  0  3.461742  0  0  -0.24114  -0.184741  0  3.432888  0
N  N88  1  0.05721445  0.84058865  0.95237870  1  0  -0.051909  0  3.568516  0  0  0.040041  0  3.796659  0  0  0.024003  0  3.820292  0  0  -0.222751  0.050528  0  3.780726  0
N  N89  1  0.55720790  0.15942176  0.54762458  1  0  -0.051844  0  3.568575  0  0  0.040125  0  3.796746  0  0  0.024078  0  3.820379  0  0  -0.222645  0.050589  0  3.780818  0
N  N90  1  0.94278970  0.15940886  0.04762060  1  0  -0.051677  0  3.568411  0  0  0.0403  0  3.796589  0  0  0.024249  0  3.820209  0  0  -0.222676  0.050777  0  3.78065  0
N  N91  1  0.44278712  0.84058409  0.45237486  1  0  -0.052042  0  3.568665  0  0  0.039927  0  3.796825  0  0  0.023899  0  3.82045  0  0  -0.222738  0.050436  0  3.780903  0
Cl  Cl92  1  0.60923550  0.09239981  0.86391322  1  0  -0.57847  0  0.866007  0  0  -0.523994  0  1.12568  0  0  -0.540831  0  1.103947  0  0  -0.340675  -0.51208  0  1.140352  0
Cl  Cl93  1  0.10922443  0.90758513  0.63608451  1  0  -0.578453  0  0.8661  0  0  -0.523961  0  1.125768  0  0  -0.540794  0  1.104022  0  0  -0.340635  -0.512051  0  1.140442  0
Cl  Cl94  1  0.39074384  0.90759018  0.13608543  1  0  -0.578433  0  0.866027  0  0  -0.523958  0  1.125728  0  0  -0.54079  0  1.103973  0  0  -0.340646  -0.512048  0  1.140399  0
Cl  Cl95  1  0.89075622  0.09241388  0.36390985  1  0  -0.578423  0  0.866016  0  0  -0.52394  0  1.125704  0  0  -0.540778  0  1.103959  0  0  -0.34064  -0.512034  0  1.140373  0
O  O96  1  0.48579357  0.56167769  0.83898126  1  0  -0.467758  0  1.766061  0  0  -0.435304  0  1.976246  0  0  -0.451941  0  1.968422  0  0  -0.24954  -0.423274  0  1.981094  0
O  O97  1  0.98573252  0.43830926  0.66103043  1  0  -0.4679  0  1.765314  0  0  -0.434792  0  1.97554  0  0  -0.452006  0  1.967749  0  0  -0.249591  -0.42327  0  1.980422  0
O  O98  1  0.51423149  0.43832475  0.16103970  1  0  -0.467659  0  1.765688  0  0  -0.43522  0  1.97585  0  0  -0.451974  0  1.968024  0  0  -0.249554  -0.423206  0  1.980691  0
O  O99  1  0.01426641  0.56170422  0.33894887  1  0  -0.468097  0  1.765459  0  0  -0.434993  0  1.97566  0  0  -0.452325  0  1.967894  0  0  -0.249779  -0.423506  0  1.98056  0
O  O100  1  0.61142031  0.39935907  0.77788097  1  0  -0.498821  0  1.772945  0  0  -0.459495  0  1.991422  0  0  -0.477425  0  1.982434  0  0  -0.259339  -0.446676  0  1.996998  0
O  O101  1  0.11139574  0.60064473  0.72213111  1  0  -0.498777  0  1.772576  0  0  -0.458782  0  1.991092  0  0  -0.477327  0  1.982171  0  0  -0.25914  -0.446399  0  1.996659  0
O  O102  1  0.38858776  0.60064521  0.22214487  1  0  -0.498495  0  1.772947  0  0  -0.459328  0  1.991464  0  0  -0.47738  0  1.982501  0  0  -0.259125  -0.446456  0  1.99698  0
O  O103  1  0.88859536  0.39936357  0.27786680  1  0  -0.498852  0  1.772917  0  0  -0.458916  0  1.991383  0  0  -0.477638  0  1.982529  0  0  -0.259203  -0.446598  0  1.996965  0
O  O104  1  0.85679139  0.59920833  0.00680292  1  0  -0.4592  0  1.756964  0  0  -0.427965  0  1.960257  0  0  -0.447729  0  1.954896  0  0  -0.25335  -0.414722  0  1.963426  0
O  O105  1  0.35684587  0.40081461  0.49319444  1  0  -0.459587  0  1.756676  0  0  -0.427711  0  1.960031  0  0  -0.447779  0  1.954708  0  0  -0.253374  -0.414839  0  1.963258  0
O  O106  1  0.14317489  0.40080360  0.99320342  1  0  -0.45951  0  1.756727  0  0  -0.428154  0  1.96008  0  0  -0.448099  0  1.954716  0  0  -0.25348  -0.414977  0  1.963247  0
O  O107  1  0.64320270  0.59923890  0.50683339  1  0  -0.459683  0  1.75715  0  0  -0.428372  0  1.96068  0  0  -0.448145  0  1.955289  0  0  -0.253436  -0.415003  0  1.96382  0
O  O108  1  0.84818889  0.66444749  0.88390395  1  0  -0.507878  0  1.819208  0  0  -0.477037  0  2.041204  0  0  -0.501497  0  2.038998  0  0  -0.267634  -0.459391  0  2.041784  0
O  O109  1  0.34821169  0.33555469  0.61608484  1  0  -0.508404  0  1.819463  0  0  -0.476958  0  2.041482  0  0  -0.501823  0  2.039376  0  0  -0.267763  -0.459624  0  2.042115  0
O  O110  1  0.15181004  0.33553675  0.11609697  1  0  -0.508195  0  1.819426  0  0  -0.477252  0  2.041441  0  0  -0.501939  0  2.039252  0  0  -0.267773  -0.459672  0  2.042017  0
O  O111  1  0.65182512  0.66445083  0.38392885  1  0  -0.508278  0  1.819657  0  0  -0.477374  0  2.041827  0  0  -0.501949  0  2.03964  0  0  -0.267693  -0.459572  0  2.042366  0
