# generated using pymatgen
data_CdH22C24N4(ClO3)2
_symmetry_space_group_name_H-M   'P 1'
_cell_length_a   6.63300184
_cell_length_b   11.42612448
_cell_length_c   17.90675593
_cell_angle_alpha   103.87715102
_cell_angle_beta   89.99584994
_cell_angle_gamma   106.84587942
_symmetry_Int_Tables_number   1
_chemical_formula_structural   CdH22C24N4(ClO3)2
_chemical_formula_sum   'Cd2 H44 C48 N8 Cl4 O12'
_cell_volume   1257.46811899
_cell_formula_units_Z   2
loop_
 _symmetry_equiv_pos_site_id
 _symmetry_equiv_pos_as_xyz
  1  'x, y, z'
loop_
 _atom_site_type_symbol
 _atom_site_label
 _atom_site_symmetry_multiplicity
 _atom_site_fract_x
 _atom_site_fract_y
 _atom_site_fract_z
 _atom_site_occupancy
 _atom_site_hle17_bader_spin_density
 _atom_site_hle17_ddec_charge
 _atom_site_hle17_ddec_spin_density
 _atom_site_hle17_ddec_sum_bond_order
 _atom_site_hle17_magmom
 _atom_site_hse06_10hf_bader_spin_density
 _atom_site_hse06_10hf_ddec_charge
 _atom_site_hse06_10hf_ddec_spin_density
 _atom_site_hse06_10hf_ddec_sum_bond_order
 _atom_site_hse06_10hf_magmom
 _atom_site_hse06_bader_spin_density
 _atom_site_hse06_ddec_charge
 _atom_site_hse06_ddec_spin_density
 _atom_site_hse06_ddec_sum_bond_order
 _atom_site_hse06_magmom
 _atom_site_pbe_bader_spin_density
 _atom_site_pbe_cm5_charge
 _atom_site_pbe_ddec_charge
 _atom_site_pbe_ddec_spin_density
 _atom_site_pbe_ddec_sum_bond_order
 _atom_site_pbe_magmom
Cd  Cd0  1  0.69752157  0.00008341  0.24993147  1  0  1.08281  0  1.726838  0  0  0.884093  0  2.182288  0  0  0.941421  0  2.131737  0  0  0.775714  0.843632  0  2.21683  0
Cd  Cd1  1  0.30247211  0.99992018  0.75006961  1  0  1.082737  0  1.726893  0  0  0.884017  0  2.182326  0  0  0.941349  0  2.13178  0  0  0.775685  0.843562  0  2.216867  0
H  H2  1  0.13815735  0.96391079  0.31691451  1  0  0.103449  0  0.953689  0  0  0.110791  0  1.021672  0  0  0.113088  0  1.019119  0  0  0.135471  0.108994  0  1.023588  0
H  H3  1  0.17446802  0.03613061  0.18296314  1  0  0.103901  0  0.952692  0  0  0.111781  0  1.020059  0  0  0.114192  0  1.01737  0  0  0.135654  0.109962  0  1.021984  0
H  H4  1  0.86182931  0.03607875  0.68308957  1  0  0.103449  0  0.95383  0  0  0.110811  0  1.021765  0  0  0.113119  0  1.019218  0  0  0.135494  0.109053  0  1.023631  0
H  H5  1  0.82553041  0.96386740  0.81704104  1  0  0.103991  0  0.952565  0  0  0.11182  0  1.019975  0  0  0.114238  0  1.01728  0  0  0.135672  0.11001  0  1.021905  0
H  H6  1  0.26968749  0.30719647  0.48942270  1  0  0.121769  0  0.972875  0  0  0.126972  0  1.041598  0  0  0.130344  0  1.039237  0  0  0.118183  0.12451  0  1.043393  0
H  H7  1  0.96329954  0.69253429  0.01071851  1  0  0.121567  0  0.971765  0  0  0.12629  0  1.041273  0  0  0.129654  0  1.038924  0  0  0.117864  0.123848  0  1.043012  0
H  H8  1  0.73032975  0.69280601  0.51057152  1  0  0.121755  0  0.972896  0  0  0.126997  0  1.041556  0  0  0.130365  0  1.039202  0  0  0.118217  0.124535  0  1.043353  0
H  H9  1  0.03669008  0.30747023  0.98928215  1  0  0.121657  0  0.971755  0  0  0.126361  0  1.041281  0  0  0.129705  0  1.038949  0  0  0.117912  0.123917  0  1.043021  0
H  H10  1  0.89698038  0.27090838  0.40192106  1  0  0.091118  0  0.999632  0  0  0.095559  0  1.071926  0  0  0.097848  0  1.071308  0  0  0.104115  0.0939  0  1.072441  0
H  H11  1  0.62675581  0.72904857  0.09815840  1  0  0.091417  0  0.997911  0  0  0.09587  0  1.070176  0  0  0.098173  0  1.069522  0  0  0.104134  0.094191  0  1.07073  0
H  H12  1  0.10302984  0.72909513  0.59807722  1  0  0.091178  0  0.999804  0  0  0.095582  0  1.072117  0  0  0.097871  0  1.071499  0  0  0.104129  0.093924  0  1.072634  0
H  H13  1  0.37324287  0.27095597  0.90184338  1  0  0.09146  0  0.997871  0  0  0.095899  0  1.070155  0  0  0.098204  0  1.069502  0  0  0.104152  0.094219  0  1.070699  0
H  H14  1  0.54704580  0.19741040  0.47195800  1  0  0.082374  0  0.946329  0  0  0.095609  0  1.012089  0  0  0.096959  0  1.011377  0  0  0.10971  0.094519  0  1.012727  0
H  H15  1  0.34988304  0.80240040  0.02783135  1  0  0.08245  0  0.946075  0  0  0.095671  0  1.012165  0  0  0.096996  0  1.011448  0  0  0.109929  0.09465  0  1.012756  0
H  H16  1  0.45296262  0.80258648  0.52803821  1  0  0.08244  0  0.946277  0  0  0.095677  0  1.011985  0  0  0.097017  0  1.011285  0  0  0.109727  0.094605  0  1.012601  0
H  H17  1  0.65010574  0.19759942  0.97216974  1  0  0.082468  0  0.945956  0  0  0.095673  0  1.012074  0  0  0.097002  0  1.011356  0  0  0.109916  0.094652  0  1.012664  0
H  H18  1  0.52550996  0.07533001  0.38696491  1  0  0.065827  0  0.952937  0  0  0.081818  0  1.022536  0  0  0.082169  0  1.021663  0  0  0.104451  0.08144  0  1.023332  0
H  H19  1  0.45060237  0.92434626  0.11285360  1  0  0.064921  0  0.953174  0  0  0.080952  0  1.023226  0  0  0.081278  0  1.022344  0  0  0.104116  0.080593  0  1.024048  0
H  H20  1  0.47449299  0.92466498  0.61303102  1  0  0.065887  0  0.952875  0  0  0.081857  0  1.022467  0  0  0.082212  0  1.021583  0  0  0.10445  0.081479  0  1.023267  0
H  H21  1  0.54939197  0.07565262  0.88714736  1  0  0.064852  0  0.953235  0  0  0.080873  0  1.023304  0  0  0.081201  0  1.022426  0  0  0.104108  0.080512  0  1.024127  0
H  H22  1  0.29336378  0.91853231  0.45147185  1  0  0.067877  0  0.940037  0  0  0.085635  0  1.001707  0  0  0.085584  0  1.003696  0  0  0.090151  0.085593  0  1.00042  0
H  H23  1  0.37463928  0.08135548  0.04860656  1  0  0.067914  0  0.940912  0  0  0.085983  0  1.002094  0  0  0.085968  0  1.004104  0  0  0.089918  0.085905  0  1.000804  0
H  H24  1  0.70664362  0.08146557  0.54852673  1  0  0.067855  0  0.940016  0  0  0.085625  0  1.001688  0  0  0.085577  0  1.003674  0  0  0.090127  0.085582  0  1.000406  0
H  H25  1  0.62534801  0.91864438  0.95139622  1  0  0.067924  0  0.940937  0  0  0.086015  0  1.002083  0  0  0.085999  0  1.004092  0  0  0.089948  0.085935  0  1.000796  0
H  H26  1  0.31239036  0.04058630  0.53596286  1  0  0.08087  0  0.933648  0  0  0.099091  0  0.991422  0  0  0.100239  0  0.991853  0  0  0.093828  0.098184  0  0.991261  0
H  H27  1  0.27189333  0.95944882  0.96402263  1  0  0.080681  0  0.934316  0  0  0.098762  0  0.992103  0  0  0.099937  0  0.992559  0  0  0.093642  0.09785  0  0.991916  0
H  H28  1  0.68762307  0.95941156  0.46403516  1  0  0.080822  0  0.933628  0  0  0.099022  0  0.991461  0  0  0.100171  0  0.991893  0  0  0.093796  0.098138  0  0.991273  0
H  H29  1  0.72809348  0.04055007  0.03597889  1  0  0.080733  0  0.934196  0  0  0.098794  0  0.992007  0  0  0.099969  0  0.992464  0  0  0.093673  0.097883  0  0.991819  0
H  H30  1  0.60553764  0.48192875  0.05618753  1  0  0.121132  0  0.965066  0  0  0.127441  0  1.033977  0  0  0.131439  0  1.032058  0  0  0.098828  0.124629  0  1.035392  0
H  H31  1  0.12411364  0.51842758  0.44386735  1  0  0.120328  0  0.966237  0  0  0.126634  0  1.035081  0  0  0.130615  0  1.03321  0  0  0.09854  0.123798  0  1.036535  0
H  H32  1  0.39447394  0.51808050  0.94381437  1  0  0.12114  0  0.965089  0  0  0.127474  0  1.033966  0  0  0.131467  0  1.032061  0  0  0.098836  0.12466  0  1.035378  0
H  H33  1  0.87589369  0.48157315  0.55613276  1  0  0.12031  0  0.966207  0  0  0.126605  0  1.03508  0  0  0.13059  0  1.033207  0  0  0.098561  0.12379  0  1.036513  0
H  H34  1  0.12356320  0.43505896  0.21893838  1  0  0.117764  0  0.957215  0  0  0.125751  0  1.021095  0  0  0.128582  0  1.021396  0  0  0.101633  0.123717  0  1.021103  0
H  H35  1  0.68916874  0.56522617  0.28098554  1  0  0.117875  0  0.957342  0  0  0.125576  0  1.021424  0  0  0.128357  0  1.021795  0  0  0.101499  0.123532  0  1.021447  0
H  H36  1  0.87643535  0.56494833  0.78106045  1  0  0.117713  0  0.957101  0  0  0.125731  0  1.020937  0  0  0.128563  0  1.021237  0  0  0.101636  0.123683  0  1.020994  0
H  H37  1  0.31083473  0.43476987  0.71901501  1  0  0.117961  0  0.95739  0  0  0.12567  0  1.021433  0  0  0.128449  0  1.021808  0  0  0.101531  0.12362  0  1.021472  0
H  H38  1  0.27420690  0.28432007  0.26316315  1  0  0.104104  0  0.942825  0  0  0.112169  0  1.006536  0  0  0.115216  0  1.004411  0  0  0.103622  0.10998  0  1.008073  0
H  H39  1  0.99034921  0.71599537  0.23680418  1  0  0.10429  0  0.943031  0  0  0.112363  0  1.006556  0  0  0.115512  0  1.00428  0  0  0.103859  0.11012  0  1.008178  0
H  H40  1  0.72578475  0.71568246  0.73683331  1  0  0.104073  0  0.942847  0  0  0.112155  0  1.006536  0  0  0.115201  0  1.004413  0  0  0.103602  0.109967  0  1.008076  0
H  H41  1  0.00964917  0.28400255  0.76319608  1  0  0.104378  0  0.943015  0  0  0.112413  0  1.006562  0  0  0.115564  0  1.004282  0  0  0.103873  0.110158  0  1.008182  0
H  H42  1  0.81938217  0.26805860  0.12299716  1  0  0.381814  0  0.905696  0  0  0.355346  0  0.977761  0  0  0.367537  0  0.965192  0  0  0.296777  0.34675  0  0.98657  0
H  H43  1  0.55166433  0.73208211  0.37691997  1  0  0.382832  0  0.905355  0  0  0.356308  0  0.97745  0  0  0.368553  0  0.964785  0  0  0.29703  0.347675  0  0.986319  0
H  H44  1  0.18061998  0.73194688  0.87700419  1  0  0.381778  0  0.905759  0  0  0.355312  0  0.977817  0  0  0.367503  0  0.965255  0  0  0.296774  0.346714  0  0.986625  0
H  H45  1  0.44834046  0.26791959  0.62308084  1  0  0.382741  0  0.905376  0  0  0.356245  0  0.977435  0  0  0.36849  0  0.964767  0  0  0.29698  0.347612  0  0.9863  0
C  C46  1  0.11627441  0.05029204  0.35231491  1  0  0.178254  0  3.634974  0  0  0.117894  0  3.896902  0  0  0.132957  0  3.908846  0  0  0.144554  0.108172  0  3.888551  0
C  C47  1  0.06628093  0.94972079  0.14761122  1  0  0.177201  0  3.633432  0  0  0.116224  0  3.895538  0  0  0.131195  0  3.907426  0  0  0.143762  0.106521  0  3.887228  0
C  C48  1  0.88371958  0.94970314  0.64768886  1  0  0.178143  0  3.635139  0  0  0.117745  0  3.897103  0  0  0.132792  0  3.909061  0  0  0.144433  0.108  0  3.888732  0
C  C49  1  0.93371596  0.05027715  0.85239017  1  0  0.177144  0  3.633449  0  0  0.116243  0  3.895514  0  0  0.13121  0  3.907404  0  0  0.143784  0.106541  0  3.887212  0
C  C50  1  0.18341736  0.23142448  0.44126978  1  0  -0.066026  0  3.658116  0  0  -0.105154  0  3.910345  0  0  -0.103711  0  3.928909  0  0  -0.001722  -0.10607  0  3.897987  0
C  C51  1  0.95265692  0.76837494  0.05884136  1  0  -0.06574  0  3.656276  0  0  -0.104239  0  3.908211  0  0  -0.102814  0  3.926805  0  0  -0.000726  -0.105162  0  3.895866  0
C  C52  1  0.81659446  0.76857619  0.55872753  1  0  -0.065951  0  3.65801  0  0  -0.10511  0  3.910259  0  0  -0.103655  0  3.928812  0  0  -0.001723  -0.106028  0  3.897905  0
C  C53  1  0.04732887  0.23162494  0.94116198  1  0  -0.065752  0  3.65605  0  0  -0.104221  0  3.907996  0  0  -0.102767  0  3.926604  0  0  -0.000676  -0.10514  0  3.895641  0
C  C54  1  0.00034482  0.21191572  0.39785501  1  0  -0.005556  0  3.775903  0  0  -0.03643  0  4.039074  0  0  -0.035246  0  4.061207  0  0  -0.010646  -0.03723  0  4.024163  0
C  C55  1  0.78903091  0.78799775  0.10223159  1  0  -0.005418  0  3.77544  0  0  -0.036294  0  4.038571  0  0  -0.035082  0  4.060629  0  0  -0.010974  -0.037123  0  4.023731  0
C  C56  1  0.99966110  0.78808220  0.60214525  1  0  -0.005636  0  3.776083  0  0  -0.036477  0  4.03925  0  0  -0.035291  0  4.061381  0  0  -0.010616  -0.037281  0  4.024342  0
C  C57  1  0.21096439  0.21200306  0.89777132  1  0  -0.005498  0  3.77502  0  0  -0.036375  0  4.038154  0  0  -0.035166  0  4.060206  0  0  -0.011011  -0.037205  0  4.023309  0
C  C58  1  0.44485282  0.10624092  0.43807702  1  0  0.001084  0  3.622319  0  0  -0.062389  0  3.879441  0  0  -0.057987  0  3.890661  0  0  -0.054655  -0.065211  0  3.871898  0
C  C59  1  0.33887053  0.89355112  0.06181338  1  0  0.002798  0  3.621295  0  0  -0.061521  0  3.880019  0  0  -0.056988  0  3.891174  0  0  -0.055215  -0.064402  0  3.87235  0
C  C60  1  0.55515457  0.89375692  0.56192044  1  0  0.000861  0  3.622488  0  0  -0.062531  0  3.879572  0  0  -0.058121  0  3.890795  0  0  -0.054673  -0.065365  0  3.872036  0
C  C61  1  0.66112079  0.10644774  0.93818702  1  0  0.002877  0  3.62109  0  0  -0.061425  0  3.879849  0  0  -0.056902  0  3.891019  0  0  -0.055197  -0.064316  0  3.872205  0
C  C62  1  0.39798581  0.00913125  0.48614477  1  0  -0.124138  0  3.67142  0  0  -0.163455  0  3.931144  0  0  -0.165329  0  3.945349  0  0  -0.165281  -0.16199  0  3.921313  0
C  C63  1  0.38885862  0.99081234  0.01384570  1  0  -0.124637  0  3.673886  0  0  -0.163721  0  3.933152  0  0  -0.165741  0  3.9476  0  0  -0.164405  -0.162165  0  3.923158  0
C  C64  1  0.60202110  0.99086564  0.51385200  1  0  -0.123853  0  3.671295  0  0  -0.163243  0  3.931083  0  0  -0.165121  0  3.945293  0  0  -0.165124  -0.161788  0  3.921244  0
C  C65  1  0.61112620  0.00918558  0.98615456  1  0  -0.124616  0  3.673771  0  0  -0.163685  0  3.933016  0  0  -0.165704  0  3.947467  0  0  -0.164421  -0.162131  0  3.923021  0
C  C66  1  0.52127537  0.29750714  0.18520482  1  0  -0.235249  0  3.790726  0  0  -0.22188  0  4.038781  0  0  -0.23635  0  4.060806  0  0  -0.047336  -0.212561  0  4.024135  0
C  C67  1  0.22420292  0.70271055  0.31474880  1  0  -0.236213  0  3.793386  0  0  -0.222716  0  4.040416  0  0  -0.237114  0  4.062341  0  0  -0.047848  -0.213333  0  4.025718  0
C  C68  1  0.47871885  0.70249453  0.81479487  1  0  -0.235349  0  3.790814  0  0  -0.222129  0  4.039049  0  0  -0.236557  0  4.061019  0  0  -0.047476  -0.212808  0  4.0244  0
C  C69  1  0.77580203  0.29728544  0.68524951  1  0  -0.236213  0  3.793476  0  0  -0.222786  0  4.040603  0  0  -0.237187  0  4.062528  0  0  -0.047922  -0.213408  0  4.0259  0
C  C70  1  0.61763602  0.35578517  0.12713479  1  0  0.352512  0  3.806905  0  0  0.339832  0  4.066763  0  0  0.355631  0  4.080616  0  0  0.089396  0.329136  0  4.057209  0
C  C71  1  0.26224805  0.64452719  0.37288821  1  0  0.352808  0  3.80655  0  0  0.34062  0  4.065487  0  0  0.356354  0  4.079403  0  0  0.089827  0.329929  0  4.055902  0
C  C72  1  0.38237255  0.64422408  0.87286711  1  0  0.352533  0  3.806829  0  0  0.339892  0  4.066707  0  0  0.35568  0  4.080559  0  0  0.089472  0.329201  0  4.05715  0
C  C73  1  0.73775183  0.35547070  0.62711093  1  0  0.352812  0  3.806496  0  0  0.340608  0  4.065497  0  0  0.356346  0  4.079413  0  0  0.089847  0.32991  0  4.055924  0
C  C74  1  0.53239496  0.43963955  0.10166392  1  0  -0.275857  0  3.728721  0  0  -0.302718  0  3.979312  0  0  -0.312023  0  3.998349  0  0  -0.120102  -0.296558  0  3.966556  0
C  C75  1  0.09323428  0.56075349  0.39839323  1  0  -0.27382  0  3.727675  0  0  -0.300747  0  3.978181  0  0  -0.310033  0  3.997221  0  0  -0.119276  -0.29463  0  3.965458  0
C  C76  1  0.46761973  0.56036688  0.89833813  1  0  -0.275722  0  3.728889  0  0  -0.302588  0  3.9794  0  0  -0.311891  0  3.998444  0  0  -0.120019  -0.296436  0  3.966653  0
C  C77  1  0.90677775  0.43924157  0.60160550  1  0  -0.273851  0  3.727765  0  0  -0.300739  0  3.978271  0  0  -0.310016  0  3.997284  0  0  -0.119336  -0.294613  0  3.965559  0
C  C78  1  0.35570505  0.46563246  0.13498958  1  0  0.170218  0  3.814001  0  0  0.180352  0  4.079522  0  0  0.187628  0  4.100059  0  0  0.016659  0.175515  0  4.065694  0
C  C79  1  0.89064797  0.53470378  0.36501564  1  0  0.16992  0  3.8131  0  0  0.179656  0  4.079381  0  0  0.186971  0  4.099866  0  0  0.016098  0.174809  0  4.065553  0
C  C80  1  0.64430493  0.53437963  0.86501274  1  0  0.169875  0  3.814141  0  0  0.180035  0  4.079648  0  0  0.187299  0  4.1002  0  0  0.016456  0.175206  0  4.065806  0
C  C81  1  0.10935970  0.46528556  0.63498059  1  0  0.169998  0  3.813199  0  0  0.179669  0  4.079539  0  0  0.186986  0  4.100023  0  0  0.016146  0.174824  0  4.065712  0
C  C82  1  0.26092580  0.41227000  0.19386792  1  0  -0.168684  0  3.760602  0  0  -0.195585  0  4.021706  0  0  -0.202308  0  4.042214  0  0  -0.113865  -0.191359  0  4.008212  0
C  C83  1  0.84928452  0.58804970  0.30609601  1  0  -0.169659  0  3.759933  0  0  -0.19628  0  4.021279  0  0  -0.203022  0  4.041845  0  0  -0.113349  -0.192032  0  4.007784  0
C  C84  1  0.73907614  0.58774107  0.80613145  1  0  -0.168478  0  3.760511  0  0  -0.195405  0  4.021624  0  0  -0.202128  0  4.042144  0  0  -0.113782  -0.191184  0  4.008115  0
C  C85  1  0.15072054  0.41194347  0.69390245  1  0  -0.169783  0  3.760063  0  0  -0.196398  0  4.021425  0  0  -0.203139  0  4.04199  0  0  -0.113393  -0.192151  0  4.00792  0
C  C86  1  0.34502135  0.32813222  0.21786635  1  0  -0.012072  0  3.746029  0  0  -0.037674  0  4.005409  0  0  -0.031407  0  4.020967  0  0  -0.079942  -0.041557  0  3.994809  0
C  C87  1  0.01742699  0.67213426  0.28207892  1  0  -0.011611  0  3.74729  0  0  -0.03718  0  4.006264  0  0  -0.030972  0  4.021779  0  0  -0.080512  -0.041047  0  3.995684  0
C  C88  1  0.65497880  0.67187225  0.78213262  1  0  -0.01204  0  3.746115  0  0  -0.037599  0  4.005509  0  0  -0.031349  0  4.02106  0  0  -0.0799  -0.041472  0  3.994903  0
C  C89  1  0.98257242  0.32786270  0.71792065  1  0  -0.011713  0  3.74746  0  0  -0.03722  0  4.006454  0  0  -0.03101  0  4.021969  0  0  -0.080539  -0.041092  0  3.995861  0
C  C90  1  0.60398042  0.20322617  0.20829042  1  0  0.634246  0  3.933602  0  0  0.584747  0  4.223425  0  0  0.620217  0  4.216866  0  0  0.188297  0.560759  0  4.227048  0
C  C91  1  0.40118212  0.79691790  0.29168529  1  0  0.635272  0  3.932698  0  0  0.586223  0  4.22178  0  0  0.621708  0  4.215155  0  0  0.188758  0.562202  0  4.225455  0
C  C92  1  0.39600836  0.79677364  0.79171012  1  0  0.634338  0  3.933585  0  0  0.58489  0  4.223392  0  0  0.620347  0  4.216837  0  0  0.188395  0.560907  0  4.227019  0
C  C93  1  0.59882123  0.20308092  0.70831343  1  0  0.635159  0  3.932474  0  0  0.586141  0  4.221568  0  0  0.621625  0  4.214943  0  0  0.188738  0.562122  0  4.225242  0
N  N94  1  0.96010184  0.09843177  0.34275456  1  0  -0.40818  0  3.294503  0  0  -0.326467  0  3.581617  0  0  -0.349241  0  3.598447  0  0  -0.369738  -0.310888  0  3.569684  0
N  N95  1  0.86203507  0.90159530  0.15720416  1  0  -0.407594  0  3.295962  0  0  -0.325837  0  3.583129  0  0  -0.348623  0  3.600031  0  0  -0.369025  -0.310271  0  3.571204  0
N  N96  1  0.03989712  0.90156430  0.65724711  1  0  -0.408092  0  3.294593  0  0  -0.326352  0  3.581676  0  0  -0.349127  0  3.598514  0  0  -0.36969  -0.310776  0  3.569758  0
N  N97  1  0.13796080  0.09840363  0.84279904  1  0  -0.407574  0  3.296145  0  0  -0.325821  0  3.583279  0  0  -0.348606  0  3.600185  0  0  -0.369068  -0.310256  0  3.571355  0
N  N98  1  0.25420285  0.12829923  0.41146910  1  0  -0.045067  0  3.554527  0  0  0.049508  0  3.770284  0  0  0.035218  0  3.795407  0  0  -0.238682  0.058904  0  3.753222  0
N  N99  1  0.12633440  0.87155800  0.08852954  1  0  -0.045764  0  3.553746  0  0  0.04913  0  3.769638  0  0  0.034819  0  3.794763  0  0  -0.238753  0.058544  0  3.752607  0
N  N100  1  0.74579656  0.87169773  0.58853047  1  0  -0.045032  0  3.554587  0  0  0.049531  0  3.770346  0  0  0.035242  0  3.79547  0  0  -0.238711  0.058933  0  3.753296  0
N  N101  1  0.87366004  0.12843805  0.91147157  1  0  -0.045852  0  3.553907  0  0  0.049002  0  3.769837  0  0  0.034696  0  3.794954  0  0  -0.238805  0.058414  0  3.752805  0
Cl  Cl102  1  0.24639754  0.56592993  0.10124780  1  0  -0.077039  0  1.366395  0  0  -0.05391  0  1.602559  0  0  -0.05684  0  1.596683  0  0  0.026828  -0.051617  0  1.606576  0
Cl  Cl103  1  0.68105843  0.43433247  0.39866176  1  0  -0.077124  0  1.365977  0  0  -0.053613  0  1.601738  0  0  -0.056542  0  1.595792  0  0  0.026946  -0.051272  0  1.605756  0
Cl  Cl104  1  0.75361203  0.43407830  0.89875116  1  0  -0.076941  0  1.366433  0  0  -0.05382  0  1.602579  0  0  -0.056745  0  1.596702  0  0  0.026884  -0.05152  0  1.60659  0
Cl  Cl105  1  0.31894661  0.56566068  0.60133614  1  0  -0.077131  0  1.365888  0  0  -0.053614  0  1.601677  0  0  -0.05655  0  1.595739  0  0  0.026929  -0.051274  0  1.605697  0
O  O106  1  0.50528938  0.14099943  0.25453479  1  0  -0.632412  0  2.00041  0  0  -0.571123  0  2.25518  0  0  -0.599904  0  2.245729  0  0  -0.3314  -0.55106  0  2.260931  0
O  O107  1  0.36466061  0.85930307  0.24551987  1  0  -0.632809  0  1.999427  0  0  -0.571904  0  2.254297  0  0  -0.600795  0  2.24501  0  0  -0.331607  -0.55175  0  2.259888  0
O  O108  1  0.49468443  0.85899457  0.74545876  1  0  -0.632422  0  2.000386  0  0  -0.571131  0  2.255107  0  0  -0.599912  0  2.245665  0  0  -0.331393  -0.551078  0  2.260865  0
O  O109  1  0.63534117  0.14069866  0.75448206  1  0  -0.632786  0  1.999335  0  0  -0.571861  0  2.254132  0  0  -0.600776  0  2.244899  0  0  -0.331583  -0.551693  0  2.259726  0
O  O110  1  0.77158996  0.18254493  0.17873363  1  0  -0.639293  0  1.96233  0  0  -0.575632  0  2.184621  0  0  -0.602315  0  2.175025  0  0  -0.32702  -0.55705  0  2.190653  0
O  O111  1  0.58945466  0.81745017  0.32116761  1  0  -0.639898  0  1.962891  0  0  -0.576367  0  2.185029  0  0  -0.603071  0  2.175406  0  0  -0.326969  -0.557764  0  2.191069  0
O  O112  1  0.22841066  0.81746349  0.82127318  1  0  -0.639318  0  1.96227  0  0  -0.575652  0  2.184538  0  0  -0.602337  0  2.174949  0  0  -0.32707  -0.557067  0  2.190568  0
O  O113  1  0.41054275  0.18254581  0.67883070  1  0  -0.63979  0  1.962714  0  0  -0.576281  0  2.184853  0  0  -0.602982  0  2.17523  0  0  -0.326931  -0.557683  0  2.190895  0
O  O114  1  0.78833455  0.33038967  0.09466359  1  0  -0.526454  0  2.120028  0  0  -0.478399  0  2.340756  0  0  -0.498923  0  2.331905  0  0  -0.350331  -0.46371  0  2.346439  0
O  O115  1  0.45830874  0.66989086  0.40533636  1  0  -0.52723  0  2.120148  0  0  -0.479541  0  2.340911  0  0  -0.500108  0  2.332033  0  0  -0.350501  -0.464801  0  2.346564  0
O  O116  1  0.21166413  0.66961487  0.90533819  1  0  -0.526398  0  2.119874  0  0  -0.478391  0  2.340668  0  0  -0.498895  0  2.331776  0  0  -0.350345  -0.463695  0  2.346335  0
O  O117  1  0.54169556  0.33010986  0.59466319  1  0  -0.527104  0  2.120165  0  0  -0.479409  0  2.340897  0  0  -0.499984  0  2.332033  0  0  -0.350388  -0.464652  0  2.346544  0
