# generated using pymatgen
data_LaH16C8Cl3O2
_symmetry_space_group_name_H-M   'P 1'
_cell_length_a   8.15199839
_cell_length_b   10.43963222
_cell_length_c   14.72098707
_cell_angle_alpha   89.99996692
_cell_angle_beta   90.00002827
_cell_angle_gamma   93.68619218
_symmetry_Int_Tables_number   1
_chemical_formula_structural   LaH16C8Cl3O2
_chemical_formula_sum   'La4 H64 C32 Cl12 O8'
_cell_volume   1250.22100429
_cell_formula_units_Z   4
loop_
 _symmetry_equiv_pos_site_id
 _symmetry_equiv_pos_as_xyz
  1  'x, y, z'
loop_
 _atom_site_type_symbol
 _atom_site_label
 _atom_site_symmetry_multiplicity
 _atom_site_fract_x
 _atom_site_fract_y
 _atom_site_fract_z
 _atom_site_occupancy
 _atom_site_hle17_bader_spin_density
 _atom_site_hle17_ddec_charge
 _atom_site_hle17_ddec_spin_density
 _atom_site_hle17_ddec_sum_bond_order
 _atom_site_hle17_magmom
 _atom_site_hse06_10hf_bader_spin_density
 _atom_site_hse06_10hf_ddec_charge
 _atom_site_hse06_10hf_ddec_spin_density
 _atom_site_hse06_10hf_ddec_sum_bond_order
 _atom_site_hse06_10hf_magmom
 _atom_site_hse06_bader_spin_density
 _atom_site_hse06_ddec_charge
 _atom_site_hse06_ddec_spin_density
 _atom_site_hse06_ddec_sum_bond_order
 _atom_site_hse06_magmom
 _atom_site_pbe_bader_spin_density
 _atom_site_pbe_cm5_charge
 _atom_site_pbe_ddec_charge
 _atom_site_pbe_ddec_spin_density
 _atom_site_pbe_ddec_sum_bond_order
 _atom_site_pbe_magmom
La  La0  1  0.73303736  0.23417882  0.27665813  1  0  1.736883  0  2.055771  0  0  1.656179  0  2.55128  0  0  1.748573  0  2.472645  0  0  0.942794  1.587949  0  2.604061  0
La  La1  1  0.76696484  0.76581933  0.77665914  1  0  1.736887  0  2.05576  0  0  1.656167  0  2.551329  0  0  1.748593  0  2.472628  0  0  0.942808  1.587946  0  2.604095  0
La  La2  1  0.26696386  0.76581866  0.72334200  1  0  1.736854  0  2.055784  0  0  1.656166  0  2.551308  0  0  1.748566  0  2.472661  0  0  0.942806  1.587944  0  2.604077  0
La  La3  1  0.23303522  0.23417910  0.22333963  1  0  1.736868  0  2.055792  0  0  1.656179  0  2.551323  0  0  1.748598  0  2.472641  0  0  0.942795  1.587945  0  2.604117  0
H  H4  1  0.91113874  0.93481503  0.23517370  1  0  0.06049  0  0.968317  0  0  0.066058  0  1.044645  0  0  0.067766  0  1.043308  0  0  0.097759  0.064808  0  1.04568  0
H  H5  1  0.58886110  0.06518505  0.73517631  1  0  0.060479  0  0.968284  0  0  0.066059  0  1.044611  0  0  0.067768  0  1.043274  0  0  0.097745  0.064809  0  1.045645  0
H  H6  1  0.08886151  0.06518627  0.76482507  1  0  0.060474  0  0.968262  0  0  0.066015  0  1.044609  0  0  0.067722  0  1.043273  0  0  0.097742  0.064766  0  1.045641  0
H  H7  1  0.41113915  0.93481626  0.26482585  1  0  0.060503  0  0.968311  0  0  0.06609  0  1.044635  0  0  0.067799  0  1.043298  0  0  0.097754  0.06484  0  1.045662  0
H  H8  1  0.71779794  0.89080201  0.18200401  1  0  0.062212  0  0.923266  0  0  0.078713  0  0.98434  0  0  0.079041  0  0.983963  0  0  0.102791  0.07835  0  0.98482  0
H  H9  1  0.78220315  0.10919908  0.68200462  1  0  0.062244  0  0.923253  0  0  0.078741  0  0.984331  0  0  0.07907  0  0.983955  0  0  0.102784  0.078377  0  0.98481  0
H  H10  1  0.28220477  0.10919932  0.81799544  1  0  0.062232  0  0.923291  0  0  0.07872  0  0.984354  0  0  0.079049  0  0.983978  0  0  0.102786  0.078358  0  0.984833  0
H  H11  1  0.21779710  0.89080223  0.31799551  1  0  0.062216  0  0.923271  0  0  0.078722  0  0.984345  0  0  0.079051  0  0.983969  0  0  0.10279  0.07836  0  0.984824  0
H  H12  1  0.87471590  0.71072040  0.28279555  1  0  0.081708  0  0.944613  0  0  0.100463  0  1.005916  0  0  0.101354  0  1.00615  0  0  0.093368  0.099584  0  1.006021  0
H  H13  1  0.62528650  0.28928063  0.78279672  1  0  0.081668  0  0.944631  0  0  0.100416  0  1.005918  0  0  0.101306  0  1.006152  0  0  0.093341  0.099538  0  1.006022  0
H  H14  1  0.12528809  0.28928190  0.71720390  1  0  0.081664  0  0.944704  0  0  0.100446  0  1.005987  0  0  0.101335  0  1.006223  0  0  0.093356  0.099567  0  1.00609  0
H  H15  1  0.37471750  0.71072167  0.21720409  1  0  0.081713  0  0.9446  0  0  0.100465  0  1.005898  0  0  0.101356  0  1.006131  0  0  0.093368  0.099586  0  1.006004  0
H  H16  1  0.65871367  0.71846852  0.29335731  1  0  0.071933  0  0.942776  0  0  0.089833  0  1.005462  0  0  0.090751  0  1.005674  0  0  0.089117  0.088997  0  1.005541  0
H  H17  1  0.84128874  0.28153250  0.79335786  1  0  0.071944  0  0.942768  0  0  0.089814  0  1.005472  0  0  0.090734  0  1.00568  0  0  0.089125  0.088978  0  1.00555  0
H  H18  1  0.34128774  0.28153184  0.70664214  1  0  0.071938  0  0.942721  0  0  0.089834  0  1.005452  0  0  0.090753  0  1.00566  0  0  0.089127  0.088998  0  1.005529  0
H  H19  1  0.15871507  0.71846692  0.20664295  1  0  0.071934  0  0.942801  0  0  0.089835  0  1.005463  0  0  0.090752  0  1.005675  0  0  0.089131  0.089003  0  1.005543  0
H  H20  1  0.92351971  0.85744012  0.41345252  1  0  0.078266  0  0.942875  0  0  0.095097  0  1.004424  0  0  0.096445  0  1.003675  0  0  0.088799  0.093818  0  1.005407  0
H  H21  1  0.57648287  0.14256177  0.91345306  1  0  0.07828  0  0.942914  0  0  0.095103  0  1.004459  0  0  0.096451  0  1.003711  0  0  0.0888  0.093834  0  1.005432  0
H  H22  1  0.07648429  0.14256218  0.58654693  1  0  0.078313  0  0.942873  0  0  0.095114  0  1.00444  0  0  0.096462  0  1.003691  0  0  0.088803  0.093844  0  1.005411  0
H  H23  1  0.42351997  0.85744148  0.08654707  1  0  0.078315  0  0.942885  0  0  0.095138  0  1.004425  0  0  0.096486  0  1.003676  0  0  0.088807  0.093858  0  1.005407  0
H  H24  1  0.75346236  0.75717282  0.45223660  1  0  0.089674  0  0.949225  0  0  0.11014  0  1.005746  0  0  0.11061  0  1.006815  0  0  0.0952  0.109775  0  1.004978  0
H  H25  1  0.74653901  0.24282902  0.95223715  1  0  0.089722  0  0.949246  0  0  0.110164  0  1.005789  0  0  0.110635  0  1.006857  0  0  0.095209  0.109799  0  1.005018  0
H  H26  1  0.24654286  0.24282949  0.54776352  1  0  0.089777  0  0.94921  0  0  0.11021  0  1.00576  0  0  0.110679  0  1.006829  0  0  0.095221  0.109843  0  1.00499  0
H  H27  1  0.25346246  0.75717230  0.04776298  1  0  0.089696  0  0.949213  0  0  0.110136  0  1.005752  0  0  0.110606  0  1.006821  0  0  0.095193  0.109769  0  1.004981  0
H  H28  1  0.73468731  0.01710140  0.44330189  1  0  0.055397  0  0.944727  0  0  0.0671  0  1.014948  0  0  0.067284  0  1.014376  0  0  0.098287  0.067028  0  1.015241  0
H  H29  1  0.76531264  0.98289756  0.94330417  1  0  0.055334  0  0.944705  0  0  0.067083  0  1.014887  0  0  0.067265  0  1.014317  0  0  0.098281  0.06701  0  1.015182  0
H  H30  1  0.26531281  0.98289799  0.55669688  1  0  0.055347  0  0.944722  0  0  0.067099  0  1.014899  0  0  0.067284  0  1.014324  0  0  0.098288  0.067027  0  1.015192  0
H  H31  1  0.23468509  0.01710276  0.05669731  1  0  0.055382  0  0.944708  0  0  0.067137  0  1.014887  0  0  0.067321  0  1.014318  0  0  0.098298  0.067066  0  1.015181  0
H  H32  1  0.56011968  0.91500059  0.41138331  1  0  0.052428  0  0.934551  0  0  0.066661  0  1.000025  0  0  0.067625  0  0.998529  0  0  0.092605  0.065717  0  1.001471  0
H  H33  1  0.93988031  0.08499936  0.91138533  1  0  0.052457  0  0.934567  0  0  0.066694  0  1.00002  0  0  0.067657  0  0.998526  0  0  0.092628  0.065748  0  1.001472  0
H  H34  1  0.43988161  0.08499785  0.58861546  1  0  0.052457  0  0.934561  0  0  0.066697  0  1.000015  0  0  0.067661  0  0.998519  0  0  0.092621  0.065746  0  1.001475  0
H  H35  1  0.06012104  0.91500004  0.08861684  1  0  0.052485  0  0.934595  0  0  0.066738  0  1.00005  0  0  0.067702  0  0.998557  0  0  0.092636  0.065796  0  1.001493  0
H  H36  1  0.88594890  0.25243964  0.52288960  1  0  0.05619  0  0.948333  0  0  0.069091  0  1.015025  0  0  0.070128  0  1.013774  0  0  0.094976  0.068238  0  1.016046  0
H  H37  1  0.61404825  0.74755962  0.02288834  1  0  0.056218  0  0.948286  0  0  0.069084  0  1.014998  0  0  0.070119  0  1.013746  0  0  0.094968  0.068231  0  1.016018  0
H  H38  1  0.11404883  0.74756069  0.47711257  1  0  0.05619  0  0.948283  0  0  0.069084  0  1.014986  0  0  0.070119  0  1.013735  0  0  0.094973  0.068233  0  1.016006  0
H  H39  1  0.38595071  0.25244071  0.97711111  1  0  0.05618  0  0.948291  0  0  0.069035  0  1.015024  0  0  0.070071  0  1.013772  0  0  0.094962  0.068184  0  1.016042  0
H  H40  1  0.67120914  0.20367440  0.51641719  1  0  0.051035  0  0.949344  0  0  0.063677  0  1.020194  0  0  0.064487  0  1.01879  0  0  0.096057  0.063034  0  1.021189  0
H  H41  1  0.82878787  0.79632294  0.01641665  1  0  0.05105  0  0.949422  0  0  0.063674  0  1.020262  0  0  0.064483  0  1.01886  0  0  0.096064  0.06303  0  1.02126  0
H  H42  1  0.32878852  0.79632496  0.48358566  1  0  0.051039  0  0.949382  0  0  0.063677  0  1.020221  0  0  0.064491  0  1.018821  0  0  0.096055  0.063033  0  1.021219  0
H  H43  1  0.17120980  0.20367642  0.98358280  1  0  0.051075  0  0.949346  0  0  0.063664  0  1.020228  0  0  0.064475  0  1.018825  0  0  0.096056  0.063022  0  1.021224  0
H  H44  1  0.79389590  0.37631960  0.65053453  1  0  0.08348  0  0.962059  0  0  0.101384  0  1.024248  0  0  0.102174  0  1.024929  0  0  0.091415  0.10076  0  1.023863  0
H  H45  1  0.70609747  0.62367665  0.15053403  1  0  0.083498  0  0.962033  0  0  0.101343  0  1.024272  0  0  0.102144  0  1.024941  0  0  0.091408  0.100719  0  1.023888  0
H  H46  1  0.20609808  0.62367973  0.34946695  1  0  0.083515  0  0.961998  0  0  0.101372  0  1.024225  0  0  0.102172  0  1.024896  0  0  0.09142  0.100748  0  1.023842  0
H  H47  1  0.29390007  0.37632080  0.84946542  1  0  0.083486  0  0.96203  0  0  0.101343  0  1.024268  0  0  0.102142  0  1.024941  0  0  0.09139  0.10072  0  1.023883  0
H  H48  1  0.59335948  0.38161012  0.60479980  1  0  0.070271  0  0.952221  0  0  0.088601  0  1.012111  0  0  0.089703  0  1.01201  0  0  0.086714  0.087625  0  1.012507  0
H  H49  1  0.90663521  0.61838810  0.10479935  1  0  0.070238  0  0.952295  0  0  0.088573  0  1.012133  0  0  0.089675  0  1.012034  0  0  0.086695  0.0876  0  1.012527  0
H  H50  1  0.40663702  0.61839020  0.39520237  1  0  0.070241  0  0.952232  0  0  0.08857  0  1.012098  0  0  0.089672  0  1.011999  0  0  0.086696  0.087597  0  1.012493  0
H  H51  1  0.09336252  0.38161223  0.89519874  1  0  0.070244  0  0.952305  0  0  0.08858  0  1.012166  0  0  0.089682  0  1.012067  0  0  0.086688  0.087605  0  1.012564  0
H  H52  1  0.90624176  0.53839218  0.54744020  1  0  0.085415  0  0.945847  0  0  0.102542  0  1.005143  0  0  0.103559  0  1.005613  0  0  0.094293  0.101673  0  1.005033  0
H  H53  1  0.59375637  0.46160323  0.04743770  1  0  0.085415  0  0.945919  0  0  0.102562  0  1.005182  0  0  0.103579  0  1.005654  0  0  0.09431  0.10169  0  1.005076  0
H  H54  1  0.09375577  0.46160526  0.45256264  1  0  0.085398  0  0.945861  0  0  0.102527  0  1.005156  0  0  0.103543  0  1.005627  0  0  0.094301  0.101657  0  1.005045  0
H  H55  1  0.40624362  0.53839424  0.95256039  1  0  0.085431  0  0.9459  0  0  0.102583  0  1.005171  0  0  0.103599  0  1.005644  0  0  0.094308  0.101713  0  1.005063  0
H  H56  1  0.70908527  0.59477941  0.56759710  1  0  0.081002  0  0.962469  0  0  0.092903  0  1.036222  0  0  0.093597  0  1.036797  0  0  0.09392  0.092311  0  1.035884  0
H  H57  1  0.79091553  0.40521889  0.06759536  1  0  0.081012  0  0.962439  0  0  0.092904  0  1.036214  0  0  0.093599  0  1.036788  0  0  0.093919  0.092313  0  1.035873  0
H  H58  1  0.29091492  0.40522094  0.43240506  1  0  0.080983  0  0.962487  0  0  0.092911  0  1.036214  0  0  0.093604  0  1.03679  0  0  0.093915  0.092315  0  1.035879  0
H  H59  1  0.20908705  0.59478052  0.93240206  1  0  0.081015  0  0.962473  0  0  0.092917  0  1.03624  0  0  0.093611  0  1.036815  0  0  0.093926  0.092326  0  1.035899  0
H  H60  1  0.80461152  0.53884190  0.39153081  1  0  0.062258  0  0.950342  0  0  0.076194  0  1.018281  0  0  0.076464  0  1.018147  0  0  0.100703  0.075972  0  1.018332  0
H  H61  1  0.69538955  0.46115615  0.89152853  1  0  0.062235  0  0.950322  0  0  0.076173  0  1.018258  0  0  0.076441  0  1.018127  0  0  0.100718  0.075951  0  1.01831  0
H  H62  1  0.19538983  0.46115750  0.60847204  1  0  0.062228  0  0.9503  0  0  0.076169  0  1.018237  0  0  0.076438  0  1.018103  0  0  0.100698  0.075946  0  1.018291  0
H  H63  1  0.30461064  0.53884419  0.10846888  1  0  0.062287  0  0.950348  0  0  0.076225  0  1.018292  0  0  0.076494  0  1.018159  0  0  0.100729  0.076002  0  1.018342  0
H  H64  1  0.59777542  0.50107416  0.42784085  1  0  0.052081  0  0.954261  0  0  0.066678  0  1.019412  0  0  0.067346  0  1.018751  0  0  0.094584  0.066096  0  1.02005  0
H  H65  1  0.90222588  0.49892675  0.92783998  1  0  0.052017  0  0.954198  0  0  0.066596  0  1.019379  0  0  0.067263  0  1.018718  0  0  0.094554  0.066013  0  1.020019  0
H  H66  1  0.40222490  0.49892811  0.57216063  1  0  0.052  0  0.954213  0  0  0.066585  0  1.0194  0  0  0.067251  0  1.01874  0  0  0.094558  0.066001  0  1.02004  0
H  H67  1  0.09777444  0.50107552  0.07215811  1  0  0.052103  0  0.954231  0  0  0.066708  0  1.019374  0  0  0.067376  0  1.018712  0  0  0.094592  0.066124  0  1.020016  0
C  C68  1  0.78398435  0.89681303  0.24696774  1  0  0.092601  0  3.562643  0  0  0.036229  0  3.831326  0  0  0.043771  0  3.837516  0  0  -0.071353  0.031027  0  3.827074  0
C  C69  1  0.71601680  0.10318801  0.74696901  1  0  0.09255  0  3.562615  0  0  0.036151  0  3.831295  0  0  0.043688  0  3.837489  0  0  -0.071356  0.030946  0  3.827051  0
C  C70  1  0.21601959  0.10318831  0.75303171  1  0  0.09253  0  3.562622  0  0  0.036242  0  3.831256  0  0  0.043784  0  3.837446  0  0  -0.07135  0.031036  0  3.827012  0
C  C71  1  0.28398345  0.89681330  0.25303248  1  0  0.092535  0  3.56258  0  0  0.036116  0  3.831278  0  0  0.043653  0  3.837475  0  0  -0.071391  0.030916  0  3.827034  0
C  C72  1  0.77743879  0.77342178  0.30218281  1  0  -0.146183  0  3.687102  0  0  -0.187876  0  3.94749  0  0  -0.189902  0  3.960743  0  0  -0.169419  -0.186141  0  3.938149  0
C  C73  1  0.72256356  0.22657827  0.80218403  1  0  -0.146152  0  3.687199  0  0  -0.187743  0  3.947436  0  0  -0.189767  0  3.96069  0  0  -0.169389  -0.186006  0  3.93809  0
C  C74  1  0.22256139  0.22657857  0.69781664  1  0  -0.146108  0  3.687164  0  0  -0.187854  0  3.947539  0  0  -0.189879  0  3.960792  0  0  -0.169428  -0.18612  0  3.938196  0
C  C75  1  0.27743908  0.77342210  0.19781678  1  0  -0.146142  0  3.687073  0  0  -0.187801  0  3.947432  0  0  -0.189825  0  3.960685  0  0  -0.169394  -0.186078  0  3.938097  0
C  C76  1  0.79512730  0.82531070  0.39924287  1  0  -0.147113  0  3.675102  0  0  -0.185284  0  3.927418  0  0  -0.186925  0  3.939584  0  0  -0.170389  -0.184072  0  3.919139  0
C  C77  1  0.70487396  0.17469023  0.89924411  1  0  -0.147247  0  3.675246  0  0  -0.185419  0  3.927545  0  0  -0.187061  0  3.939711  0  0  -0.170433  -0.184213  0  3.919269  0
C  C78  1  0.20487663  0.17469064  0.60075590  1  0  -0.147323  0  3.675214  0  0  -0.185446  0  3.927551  0  0  -0.187087  0  3.939715  0  0  -0.17043  -0.184236  0  3.919266  0
C  C79  1  0.29512751  0.82531109  0.10075670  1  0  -0.14725  0  3.675116  0  0  -0.185378  0  3.927432  0  0  -0.187017  0  3.939597  0  0  -0.170438  -0.184159  0  3.919145  0
C  C80  1  0.69048264  0.94027805  0.39692165  1  0  0.105211  0  3.575169  0  0  0.046533  0  3.84421  0  0  0.055131  0  3.849518  0  0  -0.074194  0.040465  0  3.840691  0
C  C81  1  0.80951863  0.05972288  0.89692229  1  0  0.105325  0  3.575068  0  0  0.046634  0  3.844104  0  0  0.055227  0  3.849423  0  0  -0.074165  0.040562  0  3.840595  0
C  C82  1  0.30951884  0.05972327  0.60307780  1  0  0.105294  0  3.57513  0  0  0.046598  0  3.84414  0  0  0.055193  0  3.849456  0  0  -0.074172  0.040528  0  3.840628  0
C  C83  1  0.19048040  0.94027841  0.10307852  1  0  0.105185  0  3.575162  0  0  0.046407  0  3.844281  0  0  0.055004  0  3.84959  0  0  -0.074219  0.040337  0  3.840763  0
C  C84  1  0.76161837  0.28652087  0.51682612  1  0  0.095913  0  3.570511  0  0  0.037742  0  3.83964  0  0  0.045604  0  3.845671  0  0  -0.071552  0.032429  0  3.835291  0
C  C85  1  0.73837999  0.71347841  0.01682695  1  0  0.095875  0  3.570701  0  0  0.037771  0  3.839726  0  0  0.045639  0  3.845752  0  0  -0.071541  0.032458  0  3.83538  0
C  C86  1  0.23838058  0.71347947  0.48317469  1  0  0.095986  0  3.570529  0  0  0.037818  0  3.839604  0  0  0.045677  0  3.845641  0  0  -0.071503  0.032505  0  3.835259  0
C  C87  1  0.26161645  0.28652095  0.98317318  1  0  0.095929  0  3.570598  0  0  0.037862  0  3.839647  0  0  0.045728  0  3.845674  0  0  -0.071538  0.032548  0  3.8353  0
C  C88  1  0.72467266  0.38707109  0.58757950  1  0  -0.141125  0  3.673674  0  0  -0.18035  0  3.9274  0  0  -0.182268  0  3.939998  0  0  -0.16973  -0.178981  0  3.918806  0
C  C89  1  0.77532312  0.61292523  0.08757835  1  0  -0.141093  0  3.673827  0  0  -0.180227  0  3.92745  0  0  -0.182151  0  3.940044  0  0  -0.16973  -0.178858  0  3.918853  0
C  C90  1  0.27532488  0.61292636  0.41242266  1  0  -0.141148  0  3.673686  0  0  -0.180304  0  3.927379  0  0  -0.182231  0  3.939975  0  0  -0.169756  -0.178936  0  3.918785  0
C  C91  1  0.22467449  0.38707318  0.91241975  1  0  -0.141101  0  3.673831  0  0  -0.180262  0  3.927498  0  0  -0.182186  0  3.940093  0  0  -0.169679  -0.178892  0  3.918902  0
C  C92  1  0.77387594  0.51434060  0.54007180  1  0  -0.154709  0  3.684209  0  0  -0.195249  0  3.945756  0  0  -0.197047  0  3.957838  0  0  -0.169327  -0.193795  0  3.937311  0
C  C93  1  0.72611986  0.48565672  0.04007068  1  0  -0.154729  0  3.684348  0  0  -0.195303  0  3.945876  0  0  -0.197103  0  3.957958  0  0  -0.169331  -0.19385  0  3.937435  0
C  C94  1  0.22612172  0.48565877  0.45993105  1  0  -0.154728  0  3.684395  0  0  -0.195302  0  3.945943  0  0  -0.197098  0  3.958024  0  0  -0.169336  -0.193848  0  3.937501  0
C  C95  1  0.27387904  0.51434266  0.95992741  1  0  -0.154714  0  3.684278  0  0  -0.195302  0  3.945854  0  0  -0.197101  0  3.957941  0  0  -0.169345  -0.193849  0  3.937412  0
C  C96  1  0.72765560  0.48614249  0.44188817  1  0  0.094488  0  3.582632  0  0  0.034985  0  3.851741  0  0  0.043117  0  3.857512  0  0  -0.07273  0.029542  0  3.847367  0
C  C97  1  0.77234196  0.51385741  0.94188793  1  0  0.09458  0  3.58254  0  0  0.035119  0  3.851662  0  0  0.043251  0  3.857439  0  0  -0.072724  0.029676  0  3.847287  0
C  C98  1  0.27234091  0.51385782  0.55811128  1  0  0.094716  0  3.582574  0  0  0.03522  0  3.851706  0  0  0.043355  0  3.857479  0  0  -0.072662  0.029777  0  3.847327  0
C  C99  1  0.22765454  0.48614291  0.05811152  1  0  0.094399  0  3.582681  0  0  0.034896  0  3.851853  0  0  0.043029  0  3.857626  0  0  -0.072783  0.029453  0  3.847477  0
Cl  Cl100  1  0.93265772  0.16806842  0.12442721  1  0  -0.6118  0  0.945336  0  0  -0.588552  0  1.21983  0  0  -0.615397  0  1.201693  0  0  -0.301393  -0.568505  0  1.23151  0
Cl  Cl101  1  0.56733938  0.83192884  0.62443086  1  0  -0.611771  0  0.945315  0  0  -0.588535  0  1.219836  0  0  -0.615382  0  1.201699  0  0  -0.301397  -0.568487  0  1.231511  0
Cl  Cl102  1  0.06733975  0.83192806  0.87557020  1  0  -0.611785  0  0.945331  0  0  -0.588551  0  1.219849  0  0  -0.615397  0  1.20171  0  0  -0.301402  -0.568505  0  1.231527  0
Cl  Cl103  1  0.43265803  0.16806669  0.37556791  1  0  -0.611774  0  0.945322  0  0  -0.588543  0  1.219834  0  0  -0.615386  0  1.201697  0  0  -0.301387  -0.568496  0  1.231509  0
Cl  Cl104  1  0.00097641  0.43422044  0.25376279  1  0  -0.627763  0  0.856654  0  0  -0.604255  0  1.12583  0  0  -0.630619  0  1.107574  0  0  -0.298189  -0.58477  0  1.137777  0
Cl  Cl105  1  0.49902540  0.56578116  0.75376734  1  0  -0.627758  0  0.856687  0  0  -0.604234  0  1.125854  0  0  -0.630593  0  1.107585  0  0  -0.298185  -0.58475  0  1.137798  0
Cl  Cl106  1  0.99902364  0.56577799  0.74623395  1  0  -0.627776  0  0.856683  0  0  -0.604233  0  1.125811  0  0  -0.630596  0  1.107545  0  0  -0.298188  -0.58475  0  1.137755  0
Cl  Cl107  1  0.50097595  0.43421824  0.24623483  1  0  -0.627773  0  0.856673  0  0  -0.604239  0  1.125816  0  0  -0.630611  0  1.107573  0  0  -0.298184  -0.584753  0  1.137762  0
Cl  Cl108  1  0.01828150  0.14507947  0.36622202  1  0  -0.602353  0  0.951406  0  0  -0.583448  0  1.226083  0  0  -0.6101  0  1.207548  0  0  -0.303762  -0.563454  0  1.238155  0
Cl  Cl109  1  0.48171983  0.85491340  0.86622577  1  0  -0.602376  0  0.951406  0  0  -0.583453  0  1.226069  0  0  -0.610107  0  1.207531  0  0  -0.303774  -0.56346  0  1.23814  0
Cl  Cl110  1  0.98171907  0.85490841  0.63377268  1  0  -0.602366  0  0.951405  0  0  -0.583459  0  1.226094  0  0  -0.610114  0  1.207558  0  0  -0.303769  -0.563466  0  1.238164  0
Cl  Cl111  1  0.51827868  0.14508022  0.13377640  1  0  -0.602351  0  0.951385  0  0  -0.583456  0  1.226078  0  0  -0.610109  0  1.207543  0  0  -0.303761  -0.563464  0  1.23815  0
O  O112  1  0.70203352  0.98889294  0.30349245  1  0  -0.39683  0  2.292498  0  0  -0.313981  0  2.543604  0  0  -0.339249  0  2.550277  0  0  -0.286635  -0.295853  0  2.538329  0
O  O113  1  0.79796890  0.01110807  0.80349378  1  0  -0.396792  0  2.292262  0  0  -0.314004  0  2.543485  0  0  -0.339268  0  2.550151  0  0  -0.286613  -0.295874  0  2.538209  0
O  O114  1  0.29796796  0.01110838  0.69650632  1  0  -0.396784  0  2.292289  0  0  -0.314  0  2.543475  0  0  -0.339263  0  2.550139  0  0  -0.286611  -0.29587  0  2.538199  0
O  O115  1  0.20203135  0.98889324  0.19650703  1  0  -0.396776  0  2.292327  0  0  -0.313911  0  2.543502  0  0  -0.339174  0  2.550172  0  0  -0.286601  -0.295782  0  2.538226  0
O  O116  1  0.75296683  0.35030785  0.42879533  1  0  -0.391077  0  2.310494  0  0  -0.307826  0  2.563909  0  0  -0.333055  0  2.569378  0  0  -0.294728  -0.289644  0  2.559237  0
O  O117  1  0.74703059  0.64969014  0.92879502  1  0  -0.391079  0  2.310577  0  0  -0.307887  0  2.56397  0  0  -0.333121  0  2.56944  0  0  -0.294705  -0.289704  0  2.5593  0
O  O118  1  0.24702961  0.64969150  0.57120684  1  0  -0.391189  0  2.310552  0  0  -0.307936  0  2.563971  0  0  -0.333169  0  2.569442  0  0  -0.294753  -0.289754  0  2.559301  0
O  O119  1  0.25296714  0.35031019  0.07120443  1  0  -0.391086  0  2.310618  0  0  -0.307878  0  2.564023  0  0  -0.333109  0  2.569492  0  0  -0.294706  -0.289695  0  2.559352  0
