# generated using pymatgen
data_AlH9C16O5
_symmetry_space_group_name_H-M   'P 1'
_cell_length_a   6.65054761
_cell_length_b   20.22215648
_cell_length_c   22.96212932
_cell_angle_alpha   93.59800017
_cell_angle_beta   90.51585465
_cell_angle_gamma   89.09031375
_symmetry_Int_Tables_number   1
_chemical_formula_structural   AlH9C16O5
_chemical_formula_sum   'Al4 H36 C64 O20'
_cell_volume   3081.56573624
_cell_formula_units_Z   4
loop_
 _symmetry_equiv_pos_site_id
 _symmetry_equiv_pos_as_xyz
  1  'x, y, z'
loop_
 _atom_site_type_symbol
 _atom_site_label
 _atom_site_symmetry_multiplicity
 _atom_site_fract_x
 _atom_site_fract_y
 _atom_site_fract_z
 _atom_site_occupancy
 _atom_site_pbe_bader_charge
 _atom_site_pbe_bader_spin_density
 _atom_site_pbe_cm5_charge
 _atom_site_pbe_ddec_charge
 _atom_site_pbe_ddec_spin_density
 _atom_site_pbe_ddec_sum_bond_order
 _atom_site_pbe_magmom
Al  Al0  1  0.20741374  0.75128018  0.75083119  1  2.500889  0  0.400306  1.649006  0  2.572127  0
Al  Al1  1  0.79258927  0.24872145  0.24916529  1  2.500894  0  0.400334  1.649097  0  2.571965  0
Al  Al2  1  0.70713453  0.74982322  0.74902870  1  2.501819  0  0.400549  1.64962  0  2.576796  0
Al  Al3  1  0.29286246  0.25018006  0.25096995  1  2.50183  0  0.400566  1.649601  0  2.57681  0
H  H4  1  0.30932170  0.54082260  0.95462615  1  0.091184  0  0.109829  0.111194  0  0.999053  0
H  H5  1  0.69066764  0.45918330  0.04536726  1  0.091261  0  0.109864  0.111073  0  0.999233  0
H  H6  1  0.80001688  0.95097090  0.54754897  1  0.080037  0  0.111245  0.112847  0  0.993558  0
H  H7  1  0.19998924  0.04903179  0.45245580  1  0.079977  0  0.111245  0.112845  0  0.993735  0
H  H8  1  0.33642778  0.46045479  0.03273841  1  0.080144  0  0.108756  0.110231  0  1.002449  0
H  H9  1  0.66356753  0.53955140  0.96725239  1  0.079963  0  0.108733  0.110177  0  1.002464  0
H  H10  1  0.84361135  0.03016620  0.46949463  1  0.050651  0  0.108423  0.109905  0  1.005349  0
H  H11  1  0.15641258  0.96984572  0.53050842  1  0.050877  0  0.108295  0.109716  0  1.00528  0
H  H12  1  0.25049876  0.65689817  0.58594588  1  0.10817  0  0.109945  0.119884  0  0.994473  0
H  H13  1  0.74949095  0.34309752  0.41405712  1  0.108021  0  0.109996  0.119931  0  0.994462  0
H  H14  1  0.19211409  0.85058045  0.92043968  1  0.087322  0  0.109725  0.117858  0  0.992317  0
H  H15  1  0.80788596  0.14942087  0.07955941  1  0.08734  0  0.109703  0.117866  0  0.99231  0
H  H16  1  0.69750959  0.57507686  0.64068374  1  0.072466  0  0.106092  0.112625  0  1.015959  0
H  H17  1  0.30247254  0.42492024  0.35931794  1  0.072649  0  0.106107  0.112653  0  1.015952  0
H  H18  1  0.74371998  0.91905547  0.85207141  1  0.092472  0  0.107025  0.114265  0  1.018356  0
H  H19  1  0.25627556  0.08094481  0.14792680  1  0.092603  0  0.106976  0.114178  0  1.018271  0
H  H20  1  0.58280988  0.38816114  0.50419274  1  0.038224  0  0.102646  0.108676  0  0.998168  0
H  H21  1  0.41720109  0.61182899  0.49581639  1  0.038226  0  0.102606  0.108653  0  0.998192  0
H  H22  1  0.94038606  0.09997747  0.98605954  1  0.042649  0  0.102057  0.108731  0  0.996499  0
H  H23  1  0.05962157  0.90002197  0.01394130  1  0.042974  0  0.102059  0.108739  0  0.996584  0
H  H24  1  0.40645632  0.43043569  0.58583560  1  0.053029  0  0.09438  0.132812  0  0.989661  0
H  H25  1  0.56728346  0.46156994  0.64331555  1  0.029308  0  0.093116  0.128258  0  0.989055  0
H  H26  1  0.42383329  0.51704079  0.60254217  1  0.059906  0  0.090563  0.12806  0  1.023812  0
H  H27  1  0.59356380  0.56955012  0.41417572  1  0.053302  0  0.094316  0.132791  0  0.989778  0
H  H28  1  0.57617630  0.48294504  0.39746914  1  0.059127  0  0.090439  0.127816  0  1.024134  0
H  H29  1  0.43274555  0.53841958  0.35669273  1  0.028921  0  0.093116  0.128272  0  0.989221  0
H  H30  1  0.08446911  0.05362694  0.90047795  1  0.052954  0  0.094078  0.132752  0  0.989112  0
H  H31  1  0.03973514  0.96830324  0.88349977  1  0.062209  0  0.091299  0.129349  0  1.021391  0
H  H32  1  0.90133143  0.02866206  0.84676443  1  0.042811  0  0.092887  0.127619  0  0.98913  0
H  H33  1  0.91553252  0.94637262  0.09952419  1  0.052786  0  0.094111  0.132827  0  0.98913  0
H  H34  1  0.09866418  0.97133797  0.15323727  1  0.042787  0  0.092861  0.127569  0  0.989219  0
H  H35  1  0.96026803  0.03169319  0.11650019  1  0.062108  0  0.091316  0.129368  0  1.021405  0
H  H36  1  0.45837783  0.66284833  0.75326203  1  0.63054  0  0.359339  0.43968  0  0.838252  0
H  H37  1  0.54162972  0.33715288  0.24673576  1  0.630458  0  0.359338  0.439676  0  0.838348  0
H  H38  1  0.95200165  0.83740070  0.74293385  1  0.626743  0  0.358655  0.439391  0  0.839618  0
H  H39  1  0.04800435  0.16260187  0.25706219  1  0.626924  0  0.358678  0.43943  0  0.839599  0
C  C40  1  0.45218312  0.83225799  0.83065402  1  1.575852  0  0.268203  0.645247  0  4.090126  0
C  C41  1  0.54781092  0.16774112  0.16934156  1  1.575899  0  0.268199  0.645333  0  4.089742  0
C  C42  1  0.96867298  0.66905154  0.66879261  1  1.58009  0  0.268155  0.646877  0  4.093419  0
C  C43  1  0.03133020  0.33094601  0.33120910  1  1.581123  0  0.268038  0.646799  0  4.093547  0
C  C44  1  0.45766098  0.82714615  0.67352549  1  1.661586  0  0.273818  0.714122  0  4.16182  0
C  C45  1  0.54233459  0.17285259  0.32647184  1  1.661373  0  0.273832  0.714035  0  4.162332  0
C  C46  1  0.95499699  0.67407663  0.82642127  1  1.689064  0  0.273805  0.712161  0  4.168151  0
C  C47  1  0.04500741  0.32593216  0.17357870  1  1.688484  0  0.273933  0.712561  0  4.167911  0
C  C48  1  0.18986755  0.47807424  0.01819140  1  -0.080195  0  -0.074558  -0.113764  0  3.945245  0
C  C49  1  0.81012336  0.52192698  0.98179895  1  -0.0799  0  -0.07451  -0.113676  0  3.94554  0
C  C50  1  0.69390385  0.01671128  0.48305309  1  0.022435  0  -0.076063  -0.117086  0  3.954507  0
C  C51  1  0.30612473  0.98329139  0.51694516  1  0.021863  0  -0.075936  -0.116817  0  3.954269  0
C  C52  1  0.01505987  0.45473353  0.04414222  1  0.146902  0  0.007751  0.133792  0  4.09958  0
C  C53  1  0.98493257  0.54526729  0.95584944  1  0.147559  0  0.007759  0.133787  0  4.099393  0
C  C54  1  0.52417003  0.04454870  0.45587344  1  0.05694  0  0.008233  0.135731  0  4.096868  0
C  C55  1  0.47583592  0.95545919  0.54412784  1  0.056982  0  0.008296  0.135875  0  4.096832  0
C  C56  1  0.82498393  0.47738474  0.02518591  1  -0.006231  0  -0.07362  -0.113265  0  3.948217  0
C  C57  1  0.17500388  0.52261882  0.97480226  1  -0.00692  0  -0.073562  -0.1134  0  3.947809  0
C  C58  1  0.33008851  0.02715132  0.47359775  1  -0.000516  0  -0.073703  -0.112903  0  3.945351  0
C  C59  1  0.66991591  0.97285537  0.52640048  1  -0.000504  0  -0.073706  -0.112852  0  3.945288  0
C  C60  1  0.02864988  0.40947734  0.08864492  1  -0.449635  0  -0.024031  -0.040625  0  4.088151  0
C  C61  1  0.97133786  0.59053246  0.91134761  1  -0.44937  0  -0.024056  -0.040493  0  4.088078  0
C  C62  1  0.54371567  0.08922485  0.41130773  1  -0.532775  0  -0.024403  -0.041312  0  4.091083  0
C  C63  1  0.45627215  0.91078988  0.58869877  1  -0.533179  0  -0.024507  -0.041517  0  4.091203  0
C  C64  1  0.96299468  0.62917498  0.87273412  1  0.139011  0  -0.034754  -0.185018  0  3.948097  0
C  C65  1  0.03701271  0.37083535  0.12726673  1  0.139531  0  -0.034712  -0.184939  0  3.947801  0
C  C66  1  0.45164581  0.87225285  0.62736670  1  0.274967  0  -0.035254  -0.185525  0  3.952236  0
C  C67  1  0.54835716  0.12774850  0.37262584  1  0.274449  0  -0.035276  -0.185626  0  3.952448  0
C  C68  1  0.13322771  0.62015054  0.57862059  1  -0.008424  0  -0.081107  -0.147641  0  3.937846  0
C  C69  1  0.86676662  0.37984242  0.42138590  1  -0.008255  0  -0.08121  -0.147733  0  3.938282  0
C  C70  1  0.31811712  0.88448692  0.92459292  1  0.008853  0  -0.080173  -0.147269  0  3.942733  0
C  C71  1  0.68187848  0.11551200  0.07540703  1  0.008885  0  -0.080182  -0.14737  0  3.942737  0
C  C72  1  0.97278271  0.61996682  0.61756198  1  -0.046888  0  -0.019951  -0.043217  0  4.026491  0
C  C73  1  0.02720701  0.38002788  0.38244102  1  -0.047287  0  -0.019921  -0.043303  0  4.0266  0
C  C74  1  0.46661659  0.88116717  0.88178787  1  -0.047415  0  -0.018781  -0.043582  0  4.026185  0
C  C75  1  0.53338353  0.11883121  0.11821166  1  -0.045553  0  -0.01876  -0.043653  0  4.026418  0
C  C76  1  0.82081940  0.57308108  0.60973910  1  -0.043148  0  -0.084344  -0.143232  0  3.940464  0
C  C77  1  0.17916420  0.42691911  0.39026433  1  -0.043033  0  -0.084301  -0.143122  0  3.940299  0
C  C78  1  0.63001575  0.92412026  0.88590503  1  -0.064069  0  -0.084213  -0.141652  0  3.938236  0
C  C79  1  0.36999040  0.07587709  0.11409406  1  -0.066209  0  -0.08418  -0.141539  0  3.938165  0
C  C80  1  0.82916112  0.52380339  0.56391859  1  -0.016036  0  -0.007496  0.019575  0  3.989056  0
C  C81  1  0.17081947  0.47619628  0.43608440  1  -0.015915  0  -0.007374  0.019639  0  3.989026  0
C  C82  1  0.64606405  0.97276992  0.93189714  1  -0.023163  0  -0.009018  0.017589  0  3.997162  0
C  C83  1  0.35394208  0.02722897  0.06810282  1  -0.02331  0  -0.008957  0.017732  0  3.997  0
C  C84  1  0.99239320  0.52428699  0.52363689  1  0.041772  0  0.000409  -0.004202  0  3.942793  0
C  C85  1  0.00759648  0.47570861  0.47636480  1  -0.028498  0  0.00026  -0.00432  0  3.942993  0
C  C86  1  0.49498731  0.97598537  0.97612004  1  0.041501  0  0.000494  -0.004509  0  3.943376  0
C  C87  1  0.50502032  0.02401349  0.02387949  1  -0.020396  0  0.000507  -0.004775  0  3.943431  0
C  C88  1  0.14356212  0.57367478  0.53078225  1  -0.04608  0  -0.008337  0.078855  0  4.07354  0
C  C89  1  0.85644270  0.42631904  0.46922295  1  -0.04687  0  -0.008263  0.079024  0  4.073612  0
C  C90  1  0.33139171  0.93080111  0.97255249  1  -0.008373  0  -0.007724  0.081485  0  4.061425  0
C  C91  1  0.66862347  0.06919569  0.02744617  1  -0.008372  0  -0.007784  0.081533  0  4.061335  0
C  C92  1  0.67965229  0.47261583  0.55655986  1  0.0504  0  -0.006017  0.129676  0  3.977887  0
C  C93  1  0.32035097  0.52737936  0.44344359  1  0.050606  0  -0.006083  0.129536  0  3.977761  0
C  C94  1  0.80920469  0.01939383  0.93581807  1  -0.041009  0  -0.00653  0.128404  0  3.981264  0
C  C95  1  0.19079996  0.98060411  0.06418233  1  -0.04062  0  -0.006545  0.128376  0  3.981095  0
C  C96  1  0.69625697  0.42648873  0.51051343  1  -0.083332  0  -0.092291  -0.202282  0  3.966131  0
C  C97  1  0.30374641  0.57350327  0.48949395  1  -0.083893  0  -0.092231  -0.202112  0  3.96598  0
C  C98  1  0.81646180  0.06511820  0.98235719  1  -0.007429  0  -0.091699  -0.201216  0  3.967159  0
C  C99  1  0.18354281  0.93488063  0.01764190  1  -0.007663  0  -0.091718  -0.201251  0  3.967182  0
C  C100  1  0.51051358  0.47021499  0.59920291  1  -0.075232  0  -0.237467  -0.409114  0  3.982952  0
C  C101  1  0.48949445  0.52977384  0.40080884  1  -0.074248  0  -0.237283  -0.408865  0  3.983515  0
C  C102  1  0.96686049  0.01745531  0.88930446  1  -0.102073  0  -0.237475  -0.409209  0  3.981633  0
C  C103  1  0.03314120  0.98254229  0.11069812  1  -0.101837  0  -0.237543  -0.409295  0  3.981668  0
O  O104  1  0.62923856  0.80151194  0.68420062  1  -1.227637  0  -0.228413  -0.577915  0  2.269992  0
O  O105  1  0.37076447  0.19848758  0.31579410  1  -1.227786  0  -0.228414  -0.57788  0  2.270125  0
O  O106  1  0.12135395  0.68519940  0.80197716  1  -1.236845  0  -0.228807  -0.585191  0  2.284482  0
O  O107  1  0.87863849  0.31480312  0.19801756  1  -1.236591  0  -0.228823  -0.585363  0  2.284344  0
O  O108  1  0.28124551  0.80700309  0.81850579  1  -1.259354  0  -0.236733  -0.590142  0  2.319742  0
O  O109  1  0.71875600  0.19299854  0.18149068  1  -1.259438  0  -0.236768  -0.590242  0  2.319481  0
O  O110  1  0.80156659  0.67988565  0.69495224  1  -1.26497  0  -0.240381  -0.604379  0  2.335188  0
O  O111  1  0.19843211  0.32011209  0.30505208  1  -1.265186  0  -0.240292  -0.604257  0  2.335223  0
O  O112  1  0.29340518  0.81773804  0.69970025  1  -1.241273  0  -0.23055  -0.589061  0  2.282138  0
O  O113  1  0.70659177  0.18226721  0.30029840  1  -1.24122  0  -0.230632  -0.589048  0  2.282212  0
O  O114  1  0.78287063  0.69783370  0.81376874  1  -1.229134  0  -0.227188  -0.575777  0  2.273082  0
O  O115  1  0.21713372  0.30217975  0.18623429  1  -1.228829  0  -0.227348  -0.576027  0  2.273171  0
O  O116  1  0.13532536  0.69576674  0.68331471  1  -1.259716  0  -0.237212  -0.594915  0  2.354017  0
O  O117  1  0.86467014  0.30423552  0.31668350  1  -1.260064  0  -0.237191  -0.594918  0  2.353991  0
O  O118  1  0.61317453  0.82012931  0.80188689  1  -1.267636  0  -0.239624  -0.605132  0  2.364852  0
O  O119  1  0.38681626  0.17987801  0.19810565  1  -1.267584  0  -0.239652  -0.605082  0  2.364662  0
O  O120  1  0.45835361  0.71002763  0.74837087  1  -1.430039  0  -0.446846  -0.998239  0  2.213274  0
O  O121  1  0.54164641  0.28997465  0.25162778  1  -1.429936  0  -0.446823  -0.99824  0  2.213372  0
O  O122  1  0.95476405  0.79110408  0.75140318  1  -1.427721  0  -0.446969  -0.998832  0  2.207217  0
O  O123  1  0.04523598  0.20889603  0.24859285  1  -1.427868  0  -0.446991  -0.998863  0  2.207138  0
