# generated using pymatgen
data_CuH6C4S2N3
_symmetry_space_group_name_H-M   'P 1'
_cell_length_a   6.48288963
_cell_length_b   7.75379758
_cell_length_c   14.27032028
_cell_angle_alpha   90.00056832
_cell_angle_beta   89.99983313
_cell_angle_gamma   99.46564032
_symmetry_Int_Tables_number   1
_chemical_formula_structural   CuH6C4S2N3
_chemical_formula_sum   'Cu4 H24 C16 S8 N12'
_cell_volume   707.55955992
_cell_formula_units_Z   4
loop_
 _symmetry_equiv_pos_site_id
 _symmetry_equiv_pos_as_xyz
  1  'x, y, z'
loop_
 _atom_site_type_symbol
 _atom_site_label
 _atom_site_symmetry_multiplicity
 _atom_site_fract_x
 _atom_site_fract_y
 _atom_site_fract_z
 _atom_site_occupancy
 _atom_site_hle17_bader_spin_density
 _atom_site_hle17_ddec_charge
 _atom_site_hle17_ddec_spin_density
 _atom_site_hle17_ddec_sum_bond_order
 _atom_site_hle17_magmom
 _atom_site_hse06_10hf_bader_spin_density
 _atom_site_hse06_10hf_ddec_charge
 _atom_site_hse06_10hf_ddec_spin_density
 _atom_site_hse06_10hf_ddec_sum_bond_order
 _atom_site_hse06_10hf_magmom
 _atom_site_hse06_bader_spin_density
 _atom_site_hse06_ddec_charge
 _atom_site_hse06_ddec_spin_density
 _atom_site_hse06_ddec_sum_bond_order
 _atom_site_hse06_magmom
 _atom_site_pbe_bader_spin_density
 _atom_site_pbe_cm5_charge
 _atom_site_pbe_ddec_charge
 _atom_site_pbe_ddec_spin_density
 _atom_site_pbe_ddec_sum_bond_order
 _atom_site_pbe_magmom
Cu  Cu0  1  0.94309065  0.55949117  0.92023467  1  0  0.332059  0  2.307913  0  0  0.266618  0  2.815873  0  0  0.2651  0  2.769779  0  0  0.387259  0.270026  0  2.845179  0
Cu  Cu1  1  0.55689854  0.44050231  0.42023460  1  0  0.332002  0  2.307825  0  0  0.266545  0  2.815762  0  0  0.265066  0  2.76968  0  0  0.387211  0.269951  0  2.845069  0
Cu  Cu2  1  0.05688921  0.44051432  0.07975973  1  0  0.332031  0  2.307751  0  0  0.266579  0  2.815721  0  0  0.265126  0  2.769606  0  0  0.387236  0.269996  0  2.845014  0
Cu  Cu3  1  0.44311055  0.55948741  0.57976401  1  0  0.332024  0  2.307733  0  0  0.26658  0  2.815668  0  0  0.26509  0  2.769588  0  0  0.387225  0.269988  0  2.84499  0
H  H4  1  0.31120607  0.41022383  0.89516305  1  0  0.283718  0  0.930635  0  0  0.260755  0  1.009685  0  0  0.269172  0  1.002003  0  0  0.292591  0.254642  0  1.015431  0
H  H5  1  0.18879494  0.58977156  0.39516013  1  0  0.283763  0  0.930551  0  0  0.260741  0  1.00965  0  0  0.269158  0  1.001969  0  0  0.29257  0.254625  0  1.015402  0
H  H6  1  0.68878436  0.58978818  0.10482786  1  0  0.283717  0  0.930617  0  0  0.26075  0  1.009622  0  0  0.269162  0  1.001956  0  0  0.292615  0.254634  0  1.01537  0
H  H7  1  0.81122671  0.41021158  0.60483217  1  0  0.283648  0  0.930732  0  0  0.260817  0  1.009695  0  0  0.269199  0  1.002021  0  0  0.29261  0.254702  0  1.015439  0
H  H8  1  0.96409767  0.92401603  0.88716704  1  0  0.281965  0  0.922843  0  0  0.260488  0  0.999163  0  0  0.267882  0  0.994056  0  0  0.294277  0.255139  0  1.003034  0
H  H9  1  0.53590731  0.07597815  0.38716707  1  0  0.28197  0  0.922813  0  0  0.260487  0  0.999138  0  0  0.267881  0  0.99403  0  0  0.294284  0.255142  0  1.003004  0
H  H10  1  0.03591427  0.07598022  0.11283157  1  0  0.282081  0  0.922839  0  0  0.260614  0  0.999094  0  0  0.268002  0  0.993992  0  0  0.294367  0.255278  0  1.002961  0
H  H11  1  0.46409515  0.92402467  0.61283715  1  0  0.281916  0  0.922852  0  0  0.260416  0  0.999155  0  0  0.267809  0  0.994046  0  0  0.294291  0.255075  0  1.003013  0
H  H12  1  0.26584537  0.92759084  0.76392710  1  0  0.074424  0  0.951599  0  0  0.088222  0  1.013356  0  0  0.088374  0  1.014262  0  0  0.103079  0.087988  0  1.012847  0
H  H13  1  0.23415993  0.07240620  0.26392825  1  0  0.074452  0  0.951487  0  0  0.088255  0  1.013253  0  0  0.08841  0  1.014154  0  0  0.103085  0.08802  0  1.012748  0
H  H14  1  0.73419075  0.07241057  0.23608203  1  0  0.074378  0  0.951537  0  0  0.088162  0  1.013301  0  0  0.088315  0  1.014205  0  0  0.103027  0.087926  0  1.012794  0
H  H15  1  0.76581583  0.92760192  0.73609208  1  0  0.074362  0  0.951486  0  0  0.08811  0  1.013311  0  0  0.088266  0  1.014211  0  0  0.103013  0.087879  0  1.012803  0
H  H16  1  0.35193097  0.91788403  0.88215001  1  0  0.067466  0  0.953225  0  0  0.0775  0  1.023576  0  0  0.077824  0  1.024738  0  0  0.09008  0.077174  0  1.022824  0
H  H17  1  0.14806828  0.08210983  0.38215133  1  0  0.067506  0  0.953202  0  0  0.077529  0  1.023576  0  0  0.077857  0  1.024733  0  0  0.090085  0.077202  0  1.022826  0
H  H18  1  0.64809626  0.08214226  0.11785911  1  0  0.067435  0  0.953069  0  0  0.077505  0  1.023355  0  0  0.077831  0  1.024515  0  0  0.090071  0.077172  0  1.022613  0
H  H19  1  0.85191270  0.91785510  0.61786760  1  0  0.067506  0  0.952989  0  0  0.077565  0  1.023303  0  0  0.077892  0  1.024462  0  0  0.090079  0.07724  0  1.022551  0
H  H20  1  0.56196585  0.19740083  0.84480183  1  0  0.074492  0  0.956125  0  0  0.089435  0  1.01993  0  0  0.089782  0  1.020857  0  0  0.096087  0.089058  0  1.019445  0
H  H21  1  0.93803464  0.80259262  0.34479907  1  0  0.074487  0  0.956116  0  0  0.089452  0  1.019914  0  0  0.089803  0  1.020841  0  0  0.096101  0.089074  0  1.019433  0
H  H22  1  0.43803956  0.80263207  0.15519398  1  0  0.07469  0  0.955925  0  0  0.089574  0  1.019756  0  0  0.089922  0  1.020684  0  0  0.096191  0.089194  0  1.019272  0
H  H23  1  0.06196792  0.19737225  0.65519954  1  0  0.074644  0  0.955959  0  0  0.089546  0  1.019734  0  0  0.089893  0  1.020662  0  0  0.096149  0.089167  0  1.019251  0
H  H24  1  0.39010094  0.23727690  0.75184688  1  0  0.065155  0  0.948358  0  0  0.076571  0  1.017295  0  0  0.076318  0  1.018695  0  0  0.098372  0.076599  0  1.016456  0
H  H25  1  0.10990286  0.76271994  0.25184503  1  0  0.06513  0  0.948307  0  0  0.076574  0  1.017252  0  0  0.076322  0  1.018654  0  0  0.098364  0.076598  0  1.016414  0
H  H26  1  0.60989352  0.76271679  0.24814472  1  0  0.065267  0  0.948434  0  0  0.07666  0  1.017332  0  0  0.07641  0  1.018729  0  0  0.098405  0.076685  0  1.016494  0
H  H27  1  0.89010761  0.23729201  0.74814658  1  0  0.06519  0  0.948393  0  0  0.076543  0  1.017308  0  0  0.076286  0  1.018708  0  0  0.098377  0.076574  0  1.016466  0
C  C28  1  0.27969990  0.99629043  0.83112829  1  0  0.029655  0  3.582334  0  0  -0.023852  0  3.831736  0  0  -0.019947  0  3.842514  0  0  -0.059896  -0.026311  0  3.82433  0
C  C29  1  0.22030466  0.00370515  0.33113119  1  0  0.029543  0  3.582228  0  0  -0.023973  0  3.831727  0  0  -0.020064  0  3.842504  0  0  -0.059915  -0.026428  0  3.82432  0
C  C30  1  0.72032749  0.00371362  0.16887452  1  0  0.029721  0  3.582074  0  0  -0.023759  0  3.831441  0  0  -0.019849  0  3.842215  0  0  -0.059815  -0.026219  0  3.824055  0
C  C31  1  0.77967235  0.99629381  0.66888214  1  0  0.029559  0  3.581971  0  0  -0.02395  0  3.831359  0  0  -0.020043  0  3.842129  0  0  -0.059823  -0.026401  0  3.823949  0
C  C32  1  0.59367248  0.61678449  0.78333414  1  0  0.290745  0  3.928587  0  0  0.282009  0  4.215987  0  0  0.299562  0  4.231488  0  0  0.14584  0.270196  0  4.205517  0
C  C33  1  0.90630488  0.38322236  0.28332559  1  0  0.290516  0  3.928047  0  0  0.281767  0  4.215478  0  0  0.299331  0  4.230974  0  0  0.145807  0.269955  0  4.20501  0
C  C34  1  0.40629423  0.38320927  0.21666378  1  0  0.290474  0  3.928016  0  0  0.281748  0  4.215456  0  0  0.299308  0  4.230963  0  0  0.145694  0.269929  0  4.204984  0
C  C35  1  0.09369427  0.61678700  0.71666882  1  0  0.290471  0  3.927373  0  0  0.281742  0  4.214834  0  0  0.299304  0  4.230333  0  0  0.145715  0.269924  0  4.204366  0
C  C36  1  0.08847310  0.18613699  0.90341536  1  0  0.441722  0  3.802232  0  0  0.398196  0  4.09495  0  0  0.425239  0  4.10024  0  0  0.238703  0.379993  0  4.090776  0
C  C37  1  0.41152119  0.81385594  0.40341621  1  0  0.441745  0  3.802275  0  0  0.398205  0  4.095005  0  0  0.425254  0  4.100275  0  0  0.238674  0.38001  0  4.090815  0
C  C38  1  0.91152015  0.81387370  0.09657975  1  0  0.441687  0  3.802452  0  0  0.3981  0  4.095279  0  0  0.425148  0  4.100563  0  0  0.238642  0.379907  0  4.091104  0
C  C39  1  0.58848786  0.18612592  0.59658521  1  0  0.441797  0  3.802328  0  0  0.398212  0  4.095156  0  0  0.425264  0  4.100426  0  0  0.238685  0.380015  0  4.090972  0
C  C40  1  0.39790842  0.18427049  0.82302173  1  0  0.038506  0  3.575261  0  0  -0.015855  0  3.823686  0  0  -0.012301  0  3.835729  0  0  -0.056747  -0.018086  0  3.815499  0
C  C41  1  0.10209436  0.81572365  0.32302088  1  0  0.038625  0  3.575083  0  0  -0.015794  0  3.823555  0  0  -0.01225  0  3.835611  0  0  -0.056734  -0.018028  0  3.815371  0
C  C42  1  0.60209536  0.81573886  0.17697829  1  0  0.038055  0  3.57553  0  0  -0.016197  0  3.823877  0  0  -0.012632  0  3.835895  0  0  -0.05694  -0.018435  0  3.8157  0
C  C43  1  0.89791472  0.18426607  0.67698334  1  0  0.0383  0  3.575272  0  0  -0.01583  0  3.82346  0  0  -0.012257  0  3.835461  0  0  -0.056819  -0.018065  0  3.815282  0
S  S44  1  0.88893769  0.25993878  0.96145019  1  0  -0.382622  0  2.500238  0  0  -0.372031  0  2.946829  0  0  -0.376505  0  2.9186  0  0  -0.203412  -0.369461  0  2.965499  0
S  S45  1  0.61105987  0.74005931  0.46145452  1  0  -0.382699  0  2.5002  0  0  -0.372046  0  2.946693  0  0  -0.376531  0  2.918471  0  0  -0.203434  -0.36949  0  2.965364  0
S  S46  1  0.11105962  0.74006144  0.03854141  1  0  -0.382742  0  2.500283  0  0  -0.372034  0  2.946744  0  0  -0.376515  0  2.918518  0  0  -0.203448  -0.369468  0  2.965404  0
S  S47  1  0.38895234  0.25993824  0.53854900  1  0  -0.382712  0  2.500272  0  0  -0.37201  0  2.946742  0  0  -0.376499  0  2.918522  0  0  -0.203437  -0.369446  0  2.965409  0
S  S48  1  0.62248932  0.65837840  0.89582715  1  0  -0.330133  0  2.383914  0  0  -0.302631  0  2.758032  0  0  -0.312355  0  2.742811  0  0  -0.16322  -0.296513  0  2.768483  0
S  S49  1  0.87749743  0.34162513  0.39581701  1  0  -0.329992  0  2.383949  0  0  -0.302509  0  2.75815  0  0  -0.312249  0  2.742939  0  0  -0.163183  -0.2964  0  2.768608  0
S  S50  1  0.37747998  0.34162058  0.10417356  1  0  -0.329962  0  2.384074  0  0  -0.302517  0  2.758254  0  0  -0.31225  0  2.743046  0  0  -0.16317  -0.296411  0  2.768714  0
S  S51  1  0.12250782  0.65836852  0.60417109  1  0  -0.330026  0  2.383761  0  0  -0.302588  0  2.757973  0  0  -0.312317  0  2.742745  0  0  -0.163218  -0.29647  0  2.768432  0
N  N52  1  0.27905045  0.27768018  0.88724907  1  0  -0.385984  0  3.304608  0  0  -0.31896  0  3.541302  0  0  -0.338441  0  3.550078  0  0  -0.416781  -0.305938  0  3.535439  0
N  N53  1  0.22095111  0.72231769  0.38724685  1  0  -0.385948  0  3.304788  0  0  -0.318848  0  3.541556  0  0  -0.338323  0  3.550325  0  0  -0.416692  -0.30583  0  3.535686  0
N  N54  1  0.72094358  0.72233443  0.11274113  1  0  -0.3857  0  3.304554  0  0  -0.318697  0  3.541382  0  0  -0.338177  0  3.550157  0  0  -0.416722  -0.305685  0  3.535521  0
N  N55  1  0.77907595  0.27766936  0.61274545  1  0  -0.385772  0  3.304545  0  0  -0.318995  0  3.541209  0  0  -0.338424  0  3.550039  0  0  -0.416769  -0.305974  0  3.535348  0
N  N56  1  0.07435307  0.02539765  0.86533239  1  0  -0.3955  0  3.274504  0  0  -0.32886  0  3.512936  0  0  -0.349279  0  3.523577  0  0  -0.416132  -0.315069  0  3.50556  0
N  N57  1  0.42565010  0.97459984  0.36533481  1  0  -0.395598  0  3.274407  0  0  -0.328936  0  3.512858  0  0  -0.34936  0  3.523493  0  0  -0.416166  -0.315121  0  3.505399  0
N  N58  1  0.92566356  0.97461428  0.13466412  1  0  -0.395572  0  3.274617  0  0  -0.32892  0  3.513088  0  0  -0.349343  0  3.523742  0  0  -0.416132  -0.315095  0  3.505583  0
N  N59  1  0.57434410  0.02539254  0.63467011  1  0  -0.395353  0  3.274504  0  0  -0.328653  0  3.513005  0  0  -0.349069  0  3.523638  0  0  -0.416095  -0.314861  0  3.505586  0
N  N60  1  0.57242131  0.58845701  0.70213687  1  0  -0.485639  0  3.106261  0  0  -0.43759  0  3.422913  0  0  -0.450467  0  3.424819  0  0  -0.430063  -0.429426  0  3.421414  0
N  N61  1  0.92754913  0.41155108  0.20212425  1  0  -0.485518  0  3.105619  0  0  -0.437501  0  3.422344  0  0  -0.45035  0  3.424184  0  0  -0.430063  -0.429342  0  3.420844  0
N  N62  1  0.42754642  0.41153413  0.29787926  1  0  -0.485588  0  3.105634  0  0  -0.437527  0  3.422269  0  0  -0.450412  0  3.424189  0  0  -0.430034  -0.42936  0  3.42076  0
N  N63  1  0.07242997  0.58845834  0.79788277  1  0  -0.485542  0  3.105452  0  0  -0.437505  0  3.422151  0  0  -0.450354  0  3.424001  0  0  -0.430004  -0.429342  0  3.420652  0
