# generated using pymatgen
data_NaCaH6C6NO6
_symmetry_space_group_name_H-M   'P 1'
_cell_length_a   9.65794079
_cell_length_b   9.65792576
_cell_length_c   9.65791726
_cell_angle_alpha   90.00033818
_cell_angle_beta   90.00026716
_cell_angle_gamma   89.99992918
_symmetry_Int_Tables_number   1
_chemical_formula_structural   NaCaH6C6NO6
_chemical_formula_sum   'Na4 Ca4 H24 C24 N4 O24'
_cell_volume   900.84875318
_cell_formula_units_Z   4
loop_
 _symmetry_equiv_pos_site_id
 _symmetry_equiv_pos_as_xyz
  1  'x, y, z'
loop_
 _atom_site_type_symbol
 _atom_site_label
 _atom_site_symmetry_multiplicity
 _atom_site_fract_x
 _atom_site_fract_y
 _atom_site_fract_z
 _atom_site_occupancy
 _atom_site_pbe_bader_spin_density
 _atom_site_pbe_cm5_charge
 _atom_site_pbe_ddec_charge
 _atom_site_pbe_ddec_spin_density
 _atom_site_pbe_ddec_sum_bond_order
 _atom_site_pbe_magmom
Na  Na0  1  0.17087519  0.82912507  0.32912453  1  0  0.735174  0.839986  0  0.588071  0
Na  Na1  1  0.32912478  0.17087537  0.82912413  1  0  0.73519  0.840017  0  0.588017  0
Na  Na2  1  0.82912518  0.32912449  0.17087515  1  0  0.735183  0.840019  0  0.588004  0
Na  Na3  1  0.67087604  0.67087543  0.67087593  1  0  0.735172  0.84001  0  0.588024  0
Ca  Ca4  1  0.16292114  0.16292046  0.16292004  1  0  0.864772  1.319899  0  1.554266  0
Ca  Ca5  1  0.66292152  0.33707962  0.83707846  1  0  0.864756  1.319813  0  1.554377  0
Ca  Ca6  1  0.83707944  0.66292129  0.33707865  1  0  0.864746  1.319843  0  1.554366  0
Ca  Ca7  1  0.33707909  0.83707900  0.66292155  1  0  0.86473  1.319868  0  1.554367  0
H  H8  1  0.66520711  0.99718562  0.30474204  1  0  0.121189  0.112258  0  0.979507  0
H  H9  1  0.30474286  0.66520667  0.99718454  1  0  0.121198  0.112259  0  0.979463  0
H  H10  1  0.99718598  0.30474277  0.66520669  1  0  0.121202  0.112255  0  0.97945  0
H  H11  1  0.16520630  0.50281488  0.69525736  1  0  0.12119  0.112233  0  0.97947  0
H  H12  1  0.80474247  0.83479367  0.00281654  1  0  0.121181  0.112239  0  0.979496  0
H  H13  1  0.49718532  0.19525689  0.33479442  1  0  0.121193  0.112246  0  0.979447  0
H  H14  1  0.33479408  0.49718477  0.19525656  1  0  0.121199  0.11226  0  0.979447  0
H  H15  1  0.69525797  0.16520630  0.50281445  1  0  0.121185  0.112237  0  0.979508  0
H  H16  1  0.00281571  0.80474255  0.83479313  1  0  0.121178  0.112228  0  0.979525  0
H  H17  1  0.83479370  0.00281613  0.80474171  1  0  0.121195  0.112282  0  0.979484  0
H  H18  1  0.19525893  0.33479373  0.49718421  1  0  0.121167  0.112256  0  0.979483  0
H  H19  1  0.50281521  0.69525816  0.16520551  1  0  0.121182  0.11223  0  0.979516  0
H  H20  1  0.68031610  0.04008724  0.12686032  1  0  0.114515  0.108267  0  0.992087  0
H  H21  1  0.12686108  0.68031589  0.04008755  1  0  0.114517  0.108255  0  0.99208  0
H  H22  1  0.04008873  0.12686152  0.68031588  1  0  0.114506  0.108255  0  0.992093  0
H  H23  1  0.18031659  0.45991281  0.87313931  1  0  0.114505  0.108237  0  0.992131  0
H  H24  1  0.62686103  0.81968363  0.95991167  1  0  0.114519  0.108262  0  0.992082  0
H  H25  1  0.54008769  0.37313767  0.31968309  1  0  0.114514  0.108261  0  0.992106  0
H  H26  1  0.31968359  0.54008789  0.37313765  1  0  0.114513  0.10827  0  0.99211  0
H  H27  1  0.87313947  0.18031593  0.45991229  1  0  0.114511  0.108246  0  0.992087  0
H  H28  1  0.95991319  0.62686107  0.81968392  1  0  0.114521  0.108271  0  0.992078  0
H  H29  1  0.81968181  0.95991243  0.62686143  1  0  0.114531  0.10831  0  0.992051  0
H  H30  1  0.37313961  0.31968388  0.54008720  1  0  0.114511  0.10829  0  0.99204  0
H  H31  1  0.45991262  0.87314011  0.18031685  1  0  0.114514  0.10825  0  0.992078  0
C  C32  1  0.71540498  0.96637641  0.20698807  1  0  -0.060843  -0.233852  0  3.918002  0
C  C33  1  0.20698900  0.71540582  0.96637658  1  0  -0.060839  -0.233785  0  3.917836  0
C  C34  1  0.96637731  0.20698799  0.71540452  1  0  -0.060835  -0.233765  0  3.917824  0
C  C35  1  0.21540458  0.53362404  0.79301053  1  0  -0.060816  -0.233722  0  3.917874  0
C  C36  1  0.70698778  0.78459567  0.03362405  1  0  -0.060807  -0.233763  0  3.917944  0
C  C37  1  0.46637630  0.29301171  0.28459437  1  0  -0.060816  -0.23373  0  3.917985  0
C  C38  1  0.28459522  0.46637619  0.29301138  1  0  -0.060817  -0.233769  0  3.918016  0
C  C39  1  0.79301281  0.21540448  0.53362375  1  0  -0.060814  -0.233761  0  3.918009  0
C  C40  1  0.03362450  0.70698847  0.78459576  1  0  -0.060841  -0.233817  0  3.918001  0
C  C41  1  0.78459434  0.03362476  0.70698873  1  0  -0.060853  -0.233908  0  3.918079  0
C  C42  1  0.29301265  0.28459440  0.46637537  1  0  -0.060781  -0.233833  0  3.917921  0
C  C43  1  0.53362412  0.79301220  0.21540406  1  0  -0.060807  -0.233734  0  3.917966  0
C  C44  1  0.87177997  0.98287579  0.23096674  1  0  0.228772  0.642345  0  4.190682  0
C  C45  1  0.23096507  0.87178519  0.98288273  1  0  0.228802  0.642376  0  4.190795  0
C  C46  1  0.98287393  0.23096564  0.87178099  1  0  0.22879  0.642365  0  4.190737  0
C  C47  1  0.37178052  0.51712032  0.76903466  1  0  0.228742  0.642247  0  4.190829  0
C  C48  1  0.73096499  0.62821834  0.01712837  1  0  0.22874  0.642281  0  4.190832  0
C  C49  1  0.48286600  0.26903093  0.12822108  1  0  0.228788  0.642282  0  4.190883  0
C  C50  1  0.12822021  0.48286837  0.26902867  1  0  0.228827  0.642382  0  4.190827  0
C  C51  1  0.76903448  0.37177964  0.51712888  1  0  0.228752  0.642309  0  4.190794  0
C  C52  1  0.01712475  0.73096418  0.62821839  1  0  0.228777  0.642352  0  4.190792  0
C  C53  1  0.62822050  0.01713485  0.73096967  1  0  0.228811  0.64234  0  4.190869  0
C  C54  1  0.26903252  0.12822030  0.48286598  1  0  0.228846  0.64246  0  4.190642  0
C  C55  1  0.51712926  0.76903444  0.37178032  1  0  0.22873  0.642285  0  4.190832  0
N  N56  1  0.67713804  0.82286106  0.17713847  1  0  -0.369206  -0.108997  0  3.587441  0
N  N57  1  0.17713864  0.67713944  0.82286202  1  0  -0.369191  -0.109017  0  3.587452  0
N  N58  1  0.82286114  0.17713890  0.67713808  1  0  -0.369194  -0.10901  0  3.587407  0
N  N59  1  0.32286130  0.32286097  0.32286014  1  0  -0.369217  -0.10914  0  3.58765  0
O  O60  1  0.92387025  0.10170098  0.21012022  1  0  -0.402432  -0.658105  0  2.224874  0
O  O61  1  0.21012520  0.92387039  0.10170630  1  0  -0.402446  -0.65812  0  2.225197  0
O  O62  1  0.10170176  0.21012439  0.92386878  1  0  -0.402409  -0.6581  0  2.224925  0
O  O63  1  0.42386938  0.39829877  0.78987329  1  0  -0.402378  -0.658017  0  2.225175  0
O  O64  1  0.71012516  0.57613110  0.89829848  1  0  -0.402385  -0.65803  0  2.224913  0
O  O65  1  0.60170073  0.28987473  0.07612944  1  0  -0.402446  -0.658065  0  2.224734  0
O  O66  1  0.07613040  0.60170144  0.28987397  1  0  -0.402443  -0.658113  0  2.224793  0
O  O67  1  0.78987608  0.42386913  0.39829911  1  0  -0.402396  -0.658065  0  2.224812  0
O  O68  1  0.89829798  0.71012361  0.57613048  1  0  -0.40241  -0.658086  0  2.22499  0
O  O69  1  0.57613012  0.89829711  0.71012604  1  0  -0.402438  -0.658115  0  2.224734  0
O  O70  1  0.28987578  0.07612974  0.60170309  1  0  -0.402469  -0.65816  0  2.22468  0
O  O71  1  0.39829969  0.78987661  0.42386794  1  0  -0.402392  -0.658065  0  2.224846  0
O  O72  1  0.93762026  0.87776117  0.27379258  1  0  -0.411472  -0.654584  0  2.251293  0
O  O73  1  0.27379068  0.93761886  0.87776408  1  0  -0.411484  -0.6546  0  2.251172  0
O  O74  1  0.87776366  0.27379083  0.93762012  1  0  -0.411495  -0.654611  0  2.251376  0
O  O75  1  0.43762048  0.62224004  0.72620912  1  0  -0.411479  -0.654568  0  2.251149  0
O  O76  1  0.77379118  0.56237944  0.12223686  1  0  -0.41148  -0.654581  0  2.251363  0
O  O77  1  0.37776376  0.22620587  0.06237835  1  0  -0.41148  -0.654562  0  2.251544  0
O  O78  1  0.06237902  0.37776394  0.22620635  1  0  -0.411509  -0.654593  0  2.251458  0
O  O79  1  0.72620982  0.43761916  0.62223652  1  0  -0.411475  -0.654572  0  2.251407  0
O  O80  1  0.12223703  0.77379299  0.56238055  1  0  -0.411489  -0.6546  0  2.251337  0
O  O81  1  0.56237937  0.12223522  0.77379376  1  0  -0.411495  -0.65455  0  2.251535  0
O  O82  1  0.22620952  0.06237979  0.37776332  1  0  -0.411502  -0.654609  0  2.251434  0
O  O83  1  0.62223570  0.72621067  0.43761865  1  0  -0.411452  -0.654565  0  2.251432  0
