# generated using pymatgen
data_Cu2H12C15(IN2)2
_symmetry_space_group_name_H-M   'P 1'
_cell_length_a   11.13908336
_cell_length_b   12.01243241
_cell_length_c   18.26945834
_cell_angle_alpha   79.80491241
_cell_angle_beta   72.24453109
_cell_angle_gamma   62.36389974
_symmetry_Int_Tables_number   1
_chemical_formula_structural   Cu2H12C15(IN2)2
_chemical_formula_sum   'Cu8 H48 C60 I8 N16'
_cell_volume   2060.70039912
_cell_formula_units_Z   4
loop_
 _symmetry_equiv_pos_site_id
 _symmetry_equiv_pos_as_xyz
  1  'x, y, z'
loop_
 _atom_site_type_symbol
 _atom_site_label
 _atom_site_symmetry_multiplicity
 _atom_site_fract_x
 _atom_site_fract_y
 _atom_site_fract_z
 _atom_site_occupancy
 _atom_site_pbe_bader_charge
 _atom_site_pbe_bader_spin_density
 _atom_site_pbe_cm5_charge
 _atom_site_pbe_ddec_charge
 _atom_site_pbe_ddec_spin_density
 _atom_site_pbe_ddec_sum_bond_order
 _atom_site_pbe_magmom
Cu  Cu0  1  0.74211449  0.13235145  0.73216958  1  0.389633  0  0.234626  0.146178  0  2.786794  0
Cu  Cu1  1  0.60616817  0.36779262  0.76796149  1  0.394565  0  0.234113  0.146183  0  2.785765  0
Cu  Cu2  1  0.25788408  0.86765092  0.26782962  1  0.389626  0  0.234649  0.14619  0  2.786775  0
Cu  Cu3  1  0.39383272  0.63220880  0.23203849  1  0.394563  0  0.234099  0.146164  0  2.785781  0
Cu  Cu4  1  0.85440615  0.28268351  0.67713679  1  0.392178  0  0.235972  0.146743  0  2.744422  0
Cu  Cu5  1  0.81396260  0.21769307  0.82295458  1  0.390593  0  0.236034  0.146765  0  2.74621  0
Cu  Cu6  1  0.14559661  0.71731604  0.32286251  1  0.392287  0  0.235995  0.146782  0  2.744352  0
Cu  Cu7  1  0.18603688  0.78230741  0.17704576  1  0.390741  0  0.236044  0.146802  0  2.746219  0
H  H8  1  0.45612874  0.14960739  0.72640610  1  0.065219  0  0.095332  0.107919  0  1.033559  0
H  H9  1  0.33143008  0.35079285  0.77330817  1  0.067403  0  0.095918  0.108529  0  1.032814  0
H  H10  1  0.54386788  0.85039121  0.27359498  1  0.065659  0  0.095377  0.107962  0  1.033588  0
H  H11  1  0.66856707  0.64921046  0.22669228  1  0.067362  0  0.095922  0.108541  0  1.032795  0
H  H12  1  0.28170303  0.07862392  0.71512358  1  0.083206  0  0.086386  0.090038  0  1.054134  0
H  H13  1  0.07460661  0.42182976  0.78476832  1  0.07433  0  0.085426  0.088497  0  1.054955  0
H  H14  1  0.71829591  0.92137186  0.28487739  1  0.083196  0  0.08641  0.090016  0  1.054127  0
H  H15  1  0.92539054  0.57817353  0.21523268  1  0.07429  0  0.08545  0.088511  0  1.054922  0
H  H16  1  0.35698200  0.86080629  0.68616682  1  0.05692  0  0.091095  0.097706  0  1.015038  0
H  H17  1  0.90305817  0.63958322  0.81392965  1  0.09682  0  0.091554  0.097964  0  1.015556  0
H  H18  1  0.64301980  0.13919138  0.31383232  1  0.056952  0  0.091074  0.097701  0  1.015016  0
H  H19  1  0.09693991  0.36042006  0.18607338  1  0.096789  0  0.091605  0.098058  0  1.01553  0
H  H20  1  0.60738667  0.70518411  0.66153537  1  0.098762  0  0.096483  0.107177  0  1.056405  0
H  H21  1  0.97323367  0.79509868  0.83860625  1  0.065594  0  0.096692  0.107518  0  1.056336  0
H  H22  1  0.39261612  0.29481547  0.33846064  1  0.098791  0  0.096493  0.107243  0  1.056322  0
H  H23  1  0.02676626  0.20490272  0.16139774  1  0.065632  0  0.096749  0.107632  0  1.056249  0
H  H24  1  0.96333299  0.85365889  0.67012206  1  0.12959  0  0.124511  0.095049  0  1.022165  0
H  H25  1  0.48642180  0.64620868  0.83006427  1  0.159122  0  0.124358  0.094286  0  1.022734  0
H  H26  1  0.03666698  0.14634254  0.32987700  1  0.129596  0  0.124528  0.095062  0  1.022191  0
H  H27  1  0.51358000  0.35379085  0.16993794  1  0.157501  0  0.124343  0.094254  0  1.022809  0
H  H28  1  0.01810458  0.63881455  0.63977824  1  0.125635  0  0.133531  0.10051  0  0.973389  0
H  H29  1  0.29647895  0.86111766  0.86003654  1  0.127091  0  0.133171  0.099324  0  0.973125  0
H  H30  1  0.98189443  0.36118687  0.36022208  1  0.125629  0  0.133526  0.10049  0  0.973413  0
H  H31  1  0.70351865  0.13888468  0.13996613  1  0.127153  0  0.133141  0.099276  0  0.973204  0
H  H32  1  0.88074799  0.59342638  0.65808855  1  0.116551  0  0.111132  0.091513  0  1.041465  0
H  H33  1  0.13178130  0.90677226  0.84197777  1  0.127325  0  0.111597  0.092508  0  1.041227  0
H  H34  1  0.11925151  0.40657599  0.34191048  1  0.116481  0  0.111123  0.091489  0  1.041485  0
H  H35  1  0.86821723  0.09322822  0.15802329  1  0.127296  0  0.111588  0.09249  0  1.041247  0
H  H36  1  0.73294105  0.55641233  0.59721451  1  0.091549  0  0.094228  0.101945  0  1.05567  0
H  H37  1  0.88642302  0.94385543  0.90292818  1  0.091572  0  0.094052  0.1015  0  1.056104  0
H  H38  1  0.26706078  0.44358722  0.40278442  1  0.091544  0  0.094232  0.10197  0  1.055623  0
H  H39  1  0.11357457  0.05614505  0.09707306  1  0.091498  0  0.094068  0.101502  0  1.056095  0
H  H40  1  0.62746602  0.53662038  0.50215107  1  0.044897  0  0.08651  0.094583  0  1.032108  0
H  H41  1  0.66616972  0.96325320  0.99799184  1  0.065056  0  0.086607  0.094933  0  1.031384  0
H  H42  1  0.37252931  0.46338669  0.49784820  1  0.044872  0  0.086528  0.09464  0  1.032012  0
H  H43  1  0.33382927  0.03674633  0.00200979  1  0.064987  0  0.086622  0.094978  0  1.031385  0
H  H44  1  0.69582745  0.59727585  0.36477739  1  0.100176  0  0.086567  0.091516  0  1.053535  0
H  H45  1  0.65805831  0.90221803  0.13532970  1  0.070875  0  0.086786  0.091833  0  1.052944  0
H  H46  1  0.30417252  0.40272559  0.63522112  1  0.10018  0  0.08654  0.091481  0  1.053537  0
H  H47  1  0.34194115  0.09778245  0.86467174  1  0.070849  0  0.086813  0.091856  0  1.052947  0
H  H48  1  0.88327415  0.67390221  0.31697601  1  0.083459  0  0.094379  0.103654  0  1.041899  0
H  H49  1  0.87441941  0.82558598  0.18303922  1  0.082591  0  0.094559  0.104605  0  1.040973  0
H  H50  1  0.11673095  0.32609452  0.68302209  1  0.083529  0  0.094393  0.103666  0  1.04188  0
H  H51  1  0.12557909  0.17441261  0.81696206  1  0.082616  0  0.09455  0.104631  0  1.040887  0
H  H52  1  0.09767419  0.72779956  0.50271729  1  0.139633  0  0.129983  0.100673  0  1.004353  0
H  H53  1  0.32835164  0.77207754  0.99713473  1  0.116793  0  0.129562  0.101079  0  1.003725  0
H  H54  1  0.90232346  0.27220470  0.49728077  1  0.13959  0  0.129997  0.10071  0  1.004331  0
H  H55  1  0.67164830  0.22792200  0.00286564  1  0.116814  0  0.129568  0.101092  0  1.003698  0
C  C56  1  0.62851598  0.96661445  0.69851220  1  0.349293  0  0.084071  0.142498  0  4.017708  0
C  C57  1  0.29286165  0.53357493  0.80149834  1  0.400316  0  0.083827  0.144139  0  4.014806  0
C  C58  1  0.37148213  0.03338700  0.30148391  1  0.349797  0  0.084071  0.142475  0  4.017772  0
C  C59  1  0.70713780  0.46642553  0.19850420  1  0.400305  0  0.083842  0.144152  0  4.01475  0
C  C60  1  0.48742166  0.05368545  0.71286537  1  -0.003842  0  -0.09248  -0.142782  0  3.974617  0
C  C61  1  0.25316595  0.44664484  0.78701739  1  0.009506  0  -0.092794  -0.144074  0  3.972413  0
C  C62  1  0.51257546  0.94631410  0.28713387  1  -0.004447  0  -0.092531  -0.14287  0  3.974734  0
C  C63  1  0.74683354  0.55335751  0.21298439  1  0.009515  0  -0.092792  -0.144104  0  3.97239  0
C  C64  1  0.39227662  0.01339093  0.70690800  1  -0.00868  0  -0.101943  -0.090099  0  4.02187  0
C  C65  1  0.11171727  0.48700493  0.79304861  1  -0.046904  0  -0.100235  -0.086945  0  4.019947  0
C  C66  1  0.60772236  0.98660674  0.29309110  1  -0.008558  0  -0.101921  -0.089947  0  4.021849  0
C  C67  1  0.88828316  0.51299743  0.20695244  1  -0.047124  0  -0.100225  -0.086862  0  4.019821  0
C  C68  1  0.43543556  0.88867699  0.68950636  1  -0.041994  0  -0.101428  -0.085506  0  4.024142  0
C  C69  1  0.01274279  0.61169694  0.81055721  1  -0.098256  0  -0.102086  -0.086596  0  4.024525  0
C  C70  1  0.56456392  0.11132164  0.31049036  1  -0.04208  0  -0.101443  -0.085593  0  4.024201  0
C  C71  1  0.98725761  0.38830353  0.18944516  1  -0.098328  0  -0.102146  -0.086706  0  4.024345  0
C  C72  1  0.57578469  0.80097680  0.67489610  1  -0.053292  0  -0.103628  -0.172428  0  4.024918  0
C  C73  1  0.05081507  0.69930940  0.82521628  1  0.017921  0  -0.103779  -0.172142  0  4.02631  0
C  C74  1  0.42421716  0.19902277  0.32510009  1  -0.053274  0  -0.103646  -0.172524  0  4.02496  0
C  C75  1  0.94918250  0.30069106  0.17478770  1  0.018352  0  -0.103883  -0.172403  0  4.02626  0
C  C76  1  0.67196231  0.84304034  0.67768820  1  0.355572  0  0.088966  0.09604  0  3.991021  0
C  C77  1  0.19189305  0.65715242  0.82241689  1  0.283038  0  0.088635  0.094021  0  3.990545  0
C  C78  1  0.32803722  0.15696205  0.32230809  1  0.355213  0  0.088914  0.096063  0  3.990977  0
C  C79  1  0.80810547  0.34284804  0.17758582  1  0.283007  0  0.08868  0.094155  0  3.990585  0
C  C80  1  0.85521438  0.87327696  0.67629700  1  0.9913  0  0.151432  0.121773  0  3.911521  0
C  C81  1  0.40407022  0.62671865  0.82380091  1  0.980224  0  0.151761  0.123148  0  3.910937  0
C  C82  1  0.14478513  0.12672543  0.32370039  1  0.991384  0  0.151398  0.121798  0  3.911595  0
C  C83  1  0.59593110  0.37327993  0.17620150  1  0.981575  0  0.15184  0.123229  0  3.911044  0
C  C84  1  0.91620135  0.66531915  0.62935674  1  0.625124  0  0.059855  0.027842  0  3.873014  0
C  C85  1  0.21048265  0.83478174  0.87062690  1  0.627868  0  0.05948  0.027042  0  3.874804  0
C  C86  1  0.08380003  0.33468135  0.37064052  1  0.62525  0  0.059847  0.027937  0  3.873002  0
C  C87  1  0.78951635  0.16521967  0.12937507  1  0.627838  0  0.059499  0.027049  0  3.874884  0
C  C88  1  0.85781291  0.63859157  0.51079234  1  0.24395  0  0.090539  0.094951  0  3.982871  0
C  C89  1  0.00715250  0.86149977  0.98927862  1  0.273472  0  0.089616  0.093339  0  3.984418  0
C  C90  1  0.14219496  0.36140140  0.48920622  1  0.243606  0  0.090491  0.095002  0  3.982895  0
C  C91  1  0.99284508  0.13850070  0.01072261  1  0.27361  0  0.089616  0.093278  0  3.984624  0
C  C92  1  0.76049770  0.58868460  0.53757570  1  0.02118  0  -0.10007  -0.163768  0  4.013892  0
C  C93  1  0.88665435  0.91145021  0.96254590  1  -0.015615  0  -0.099546  -0.16278  0  4.012682  0
C  C94  1  0.23950595  0.41131118  0.46242496  1  0.021287  0  -0.100097  -0.163864  0  4.013891  0
C  C95  1  0.11334227  0.08854838  0.03745572  1  -0.015876  0  -0.099523  -0.162701  0  4.012695  0
C  C96  1  0.70400678  0.57514089  0.48316905  1  0.01089  0  -0.100806  -0.082553  0  4.015909  0
C  C97  1  0.76226855  0.92478313  0.01695007  1  -0.010048  0  -0.101079  -0.083  0  4.014522  0
C  C98  1  0.29599554  0.42485960  0.51682913  1  0.010867  0  -0.100852  -0.082627  0  4.015906  0
C  C99  1  0.23772853  0.07521452  0.98305157  1  -0.009532  0  -0.101054  -0.083017  0  4.014501  0
C  C100  1  0.74485841  0.60792726  0.40473586  1  -0.106748  0  -0.103754  -0.093053  0  4.018958  0
C  C101  1  0.75761191  0.89179704  0.09535592  1  -0.053518  0  -0.103895  -0.092882  0  4.01826  0
C  C102  1  0.25514530  0.39207230  0.59526218  1  -0.106627  0  -0.103683  -0.092947  0  4.018998  0
C  C103  1  0.24238751  0.10819967  0.90464595  1  -0.053959  0  -0.103942  -0.092904  0  4.018313  0
C  C104  1  0.84730485  0.65158872  0.37765989  1  0.006341  0  -0.09656  -0.152594  0  3.980899  0
C  C105  1  0.87671361  0.84812618  0.12238087  1  -0.015218  0  -0.096921  -0.15391  0  3.984029  0
C  C106  1  0.15269563  0.34841554  0.62233821  1  0.005722  0  -0.09655  -0.152599  0  3.980956  0
C  C107  1  0.12328629  0.15187147  0.87762026  1  -0.014967  0  -0.096922  -0.15399  0  3.983997  0
C  C108  1  0.90525496  0.66521482  0.43149181  1  0.366973  0  0.082776  0.140416  0  4.016075  0
C  C109  1  0.00206839  0.83465233  0.06853175  1  0.380104  0  0.082726  0.139908  0  4.020425  0
C  C110  1  0.09475480  0.33477816  0.56850531  1  0.367423  0  0.082735  0.14036  0  4.016132  0
C  C111  1  0.99793009  0.16534438  0.93146920  1  0.380093  0  0.0827  0.139905  0  4.020536  0
C  C112  1  0.02274454  0.70385313  0.49090486  1  0.998596  0  0.155868  0.131029  0  3.911431  0
C  C113  1  0.21762625  0.79604279  0.00899600  1  1.031086  0  0.154849  0.128013  0  3.912794  0
C  C114  1  0.97725588  0.29614737  0.50909421  1  0.998772  0  0.155746  0.130919  0  3.911487  0
C  C115  1  0.78237414  0.20395580  0.99100493  1  1.031067  0  0.154815  0.127969  0  3.912787  0
I  I116  1  0.01964882  0.04424382  0.72376839  1  -0.433268  0  -0.177081  -0.315705  0  1.947922  0
I  I117  1  0.78711940  0.45612566  0.77633328  1  -0.432135  0  -0.176994  -0.315406  0  1.948282  0
I  I118  1  0.98035017  0.95575386  0.27622962  1  -0.433369  0  -0.17709  -0.315721  0  1.947937  0
I  I119  1  0.21288101  0.54387482  0.22366690  1  -0.432128  0  -0.176998  -0.315428  0  1.948299  0
I  I120  1  0.63165979  0.31508328  0.62639303  1  -0.423383  0  -0.191857  -0.300796  0  1.836055  0
I  I121  1  0.57318531  0.18502793  0.87378151  1  -0.425525  0  -0.192031  -0.300826  0  1.836261  0
I  I122  1  0.36833879  0.68492097  0.37360706  1  -0.423382  0  -0.191849  -0.300795  0  1.836067  0
I  I123  1  0.42681696  0.81497067  0.12621909  1  -0.425534  0  -0.192024  -0.300816  0  1.836256  0
N  N124  1  0.74571077  0.98101981  0.69858745  1  -1.191632  0  -0.377135  -0.256902  0  3.603109  0
N  N125  1  0.42458085  0.51904330  0.80146652  1  -1.20184  0  -0.377447  -0.258826  0  3.605189  0
N  N126  1  0.25428778  0.01898068  0.30141142  1  -1.191679  0  -0.377113  -0.256871  0  3.603182  0
N  N127  1  0.57542047  0.48095528  0.19853589  1  -1.201519  0  -0.377504  -0.258869  0  3.605201  0
N  N128  1  0.81797474  0.78617158  0.66302260  1  -1.224037  0  -0.244188  -0.054467  0  3.718325  0
N  N129  1  0.26647228  0.71391677  0.83705140  1  -1.218621  0  -0.243905  -0.053482  0  3.715698  0
N  N130  1  0.18202479  0.21383081  0.33697369  1  -1.224189  0  -0.244122  -0.054491  0  3.718371  0
N  N131  1  0.73352858  0.28608276  0.16295044  1  -1.218744  0  -0.243947  -0.053508  0  3.715819  0
N  N132  1  0.93318330  0.66697669  0.54723360  1  -1.204429  0  -0.243126  -0.05253  0  3.717602  0
N  N133  1  0.14729884  0.83318704  0.95276203  1  -1.213444  0  -0.241672  -0.047975  0  3.718887  0
N  N134  1  0.06682131  0.33301910  0.45276579  1  -1.204362  0  -0.243094  -0.052618  0  3.717671  0
N  N135  1  0.85269921  0.16681249  0.04723923  1  -1.21347  0  -0.24167  -0.04794  0  3.718791  0
N  N136  1  0.01113895  0.70235561  0.42120933  1  -1.196328  0  -0.379895  -0.266673  0  3.605944  0
N  N137  1  0.13491368  0.79740290  0.07871946  1  -1.201255  0  -0.379253  -0.266231  0  3.606539  0
N  N138  1  0.98886425  0.29764111  0.57879076  1  -1.196326  0  -0.379761  -0.266567  0  3.605802  0
N  N139  1  0.86508483  0.20259570  0.92128127  1  -1.201115  0  -0.37922  -0.266154  0  3.606469  0
