# generated using pymatgen
data_ZnH17C24N2O5
_symmetry_space_group_name_H-M   'P 1'
_cell_length_a   10.12586743
_cell_length_b   13.67240897
_cell_length_c   20.45080475
_cell_angle_alpha   61.95589446
_cell_angle_beta   71.80282207
_cell_angle_gamma   82.13558548
_symmetry_Int_Tables_number   1
_chemical_formula_structural   ZnH17C24N2O5
_chemical_formula_sum   'Zn4 H68 C96 N8 O20'
_cell_volume   2373.73205833
_cell_formula_units_Z   4
loop_
 _symmetry_equiv_pos_site_id
 _symmetry_equiv_pos_as_xyz
  1  'x, y, z'
loop_
 _atom_site_type_symbol
 _atom_site_label
 _atom_site_symmetry_multiplicity
 _atom_site_fract_x
 _atom_site_fract_y
 _atom_site_fract_z
 _atom_site_occupancy
 _atom_site_pbe_bader_charge
 _atom_site_pbe_bader_spin_density
 _atom_site_pbe_cm5_charge
 _atom_site_pbe_ddec_charge
 _atom_site_pbe_ddec_spin_density
 _atom_site_pbe_ddec_sum_bond_order
 _atom_site_pbe_magmom
Zn  Zn0  1  0.61461335  0.16452366  0.32446591  1  1.324487  0  0.686952  0.814288  0  2.347844  0
Zn  Zn1  1  0.38540747  0.83548201  0.67554022  1  1.324529  0  0.686999  0.814347  0  2.347861  0
Zn  Zn2  1  0.37995378  0.18566412  0.18598201  1  1.321128  0  0.688086  0.82909  0  2.33562  0
Zn  Zn3  1  0.62005074  0.81433283  0.81402344  1  1.320937  0  0.688132  0.829066  0  2.335624  0
H  H4  1  0.07469490  0.13504314  0.32447682  1  0.127167  0  0.107392  0.126521  0  1.018352  0
H  H5  1  0.92534243  0.86495421  0.67552948  1  0.127089  0  0.107387  0.126605  0  1.01831  0
H  H6  1  0.78609312  0.14589013  0.52654667  1  0.083557  0  0.105  0.119952  0  1.017498  0
H  H7  1  0.21391905  0.85411348  0.47345223  1  0.083378  0  0.105  0.119888  0  1.017497  0
H  H8  1  0.22966981  0.14533103  0.49415930  1  0.088353  0  0.104049  0.116546  0  1.044923  0
H  H9  1  0.77033504  0.85467597  0.50585364  1  0.088733  0  0.104001  0.116532  0  1.045044  0
H  H10  1  0.15966968  0.21578308  0.57338483  1  0.032694  0  0.095744  0.060999  0  0.992634  0
H  H11  1  0.84033138  0.78418032  0.42664274  1  0.032335  0  0.095751  0.060969  0  0.992597  0
H  H12  1  0.13528923  0.06834026  0.62625260  1  0.077016  0  0.106587  0.086577  0  1.000127  0
H  H13  1  0.86467831  0.93162364  0.37377005  1  0.076801  0  0.106567  0.086576  0  1.00014  0
H  H14  1  0.98307143  0.98337199  0.76133979  1  0.104678  0  0.110255  0.12323  0  1.000295  0
H  H15  1  0.01691956  0.01659549  0.23868475  1  0.106863  0  0.110234  0.123102  0  1.000277  0
H  H16  1  0.90467332  0.99850652  0.88407393  1  0.07386  0  0.097856  0.098167  0  1.033953  0
H  H17  1  0.09531985  0.00146447  0.11594850  1  0.07442  0  0.09793  0.098299  0  1.03384  0
H  H18  1  0.98100580  0.35075795  0.75703281  1  0.045597  0  0.100588  0.100525  0  1.000091  0
H  H19  1  0.01896994  0.64921688  0.24298864  1  0.04594  0  0.100566  0.100516  0  1.000251  0
H  H20  1  0.06568912  0.33500956  0.63398980  1  0.047165  0  0.097918  0.097706  0  0.997259  0
H  H21  1  0.93428365  0.66496327  0.36603055  1  0.047176  0  0.098046  0.09787  0  0.997106  0
H  H22  1  0.81902324  0.25587272  0.89625824  1  0.040584  0  0.099029  0.068493  0  0.998525  0
H  H23  1  0.18095748  0.74409427  0.10376633  1  0.040289  0  0.099021  0.068379  0  0.998516  0
H  H24  1  0.83531508  0.10936987  0.95018420  1  0.046193  0  0.103809  0.075386  0  0.968815  0
H  H25  1  0.16467316  0.89059464  0.04983646  1  0.045743  0  0.103709  0.075201  0  0.968966  0
H  H26  1  0.75666364  0.20693262  0.01857773  1  0.09495  0  0.102856  0.116195  0  1.047171  0
H  H27  1  0.24333284  0.79302685  0.98144348  1  0.094915  0  0.10274  0.116157  0  1.047193  0
H  H28  1  0.93000135  0.22738980  0.17831737  1  0.156095  0  0.107748  0.128295  0  1.021628  0
H  H29  1  0.07000116  0.77260972  0.82168726  1  0.156305  0  0.107783  0.128376  0  1.021592  0
H  H30  1  0.20375144  0.22089928  0.97112149  1  0.092673  0  0.102719  0.117552  0  1.015443  0
H  H31  1  0.79624400  0.77909120  0.02888276  1  0.092799  0  0.10271  0.117571  0  1.015339  0
H  H32  1  0.45076607  0.28650211  0.41587380  1  0.138207  0  0.119081  0.095488  0  1.011252  0
H  H33  1  0.54921594  0.71354331  0.58409824  1  0.13755  0  0.119044  0.095369  0  1.011438  0
H  H34  1  0.45626265  0.46535758  0.42025253  1  0.039667  0  0.102173  0.106241  0  1.008921  0
H  H35  1  0.54367837  0.53471446  0.57968879  1  0.053733  0  0.10214  0.10622  0  1.009  0
H  H36  1  0.78950443  0.57171580  0.20649325  1  0.080476  0  0.110738  0.120284  0  0.993332  0
H  H37  1  0.21050533  0.42830876  0.79348134  1  0.080821  0  0.110663  0.120315  0  0.993415  0
H  H38  1  0.76774791  0.38640980  0.21245287  1  0.139973  0  0.125569  0.104175  0  0.981525  0
H  H39  1  0.23229295  0.61358951  0.78754755  1  0.140045  0  0.125603  0.104175  0  0.981492  0
H  H40  1  0.71405104  0.69822298  0.25709696  1  0.074098  0  0.105583  0.104125  0  1.013967  0
H  H41  1  0.28591674  0.30182734  0.74287243  1  0.073625  0  0.105593  0.103987  0  1.014098  0
H  H42  1  0.49486557  0.62235152  0.41603375  1  0.039426  0  0.100717  0.096934  0  1.003765  0
H  H43  1  0.50511134  0.37767090  0.58394089  1  0.039697  0  0.100706  0.096856  0  1.003883  0
H  H44  1  0.45089244  0.75546679  0.46884681  1  0.115803  0  0.105593  0.110751  0  1.019799  0
H  H45  1  0.54909897  0.24453976  0.53114139  1  0.115673  0  0.1056  0.110772  0  1.019714  0
H  H46  1  0.47724102  0.94375985  0.45086179  1  0.18737  0  0.123833  0.11709  0  1.018771  0
H  H47  1  0.52276713  0.05624093  0.54913634  1  0.187276  0  0.12383  0.117048  0  1.018739  0
H  H48  1  0.74186953  0.03890775  0.22894185  1  0.093407  0  0.117213  0.083407  0  1.030779  0
H  H49  1  0.25816292  0.96109285  0.77106090  1  0.093416  0  0.117218  0.08346  0  1.030593  0
H  H50  1  0.72127235  0.85801942  0.23531225  1  0.095691  0  0.109946  0.117608  0  1.001212  0
H  H51  1  0.27871794  0.14200217  0.76467508  1  0.095647  0  0.109969  0.117696  0  1.00105  0
H  H52  1  0.51607409  0.07383190  0.08273204  1  0.091484  0  0.117091  0.09386  0  0.997445  0
H  H53  1  0.48390219  0.92617143  0.91726591  1  0.0912  0  0.1171  0.09378  0  0.997491  0
H  H54  1  0.51969343  0.89034994  0.08360019  1  0.074611  0  0.107265  0.115376  0  1.003958  0
H  H55  1  0.48026895  0.10965437  0.91639153  1  0.074969  0  0.107377  0.115477  0  1.00389  0
H  H56  1  0.26513400  0.76312986  0.32140201  1  0.115818  0  0.105848  0.111306  0  1.003355  0
H  H57  1  0.73485487  0.23686418  0.67859391  1  0.115819  0  0.105851  0.111311  0  1.003317  0
H  H58  1  0.27278826  0.95237364  0.30932676  1  0.140354  0  0.12054  0.099508  0  1.00769  0
H  H59  1  0.72720397  0.04761015  0.69067998  1  0.140527  0  0.120522  0.099554  0  1.007645  0
H  H60  1  0.31911979  0.63984929  0.26604448  1  0.056579  0  0.100411  0.094102  0  1.013767  0
H  H61  1  0.68087029  0.36014685  0.73394880  1  0.056496  0  0.100392  0.094092  0  1.013736  0
H  H62  1  0.49661087  0.72727652  0.09569078  1  0.109593  0  0.108697  0.115589  0  1.001327  0
H  H63  1  0.50340734  0.27272734  0.90430970  1  0.10982  0  0.108695  0.115547  0  1.001283  0
H  H64  1  0.24532696  0.49999465  0.26857373  1  0.03025  0  0.10545  0.109312  0  1.008404  0
H  H65  1  0.75466285  0.50002688  0.73140676  1  0.029959  0  0.10538  0.109219  0  1.008338  0
H  H66  1  0.22226951  0.32037382  0.27135224  1  0.110504  0  0.117288  0.086242  0  1.021123  0
H  H67  1  0.77772627  0.67963413  0.72863258  1  0.110255  0  0.117273  0.08632  0  1.02102  0
H  H68  1  0.53071700  0.40286105  0.06492042  1  0.105119  0  0.119586  0.090412  0  0.99674  0
H  H69  1  0.46933274  0.59712892  0.93508590  1  0.104984  0  0.119619  0.090529  0  0.996489  0
H  H70  1  0.56293911  0.59235676  0.04956914  1  0.147382  0  0.109821  0.134816  0  1.019773  0
H  H71  1  0.43711888  0.40763063  0.95043714  1  0.147348  0  0.109776  0.134751  0  1.01979  0
C  C72  1  0.16539457  0.14030914  0.40569556  1  0.001946  0  -0.026068  -0.027657  0  4.025977  0
C  C73  1  0.83462602  0.85969269  0.59431396  1  0.001825  0  -0.025972  -0.027509  0  4.026129  0
C  C74  1  0.05543330  0.13862074  0.37877810  1  -0.055428  0  -0.089937  -0.137154  0  3.936806  0
C  C75  1  0.94459382  0.86138352  0.62122651  1  -0.055944  0  -0.089772  -0.136973  0  3.936937  0
C  C76  1  0.91861036  0.14116438  0.42255535  1  -0.016382  0  -0.019295  -0.00553  0  3.997569  0
C  C77  1  0.08141321  0.85884639  0.57744131  1  -0.015319  0  -0.019445  -0.005984  0  3.998079  0
C  C78  1  0.89279051  0.14647781  0.49196613  1  0.01732  0  -0.092223  -0.197183  0  3.93251  0
C  C79  1  0.10722266  0.85353132  0.50803233  1  0.017494  0  -0.092114  -0.19688  0  3.932388  0
C  C80  1  0.00373957  0.15013145  0.51795639  1  0.430578  0  0.074765  0.246722  0  4.086904  0
C  C81  1  0.99626702  0.84987266  0.48204810  1  0.421784  0  0.07478  0.246887  0  4.0866  0
C  C82  1  0.14034943  0.14640141  0.47512071  1  -0.057495  0  -0.105913  -0.232827  0  3.975094  0
C  C83  1  0.85966195  0.85360239  0.52488813  1  -0.0489  0  -0.106033  -0.233222  0  3.975328  0
C  C84  1  0.31256503  0.13676938  0.36036806  1  1.577681  0  0.216586  0.586159  0  4.194894  0
C  C85  1  0.68745769  0.86323819  0.63963983  1  1.577317  0  0.216282  0.585814  0  4.19463  0
C  C86  1  0.79914788  0.13778018  0.39511965  1  1.542201  0  0.187894  0.545611  0  4.238149  0
C  C87  1  0.20088449  0.86223113  0.60486975  1  1.54194  0  0.18799  0.545793  0  4.238001  0
C  C88  1  0.08389756  0.14850934  0.61622036  1  0.400666  0  -0.065711  -0.020478  0  3.911997  0
C  C89  1  0.91608849  0.85146128  0.38380115  1  0.401082  0  -0.065683  -0.020579  0  3.91196  0
C  C90  1  0.02964361  0.15831044  0.68984320  1  -0.004311  0  -0.014774  0.074344  0  4.0013  0
C  C91  1  0.97033621  0.84166100  0.31017898  1  -0.030913  0  -0.014768  0.074256  0  4.001526  0
C  C92  1  0.98319106  0.06392701  0.76033482  1  -0.054049  0  -0.080613  -0.111974  0  3.941753  0
C  C93  1  0.01679490  0.93604256  0.23968794  1  -0.030596  0  -0.080641  -0.111682  0  3.941759  0
C  C94  1  0.93872633  0.07261827  0.82914948  1  -0.001706  0  -0.086742  -0.118324  0  3.956148  0
C  C95  1  0.06125969  0.92735306  0.17087237  1  -0.000299  0  -0.086685  -0.118481  0  3.956263  0
C  C96  1  0.93793129  0.17556830  0.82835097  1  -0.032016  0  -0.018841  0.072884  0  4.006161  0
C  C97  1  0.06204976  0.82440523  0.17166858  1  -0.032377  0  -0.018933  0.07293  0  4.006973  0
C  C98  1  0.98200315  0.27034761  0.75762886  1  -0.031465  0  -0.094229  -0.136503  0  4.01192  0
C  C99  1  0.01797371  0.72962745  0.24239140  1  -0.031751  0  -0.09431  -0.136823  0  4.012797  0
C  C100  1  0.02838270  0.26149430  0.68895419  1  -0.066327  0  -0.094359  -0.137869  0  4.015841  0
C  C101  1  0.97159411  0.73847901  0.31106698  1  -0.067079  0  -0.094377  -0.137726  0  4.015646  0
C  C102  1  0.89034933  0.18548689  0.90194231  1  0.409801  0  -0.062958  -0.012196  0  3.923616  0
C  C103  1  0.10963267  0.81448160  0.09807877  1  0.410115  0  -0.062794  -0.011823  0  3.923572  0
C  C104  1  0.98346724  0.21269539  0.98582454  1  0.451472  0  0.072644  0.249742  0  4.094  0
C  C105  1  0.01652745  0.78727614  0.01419163  1  0.452389  0  0.072222  0.249222  0  4.094579  0
C  C106  1  0.84939362  0.21304632  0.03247367  1  -0.03912  0  -0.109379  -0.238963  0  3.984528  0
C  C107  1  0.15060301  0.78692240  0.96754437  1  -0.039239  0  -0.109039  -0.238512  0  3.984517  0
C  C108  1  0.83036302  0.22129030  0.10060065  1  -0.047732  0  -0.025663  -0.021726  0  4.013546  0
C  C109  1  0.16963693  0.77868862  0.89941308  1  -0.047429  0  -0.025752  -0.021968  0  4.013769  0
C  C110  1  0.94469774  0.22587698  0.12365201  1  -0.029476  0  -0.08764  -0.138499  0  3.920613  0
C  C111  1  0.05530362  0.77411340  0.87635540  1  -0.029105  0  -0.087665  -0.138591  0  3.92059  0
C  C112  1  0.07950622  0.22545366  0.07645745  1  -0.049445  0  -0.017836  -0.004311  0  3.974999  0
C  C113  1  0.92049525  0.77454106  0.92354795  1  -0.04884  0  -0.017837  -0.004155  0  3.975034  0
C  C114  1  0.09855313  0.22074535  0.00728375  1  -0.0517  0  -0.096896  -0.212362  0  3.95413  0
C  C115  1  0.90144511  0.77924023  0.99272471  1  -0.053521  0  -0.096796  -0.212338  0  3.954062  0
C  C116  1  0.20588183  0.22397145  0.10102997  1  1.570839  0  0.190723  0.557878  0  4.231544  0
C  C117  1  0.79412098  0.77604096  0.89896914  1  1.571032  0  0.190507  0.55753  0  4.232078  0
C  C118  1  0.68355437  0.22129829  0.14865659  1  1.566909  0  0.211847  0.576096  0  4.208162  0
C  C119  1  0.31644672  0.77868813  0.85135475  1  1.566559  0  0.21194  0.57646  0  4.207428  0
C  C120  1  0.52428576  0.35253416  0.37122367  1  0.448152  0  0.046583  0.093322  0  3.960535  0
C  C121  1  0.47569847  0.64750926  0.62874656  1  0.448146  0  0.04655  0.093334  0  3.960587  0
C  C122  1  0.52874046  0.45214982  0.37299839  1  0.023617  0  -0.091418  -0.192421  0  3.957663  0
C  C123  1  0.47121931  0.54790824  0.62695449  1  0.00958  0  -0.091314  -0.192238  0  3.957477  0
C  C124  1  0.62582008  0.53464031  0.31355365  1  -0.069272  0  0.002275  0.142071  0  4.048539  0
C  C125  1  0.37415280  0.46540945  0.68640331  1  -0.070065  0  0.002395  0.142122  0  4.048158  0
C  C126  1  0.71330208  0.51044827  0.25448428  1  -0.006287  0  -0.080909  -0.17769  0  3.921538  0
C  C127  1  0.28669561  0.48958459  0.74548608  1  -0.005851  0  -0.080978  -0.177985  0  3.921935  0
C  C128  1  0.70202313  0.40834954  0.25709195  1  0.490619  0  0.056661  0.109115  0  3.924907  0
C  C129  1  0.29799705  0.59166820  0.74289466  1  0.489805  0  0.056583  0.10916  0  3.924963  0
C  C130  1  0.63872808  0.64212045  0.30944171  1  -0.061977  0  -0.080452  -0.118528  0  3.968264  0
C  C131  1  0.36123812  0.35792243  0.69052271  1  -0.06068  0  -0.080342  -0.118161  0  3.967468  0
C  C132  1  0.56884889  0.67760725  0.36238710  1  -0.003714  0  -0.083096  -0.123427  0  3.970769  0
C  C133  1  0.43112490  0.32241997  0.63758734  1  -0.004555  0  -0.083108  -0.123416  0  3.970779  0
C  C134  1  0.58403901  0.78795468  0.35352433  1  -0.057623  0  0.002777  0.134813  0  4.046369  0
C  C135  1  0.41594729  0.21206255  0.64646209  1  -0.057809  0  0.002653  0.134669  0  4.046154  0
C  C136  1  0.51650129  0.81554903  0.41406045  1  -0.062136  0  -0.084044  -0.181138  0  3.91961  0
C  C137  1  0.48349293  0.18445990  0.58593077  1  -0.062323  0  -0.08401  -0.181115  0  3.91956  0
C  C138  1  0.53132584  0.92149457  0.40461094  1  0.48904  0  0.052389  0.101711  0  3.901318  0
C  C139  1  0.46867934  0.07850983  0.59538527  1  0.489126  0  0.052466  0.101793  0  3.901184  0
C  C140  1  0.67610172  0.97453949  0.28070677  1  0.534815  0  0.05115  0.104423  0  3.947392  0
C  C141  1  0.32391049  0.02546822  0.71929116  1  0.535099  0  0.051187  0.104396  0  3.947082  0
C  C142  1  0.66528311  0.87172649  0.28515518  1  -0.035747  0  -0.079549  -0.165528  0  3.930176  0
C  C143  1  0.33471213  0.12828879  0.71483541  1  -0.035531  0  -0.079629  -0.165627  0  3.929824  0
C  C144  1  0.46268580  0.00177124  0.13425743  1  0.520124  0  0.044798  0.09134  0  3.966901  0
C  C145  1  0.53729558  0.99822939  0.86574143  1  0.521106  0  0.044729  0.091428  0  3.96674  0
C  C146  1  0.46395233  0.89937553  0.13547736  1  -0.101356  0  -0.08828  -0.187071  0  3.942771  0
C  C147  1  0.53602324  0.10062870  0.86451652  1  -0.101926  0  -0.088371  -0.18714  0  3.942695  0
C  C148  1  0.39173428  0.80912806  0.20339078  1  0.057087  0  0.003241  0.140763  0  4.03614  0
C  C149  1  0.60825248  0.19087232  0.79660493  1  0.057332  0  0.003162  0.140689  0  4.036118  0
C  C150  1  0.32401385  0.82891174  0.26728359  1  -0.127581  0  -0.082015  -0.174012  0  3.943955  0
C  C151  1  0.67597280  0.17108431  0.73271414  1  -0.128009  0  -0.082088  -0.174092  0  3.94371  0
C  C152  1  0.32700707  0.93428583  0.26113543  1  0.493667  0  0.052395  0.104396  0  3.927789  0
C  C153  1  0.67298643  0.06570744  0.73886695  1  0.493639  0  0.052468  0.104407  0  3.927409  0
C  C154  1  0.37978249  0.70017922  0.20938368  1  -0.128972  0  -0.080747  -0.117591  0  3.983361  0
C  C155  1  0.62021046  0.29982023  0.79061190  1  -0.129032  0  -0.080706  -0.117604  0  3.9833  0
C  C156  1  0.43216990  0.66965526  0.15227961  1  0.051975  0  -0.08001  -0.126672  0  3.947424  0
C  C157  1  0.56783339  0.33034807  0.84771464  1  0.051835  0  -0.079922  -0.126504  0  3.947232  0
C  C158  1  0.41025005  0.56161943  0.15929054  1  -0.010101  0  0.006322  0.147521  0  4.031004  0
C  C159  1  0.58976457  0.43838203  0.84070358  1  -0.009319  0  0.006264  0.147349  0  4.030889  0
C  C160  1  0.31219831  0.48295654  0.22184103  1  0.008946  0  -0.085364  -0.181002  0  3.942193  0
C  C161  1  0.68780632  0.51705004  0.77814882  1  0.009172  0  -0.085271  -0.180826  0  3.941889  0
C  C162  1  0.29884573  0.38182146  0.22406389  1  0.491761  0  0.048903  0.103654  0  3.944368  0
C  C163  1  0.70116379  0.61818187  0.77592951  1  0.491675  0  0.048862  0.103515  0  3.944254  0
C  C164  1  0.46965459  0.42897231  0.10822727  1  0.53415  0  0.05145  0.106973  0  3.940658  0
C  C165  1  0.53038918  0.57102080  0.89177617  1  0.534677  0  0.051485  0.106909  0  3.940364  0
C  C166  1  0.48797633  0.53320925  0.10041972  1  -0.140948  0  -0.078743  -0.175593  0  3.888219  0
C  C167  1  0.51206748  0.46678398  0.89958320  1  -0.141203  0  -0.0787  -0.175437  0  3.887937  0
N  N168  1  0.60927977  0.33050353  0.31440928  1  -1.235866  0  -0.31207  -0.209567  0  3.489123  0
N  N169  1  0.39073721  0.66951716  0.68557856  1  -1.234928  0  -0.312019  -0.209548  0  3.489037  0
N  N170  1  0.61017953  0.00022307  0.33869615  1  -1.260055  0  -0.317507  -0.225637  0  3.528255  0
N  N171  1  0.38983256  0.99978114  0.66130361  1  -1.259891  0  -0.31755  -0.225612  0  3.52813  0
N  N172  1  0.39481820  0.01979443  0.19575889  1  -1.213899  0  -0.315489  -0.219332  0  3.495102  0
N  N173  1  0.60517826  0.98019921  0.80424497  1  -1.214383  0  -0.315471  -0.219347  0  3.494983  0
N  N174  1  0.37805743  0.35353893  0.16920483  1  -1.224184  0  -0.315086  -0.225065  0  3.511578  0
N  N175  1  0.62196623  0.64646245  0.83079203  1  -1.224545  0  -0.315074  -0.225047  0  3.511551  0
O  O176  1  0.40737192  0.15454288  0.38252970  1  -1.175267  0  -0.308567  -0.538002  0  2.375558  0
O  O177  1  0.59264976  0.84546551  0.61747815  1  -1.174997  0  -0.308355  -0.537874  0  2.375269  0
O  O178  1  0.33433850  0.11589713  0.30352741  1  -1.212691  0  -0.326556  -0.576189  0  2.423767  0
O  O179  1  0.66568338  0.88411664  0.69647718  1  -1.212544  0  -0.326465  -0.575912  0  2.423648  0
O  O180  1  0.67606935  0.12530490  0.43930582  1  -1.180916  0  -0.324092  -0.556549  0  2.185086  0
O  O181  1  0.32395905  0.87470534  0.56068190  1  -1.181031  0  -0.324104  -0.556598  0  2.185074  0
O  O182  1  0.82574905  0.15026097  0.32590582  1  -1.163982  0  -0.329586  -0.557535  0  2.237558  0
O  O183  1  0.17429045  0.84974754  0.67408474  1  -1.164224  0  -0.32975  -0.557659  0  2.237408  0
O  O184  1  0.96898930  0.15643105  0.58638933  1  -1.060602  0  -0.186101  -0.208371  0  2.508822  0
O  O185  1  0.03100787  0.84356485  0.41361836  1  -1.060048  0  -0.186173  -0.208354  0  2.508679  0
O  O186  1  0.01071061  0.20357782  0.91871775  1  -1.056897  0  -0.194271  -0.221606  0  2.50105  0
O  O187  1  0.98927463  0.79638702  0.08130176  1  -1.056382  0  -0.194073  -0.221455  0  2.501317  0
O  O188  1  0.32504110  0.24357967  0.05284000  1  -1.194013  0  -0.342917  -0.588091  0  2.122108  0
O  O189  1  0.67495575  0.75645677  0.94715334  1  -1.194346  0  -0.342747  -0.587939  0  2.12238  0
O  O190  1  0.18398099  0.19833082  0.17280218  1  -1.156267  0  -0.327932  -0.551316  0  2.27279  0
O  O191  1  0.81603210  0.80166846  0.82719859  1  -1.156436  0  -0.327886  -0.551161  0  2.272811  0
O  O192  1  0.66361387  0.24169479  0.20536760  1  -1.204588  0  -0.323356  -0.569872  0  2.418345  0
O  O193  1  0.33638547  0.75830380  0.79463817  1  -1.204674  0  -0.323554  -0.570186  0  2.417885  0
O  O194  1  0.58796581  0.20115030  0.12785259  1  -1.173776  0  -0.31523  -0.554367  0  2.378075  0
O  O195  1  0.41203416  0.79883108  0.87216056  1  -1.173804  0  -0.315152  -0.554475  0  2.378067  0
