# generated using pymatgen
data_AgH12C18(NO2)3
_symmetry_space_group_name_H-M   'P 1'
_cell_length_a   8.58990506
_cell_length_b   9.69214751
_cell_length_c   10.28929857
_cell_angle_alpha   82.93024488
_cell_angle_beta   78.11001013
_cell_angle_gamma   76.74299500
_symmetry_Int_Tables_number   1
_chemical_formula_structural   AgH12C18(NO2)3
_chemical_formula_sum   'Ag2 H24 C36 N6 O12'
_cell_volume   813.32434272
_cell_formula_units_Z   2
loop_
 _symmetry_equiv_pos_site_id
 _symmetry_equiv_pos_as_xyz
  1  'x, y, z'
loop_
 _atom_site_type_symbol
 _atom_site_label
 _atom_site_symmetry_multiplicity
 _atom_site_fract_x
 _atom_site_fract_y
 _atom_site_fract_z
 _atom_site_occupancy
 _atom_site_pbe_bader_spin_density
 _atom_site_pbe_cm5_charge
 _atom_site_pbe_ddec_charge
 _atom_site_pbe_ddec_spin_density
 _atom_site_pbe_ddec_sum_bond_order
 _atom_site_pbe_magmom
Ag  Ag0  1  0.85133391  0.89218509  0.55498365  1  0  0.468815  0.32057  0  1.89059  0
Ag  Ag1  1  0.14866664  0.10781483  0.44501475  1  0  0.468823  0.320589  0  1.890602  0
H  H2  1  0.79021421  0.62292598  0.98420281  1  0  0.292475  0.352294  0  0.997941  0
H  H3  1  0.20978635  0.37707395  0.01579656  1  0  0.292476  0.352299  0  0.997951  0
H  H4  1  0.95115912  0.29597426  0.86649126  1  0  0.116982  0.127994  0  1.031624  0
H  H5  1  0.04884290  0.70402460  0.13350895  1  0  0.117013  0.128042  0  1.031614  0
H  H6  1  0.39355521  0.28844299  0.76892623  1  0  0.111468  0.128727  0  1.035171  0
H  H7  1  0.60644656  0.71155694  0.23107584  1  0  0.111498  0.12875  0  1.035198  0
H  H8  1  0.34299072  0.51723793  0.34312040  1  0  0.115792  0.134604  0  0.996398  0
H  H9  1  0.65700986  0.48276200  0.65688092  1  0  0.11579  0.134589  0  0.996408  0
H  H10  1  0.46039065  0.30841739  0.33792685  1  0  0.111918  0.120496  0  1.026222  0
H  H11  1  0.53960305  0.69158145  0.66207581  1  0  0.111893  0.120482  0  1.026265  0
H  H12  1  0.55109139  0.01004171  0.09771526  1  0  0.104274  0.105675  0  1.043274  0
H  H13  1  0.44890678  0.98995821  0.90228259  1  0  0.104273  0.105658  0  1.043288  0
H  H14  1  0.16361384  0.42148676  0.76303365  1  0  0.118012  0.134268  0  1.000117  0
H  H15  1  0.83638290  0.57851422  0.23696724  1  0  0.118052  0.134354  0  1.000096  0
H  H16  1  0.50107014  0.26447019  0.13309716  1  0  0.110402  0.113555  0  1.019954  0
H  H17  1  0.49893016  0.73553080  0.86690214  1  0  0.110396  0.113549  0  1.019958  0
H  H18  1  0.61830378  0.07453611  0.75484795  1  0  0.109205  0.079218  0  1.066269  0
H  H19  1  0.38169823  0.92546275  0.24515129  1  0  0.109203  0.079205  0  1.066288  0
H  H20  1  0.68440937  0.09765020  0.34387953  1  0  0.111581  0.08265  0  1.055816  0
H  H21  1  0.31558551  0.90234865  0.65612097  1  0  0.111612  0.082654  0  1.055816  0
H  H22  1  0.12414818  0.73184722  0.35214899  1  0  0.108534  0.07274  0  1.058104  0
H  H23  1  0.87585333  0.26815378  0.64785203  1  0  0.108549  0.072766  0  1.058071  0
H  H24  1  0.95523177  0.64577862  0.75436885  1  0  0.12138  0.106053  0  1.019186  0
H  H25  1  0.04476802  0.35422450  0.24563126  1  0  0.121386  0.106041  0  1.019174  0
C  C26  1  0.85909184  0.23630922  0.91349050  1  0  -0.067289  -0.11962  0  3.93098  0
C  C27  1  0.14090924  0.76368858  0.08650903  1  0  -0.067281  -0.119653  0  3.931108  0
C  C28  1  0.77147010  0.00840844  0.95434550  1  0  -0.00047  -0.050051  0  3.925805  0
C  C29  1  0.22852926  0.99159149  0.04565311  1  0  -0.000436  -0.050007  0  3.925683  0
C  C30  1  0.69782001  0.44895385  0.03496865  1  0  0.226778  0.584876  0  4.143865  0
C  C31  1  0.30218319  0.55104502  0.96503038  1  0  0.226785  0.584874  0  4.143861  0
C  C32  1  0.77587347  0.85845309  0.92398010  1  0  0.205953  0.575614  0  4.267435  0
C  C33  1  0.22412589  0.14154684  0.07601754  1  0  0.205949  0.575556  0  4.267523  0
C  C34  1  0.72227487  0.29854120  0.00199948  1  0  -0.009078  -0.022292  0  3.946864  0
C  C35  1  0.27772714  0.70145766  0.99799976  1  0  -0.009049  -0.022235  0  3.946863  0
C  C36  1  0.45092059  0.24938843  0.67199946  1  0  -0.070615  -0.137738  0  3.880672  0
C  C37  1  0.54908024  0.75061043  0.32800193  1  0  -0.070636  -0.137743  0  3.880673  0
C  C38  1  0.40433157  0.31854624  0.55350149  1  0  0.014458  0.098791  0  3.960533  0
C  C39  1  0.59566451  0.68145261  0.44650074  1  0  0.014432  0.0987  0  3.960546  0
C  C40  1  0.25988758  0.53880713  0.43724642  1  0  -0.077586  -0.161977  0  3.909222  0
C  C41  1  0.74011325  0.46119173  0.56275401  1  0  -0.077572  -0.161914  0  3.909331  0
C  C42  1  0.88120031  0.09367659  0.88987778  1  0  0.073232  0.020075  0  3.9502  0
C  C43  1  0.11880051  0.90632227  0.11012167  1  0  0.073197  0.020081  0  3.950254  0
C  C44  1  0.48940375  0.26109739  0.43382373  1  0  -0.077382  -0.165386  0  3.926715  0
C  C45  1  0.51059259  0.73890040  0.56617858  1  0  -0.077334  -0.165296  0  3.926694  0
C  C46  1  0.63716651  0.07326829  0.04471943  1  0  -0.086036  -0.105593  0  3.950595  0
C  C47  1  0.36283285  0.92673163  0.95527821  1  0  -0.086047  -0.105577  0  3.950492  0
C  C48  1  0.27439341  0.44830156  0.55374486  1  0  0.016491  0.107976  0  3.948542  0
C  C49  1  0.72560505  0.55169730  0.44625696  1  0  0.01649  0.107975  0  3.948649  0
C  C50  1  0.16168683  0.48765309  0.66965529  1  0  -0.070442  -0.143735  0  3.878821  0
C  C51  1  0.83831109  0.51234789  0.33034443  1  0  -0.070464  -0.143835  0  3.87877  0
C  C52  1  0.61052420  0.21614441  0.06647303  1  0  -0.061018  -0.039954  0  3.896291  0
C  C53  1  0.38947518  0.78385552  0.93352655  1  0  -0.061026  -0.03997  0  3.896288  0
C  C54  1  0.57794246  0.13112315  0.66560897  1  0  0.037442  0.077933  0  3.92297  0
C  C55  1  0.42205878  0.86887891  0.33439198  1  0  0.037435  0.077948  0  3.922921  0
C  C56  1  0.61538437  0.14236676  0.43559269  1  0  0.040808  0.09124  0  3.924968  0
C  C57  1  0.38461170  0.85763209  0.56440857  1  0  0.040777  0.091223  0  3.924971  0
C  C58  1  0.13868907  0.66123365  0.44140380  1  0  0.038516  0.083035  0  3.957243  0
C  C59  1  0.86131125  0.33876734  0.55859744  1  0  0.038512  0.083017  0  3.95715  0
C  C60  1  0.04435538  0.61276235  0.66617875  1  0  0.04812  0.096521  0  3.888083  0
C  C61  1  0.95564374  0.38723864  0.33382172  1  0  0.048097  0.096534  0  3.88797  0
N  N62  1  0.03262546  0.69951656  0.55374297  1  0  -0.348881  -0.185828  0  3.614384  0
N  N63  1  0.96737603  0.30048443  0.44625708  1  0  -0.348893  -0.185848  0  3.614268  0
N  N64  1  0.02644940  0.03216161  0.79789750  1  0  0.045375  0.499944  0  4.196891  0
N  N65  1  0.97355116  0.96783832  0.20210187  1  0  0.045385  0.49992  0  4.196882  0
N  N66  1  0.66051572  0.07779657  0.54981757  1  0  -0.349702  -0.186738  0  3.623653  0
N  N67  1  0.33948247  0.92220335  0.45018320  1  0  -0.34973  -0.186782  0  3.623704  0
O  O68  1  0.74245439  0.84410212  0.81341569  1  0  -0.32851  -0.560038  0  2.240762  0
O  O69  1  0.25754405  0.15589674  0.18658321  1  0  -0.328515  -0.560015  0  2.240812  0
O  O70  1  0.59319695  0.49820339  0.12904389  1  0  -0.305642  -0.527767  0  2.128139  0
O  O71  1  0.40680598  0.50179655  0.87095409  1  0  -0.305673  -0.527795  0  2.128114  0
O  O72  1  0.79798290  0.76191036  0.01828070  1  0  -0.31154  -0.527947  0  2.218576  0
O  O73  1  0.20201672  0.23808850  0.98171799  1  0  -0.311554  -0.527951  0  2.218585  0
O  O74  1  0.06383915  0.90056752  0.79550062  1  0  -0.112796  -0.329379  0  2.049031  0
O  O75  1  0.93616048  0.09943134  0.20449904  1  0  -0.112787  -0.329366  0  2.049015  0
O  O76  1  0.80105770  0.51883415  0.95583701  1  0  -0.333609  -0.492992  0  2.322471  0
O  O77  1  0.19894669  0.48116473  0.04416278  1  0  -0.333594  -0.492981  0  2.322491  0
O  O78  1  0.10665255  0.11406030  0.72433634  1  0  -0.137418  -0.357824  0  2.067422  0
O  O79  1  0.89334683  0.88593962  0.27566421  1  0  -0.137429  -0.357828  0  2.067431  0
