# generated using pymatgen
data_Zr3H25C44O21F
_symmetry_space_group_name_H-M   'P 1'
_cell_length_a   19.16199760
_cell_length_b   19.13445225
_cell_length_c   19.14128420
_cell_angle_alpha   59.55792549
_cell_angle_beta   59.93865753
_cell_angle_gamma   59.97665590
_symmetry_Int_Tables_number   1
_chemical_formula_structural   Zr3H25C44O21F
_chemical_formula_sum   'Zr6 H50 C88 O42 F2'
_cell_volume   4942.70146190
_cell_formula_units_Z   2
loop_
 _symmetry_equiv_pos_site_id
 _symmetry_equiv_pos_as_xyz
  1  'x, y, z'
loop_
 _atom_site_type_symbol
 _atom_site_label
 _atom_site_symmetry_multiplicity
 _atom_site_fract_x
 _atom_site_fract_y
 _atom_site_fract_z
 _atom_site_occupancy
 _atom_site_pbe_bader_charge
 _atom_site_pbe_bader_spin_density
 _atom_site_pbe_cm5_charge
 _atom_site_pbe_ddec_charge
 _atom_site_pbe_ddec_spin_density
 _atom_site_pbe_ddec_sum_bond_order
 _atom_site_pbe_magmom
Zr  Zr0  1  0.90765092  0.40778277  0.59227129  1  2.627376  0  1.628993  2.367594  0  2.765304  0
Zr  Zr1  1  0.09227091  0.59175830  0.40834112  1  2.626835  0  1.629186  2.367329  0  2.76604  0
Zr  Zr2  1  0.09201272  0.40577162  0.59414343  1  2.640446  0  1.63329  2.373514  0  2.750863  0
Zr  Zr3  1  0.90804923  0.59358433  0.40630586  1  2.637071  0  1.633321  2.373235  0  2.752586  0
Zr  Zr4  1  0.90826770  0.59151945  0.59193704  1  2.631603  0  1.633579  2.367985  0  2.774323  0
Zr  Zr5  1  0.09174370  0.40803511  0.40845809  1  2.631023  0  1.633637  2.368929  0  2.773436  0
H  H6  1  0.92663996  0.42618299  0.71918330  1  0.602892  0  0.333163  0.426039  0  0.851148  0
H  H7  1  0.92796269  0.71868255  0.42669284  1  0.616537  0  0.333493  0.426717  0  0.851495  0
H  H8  1  0.21777876  0.42678441  0.42828268  1  0.617959  0  0.333308  0.426793  0  0.852331  0
H  H9  1  0.92718581  0.42774132  0.42722869  1  0.613113  0  0.333217  0.426286  0  0.851546  0
H  H10  1  0.45074884  0.61301346  0.04969031  1  0.07831  0  0.110424  0.128337  0  1.00326  0
H  H11  1  0.54950199  0.38642332  0.95113188  1  0.106415  0  0.110392  0.128516  0  1.003186  0
H  H12  1  0.67796970  0.61277100  0.81971367  1  0.102063  0  0.109676  0.115353  0  0.988923  0
H  H13  1  0.55115143  0.61335936  0.94911726  1  0.041356  0  0.103104  0.105991  0  1.018507  0
H  H14  1  0.31967562  0.38935869  0.17823494  1  0.124691  0  0.109322  0.114663  0  0.990171  0
H  H15  1  0.44905279  0.38622333  0.05147219  1  0.037043  0  0.10301  0.106421  0  1.017821  0
H  H16  1  0.11286713  0.95093413  0.38646273  1  0.079038  0  0.110327  0.128551  0  1.003114  0
H  H17  1  0.88647182  0.04944784  0.61304725  1  0.069833  0  0.110337  0.1283  0  1.003373  0
H  H18  1  0.11266760  0.17803744  0.38956127  1  0.091728  0  0.109515  0.115031  0  0.990004  0
H  H19  1  0.11317146  0.05137814  0.38621037  1  0.070957  0  0.102988  0.106238  0  1.017957  0
H  H20  1  0.88945626  0.81957142  0.61294801  1  0.080458  0  0.109354  0.114891  0  0.989694  0
H  H21  1  0.88626366  0.94904754  0.61338590  1  0.067495  0  0.103035  0.106287  0  1.018102  0
H  H22  1  0.44980274  0.05072546  0.38664068  1  0.062082  0  0.110303  0.128049  0  1.002858  0
H  H23  1  0.55092863  0.94964075  0.61279276  1  0.048178  0  0.110316  0.127814  0  1.002824  0
H  H24  1  0.67685194  0.82049359  0.38971559  1  0.085285  0  0.109174  0.114362  0  0.989005  0
H  H25  1  0.55004969  0.95003469  0.38637578  1  0.035324  0  0.102781  0.105974  0  1.019031  0
H  H26  1  0.32105465  0.17688132  0.61269309  1  0.088476  0  0.109442  0.114533  0  0.988509  0
H  H27  1  0.45072068  0.05021245  0.61309365  1  0.051629  0  0.102876  0.106403  0  1.018574  0
H  H28  1  0.88671038  0.61282420  0.94973709  1  0.090755  0  0.11058  0.128264  0  1.002931  0
H  H29  1  0.11295169  0.38668614  0.05075241  1  0.088678  0  0.110157  0.127959  0  1.00285  0
H  H30  1  0.88941024  0.61252410  0.17716930  1  0.057324  0  0.109463  0.114747  0  0.988343  0
H  H31  1  0.88604120  0.61308245  0.05039991  1  0.061781  0  0.102792  0.106191  0  1.018832  0
H  H32  1  0.11295469  0.38953588  0.82080992  1  0.085338  0  0.109262  0.11406  0  0.989115  0
H  H33  1  0.11360103  0.38634645  0.95025914  1  0.059803  0  0.102785  0.106127  0  1.019092  0
H  H34  1  0.11424218  0.82062080  0.17707024  1  0.074309  0  0.110937  0.121462  0  0.994164  0
H  H35  1  0.17892311  0.93660623  0.06364626  1  0.1008  0  0.119544  0.151276  0  0.965916  0
H  H36  1  0.88996815  0.81898400  0.17858405  1  0.14052  0  0.110939  0.124802  0  1.001197  0
H  H37  1  0.88800969  0.17627859  0.82142962  1  0.103142  0  0.111027  0.122058  0  0.993875  0
H  H38  1  0.82086467  0.06277630  0.93739267  1  0.12565  0  0.119532  0.151342  0  0.966116  0
H  H39  1  0.11239878  0.17783758  0.81984416  1  0.121087  0  0.110716  0.122445  0  1.003481  0
H  H40  1  0.45026695  0.38568773  0.61383769  1  0.073018  0  0.110292  0.128315  0  1.00277  0
H  H41  1  0.55026872  0.61363106  0.38589704  1  0.074774  0  0.110307  0.128163  0  1.002996  0
H  H42  1  0.67724415  0.38875534  0.61349505  1  0.119163  0  0.108749  0.114129  0  0.990347  0
H  H43  1  0.55067441  0.38547562  0.61415937  1  0.062929  0  0.102991  0.106302  0  1.018183  0
H  H44  1  0.32045092  0.61321711  0.38901766  1  0.083089  0  0.108589  0.113918  0  0.990541  0
H  H45  1  0.44963904  0.61393467  0.38568994  1  0.065152  0  0.102847  0.106209  0  1.018569  0
H  H46  1  0.26702159  0.61904196  0.22948805  1  0.641343  0  0.308194  0.353675  0  0.971304  0
H  H47  1  0.72922842  0.38424389  0.76736362  1  0.639633  0  0.308167  0.353915  0  0.970627  0
H  H48  1  0.11905656  0.76705883  0.38449119  1  0.647833  0  0.3082  0.354059  0  0.97083  0
H  H49  1  0.88438269  0.22909186  0.61932501  1  0.648872  0  0.308291  0.354171  0  0.970345  0
H  H50  1  0.26596390  0.23023393  0.38459252  1  0.631812  0  0.309146  0.354509  0  0.968299  0
H  H51  1  0.73068327  0.76605595  0.61903391  1  0.635491  0  0.309137  0.35426  0  0.968752  0
H  H52  1  0.88432297  0.61885165  0.76622881  1  0.643314  0  0.309244  0.354485  0  0.968388  0
H  H53  1  0.11929323  0.38442088  0.23039097  1  0.64097  0  0.308965  0.354018  0  0.968764  0
H  H54  1  0.26694431  0.38306111  0.62029259  1  0.647478  0  0.308929  0.353965  0  0.969631  0
H  H55  1  0.72978964  0.61997048  0.38338536  1  0.641778  0  0.308972  0.354075  0  0.968985  0
C  C56  1  0.76177210  0.50289592  0.73430945  1  1.460852  0  0.231591  0.650648  0  4.08778  0
C  C57  1  0.00093823  0.73400925  0.50321680  1  1.474605  0  0.231853  0.651583  0  4.087626  0
C  C58  1  0.23402590  0.50097238  0.26194798  1  1.458055  0  0.231754  0.650699  0  4.087197  0
C  C59  1  0.00307722  0.26152467  0.50133237  1  1.479111  0  0.232041  0.651744  0  4.087094  0
C  C60  1  0.00058988  0.26138840  0.73447190  1  1.530757  0  0.239677  0.650853  0  4.077994  0
C  C61  1  0.76182865  0.50096553  0.50289046  1  1.476151  0  0.232425  0.653731  0  4.083063  0
C  C62  1  0.00361364  0.73372918  0.26199960  1  1.522763  0  0.239915  0.650737  0  4.080599  0
C  C63  1  0.23430808  0.50247598  0.50137672  1  1.469881  0  0.232482  0.653154  0  4.080726  0
C  C64  1  0.00296154  0.50013729  0.73472171  1  1.472038  0  0.231968  0.651276  0  4.087142  0
C  C65  1  0.23378886  0.26105659  0.50395973  1  1.467508  0  0.231373  0.650502  0  4.087866  0
C  C66  1  0.00118457  0.50359354  0.26142702  1  1.47281  0  0.232429  0.651644  0  4.087251  0
C  C67  1  0.76221310  0.73435503  0.50048301  1  1.466004  0  0.231831  0.651779  0  4.085791  0
C  C68  1  0.31128721  0.50157778  0.18600596  1  -0.048588  0  -0.042013  -0.208057  0  3.996616  0
C  C69  1  0.68585184  0.50096878  0.81160071  1  0.007373  0  -0.041893  -0.208184  0  3.997028  0
C  C70  1  0.35014311  0.56490598  0.14815710  1  0.544102  0  0.095809  0.329554  0  4.05682  0
C  C71  1  0.42407645  0.56278651  0.07583287  1  -0.008816  0  -0.10046  -0.252253  0  3.91398  0
C  C72  1  0.64808001  0.43653410  0.85058750  1  0.526738  0  0.096345  0.330751  0  4.057403  0
C  C73  1  0.57567484  0.43715753  0.92445388  1  -0.0391  0  -0.100394  -0.253133  0  3.915487  0
C  C74  1  0.64873988  0.56360799  0.84960582  1  -0.058975  0  -0.080949  -0.053974  0  4.017309  0
C  C75  1  0.57731702  0.56345309  0.92250125  1  -0.00042  0  -0.101542  -0.164241  0  4.001154  0
C  C76  1  0.34943554  0.43795983  0.14897189  1  -0.053595  0  -0.080768  -0.053367  0  4.018164  0
C  C77  1  0.42233754  0.43664924  0.07758279  1  0.004459  0  -0.101246  -0.164483  0  4.001965  0
C  C78  1  0.46129052  0.49975377  0.03906678  1  0.059073  0  0.005804  0.105108  0  3.990845  0
C  C79  1  0.53884828  0.49985322  0.96153821  1  0.000451  0  0.005469  0.105708  0  3.990021  0
C  C80  1  0.00150579  0.81134124  0.50118400  1  0.03211  0  -0.042216  -0.207921  0  3.996031  0
C  C81  1  0.00109366  0.18568090  0.50182094  1  0.001624  0  -0.042322  -0.208916  0  3.998422  0
C  C82  1  0.06470317  0.85035103  0.43668107  1  0.491111  0  0.095951  0.329934  0  4.057503  0
C  C83  1  0.06263225  0.92425693  0.43722450  1  0.05087  0  -0.100126  -0.252436  0  3.915328  0
C  C84  1  0.93672787  0.14785380  0.56507981  1  0.544342  0  0.095945  0.330281  0  4.057906  0
C  C85  1  0.93725231  0.07557578  0.56288138  1  0.061592  0  -0.100426  -0.252463  0  3.914856  0
C  C86  1  0.06358613  0.14873598  0.43812726  1  -0.040222  0  -0.080451  -0.05314  0  4.018548  0
C  C87  1  0.06336447  0.07742084  0.43669642  1  -0.018065  0  -0.101446  -0.164382  0  4.001765  0
C  C88  1  0.93796029  0.84944484  0.56374415  1  -0.025657  0  -0.080851  -0.053956  0  4.018383  0
C  C89  1  0.93664296  0.92236712  0.56351983  1  -0.015061  0  -0.10114  -0.16398  0  4.002166  0
C  C90  1  0.99968574  0.96138697  0.49989185  1  -0.029056  0  0.005524  0.10484  0  3.990405  0
C  C91  1  0.99983328  0.03889030  0.49978948  1  -0.107908  0  0.005797  0.105206  0  3.990246  0
C  C92  1  0.31140778  0.18556837  0.50142602  1  0.007102  0  -0.042067  -0.207211  0  3.996338  0
C  C93  1  0.68607195  0.81139405  0.50141981  1  -0.039934  0  -0.042144  -0.207706  0  3.994896  0
C  C94  1  0.34969240  0.14862120  0.43691405  1  0.509179  0  0.096502  0.329738  0  4.058376  0
C  C95  1  0.42362935  0.07630187  0.43740281  1  0.019174  0  -0.099859  -0.250994  0  3.913305  0
C  C96  1  0.64894272  0.84961822  0.56467970  1  0.526696  0  0.095722  0.328203  0  4.058722  0
C  C97  1  0.57656229  0.92350353  0.56258385  1  0.035365  0  -0.099573  -0.249779  0  3.913728  0
C  C98  1  0.64817998  0.85005989  0.43801881  1  -0.01198  0  -0.081389  -0.054926  0  4.022104  0
C  C99  1  0.57678157  0.92293709  0.43668137  1  -0.007552  0  -0.101928  -0.165162  0  4.004654  0
C  C100  1  0.35037583  0.14796104  0.56373850  1  -0.020905  0  -0.081346  -0.054648  0  4.021605  0
C  C101  1  0.42334563  0.07668265  0.56344351  1  -0.039447  0  -0.10255  -0.166925  0  4.003472  0
C  C102  1  0.46153257  0.03884356  0.49992327  1  0.00489  0  0.005667  0.105496  0  3.98791  0
C  C103  1  0.53904886  0.96132125  0.49967035  1  0.05974  0  0.004951  0.103811  0  3.989326  0
C  C104  1  0.00115149  0.50123192  0.81166397  1  0.025175  0  -0.042006  -0.207622  0  3.995636  0
C  C105  1  0.00166381  0.50125917  0.18578991  1  0.009851  0  -0.041935  -0.207539  0  3.996074  0
C  C106  1  0.93683586  0.56458489  0.84979239  1  0.485313  0  0.096498  0.329128  0  4.057634  0
C  C107  1  0.93743059  0.56259357  0.92362819  1  0.047388  0  -0.100215  -0.250812  0  3.913715  0
C  C108  1  0.06488361  0.43683963  0.14873448  1  0.528893  0  0.095969  0.329315  0  4.05859  0
C  C109  1  0.06277316  0.43741220  0.07638298  1  0.039965  0  -0.09931  -0.250283  0  3.913147  0
C  C110  1  0.93800031  0.56362254  0.14818759  1  -0.012676  0  -0.081569  -0.055129  0  4.021889  0
C  C111  1  0.93660258  0.56341572  0.07686609  1  -0.01425  0  -0.102219  -0.166003  0  4.004032  0
C  C112  1  0.06378839  0.43788088  0.85033045  1  -0.019343  0  -0.081108  -0.053921  0  4.022138  0
C  C113  1  0.06365562  0.43662574  0.92316101  1  -0.003507  0  -0.102152  -0.166402  0  4.00464  0
C  C114  1  0.00002244  0.49967953  0.96146723  1  -0.094196  0  0.004977  0.104607  0  3.989823  0
C  C115  1  0.99977749  0.49993897  0.03897245  1  -0.036296  0  0.005378  0.104707  0  3.989413  0
C  C116  1  0.06521683  0.85023613  0.14789232  1  0.02726  0  -0.075336  -0.132672  0  3.901873  0
C  C117  1  0.06538537  0.92465528  0.07480970  1  0.08391  0  0.00015  0.104162  0  4.039977  0
C  C118  1  0.12907892  0.96402159  0.03605710  1  0.05088  0  -0.097731  -0.269459  0  3.984709  0
C  C119  1  0.93817388  0.84909902  0.14896754  1  -0.00072  0  -0.07791  -0.123172  0  3.928255  0
C  C120  1  0.93644363  0.92338549  0.07606980  1  0.012114  0  -0.01183  -0.024348  0  4.050892  0
C  C121  1  0.87281625  0.96376451  0.03628347  1  0.434635  0  0.102412  0.249225  0  4.071456  0
C  C122  1  0.93661658  0.14717177  0.85101285  1  -0.025869  0  -0.075272  -0.133993  0  3.903167  0
C  C123  1  0.93516160  0.07404770  0.92541054  1  -0.016947  0  -0.000451  0.10499  0  4.039796  0
C  C124  1  0.87087219  0.03527355  0.96478339  1  0.040234  0  -0.097436  -0.270006  0  3.985682  0
C  C125  1  0.06369768  0.14822798  0.84991396  1  0.019277  0  -0.077419  -0.120387  0  3.925807  0
C  C126  1  0.06409218  0.07528010  0.92415810  1  0.034993  0  -0.010861  -0.022739  0  4.050138  0
C  C127  1  0.12712051  0.03552782  0.96454479  1  0.373728  0  0.101619  0.247751  0  4.069461  0
C  C128  1  0.00255242  0.81280865  0.18425011  1  -0.081355  0  -0.018532  -0.041308  0  4.005578  0
C  C129  1  0.00039846  0.96213842  0.03761940  1  -0.012137  0  0.005714  0.010499  0  3.921114  0
C  C130  1  0.00031011  0.18359923  0.81359575  1  -0.027295  0  -0.019028  -0.041959  0  4.003498  0
C  C131  1  0.99984813  0.03683207  0.96290239  1  -0.047599  0  0.005916  0.009402  0  3.923647  0
C  C132  1  0.31149945  0.50072635  0.50187736  1  0.044537  0  -0.042411  -0.20925  0  3.993035  0
C  C133  1  0.68587126  0.50159986  0.50105663  1  0.006216  0  -0.042209  -0.209081  0  3.99437  0
C  C134  1  0.35011666  0.43603093  0.56550716  1  0.499254  0  0.096203  0.330647  0  4.055574  0
C  C135  1  0.42391890  0.43674830  0.56330577  1  0.047549  0  -0.099658  -0.251423  0  3.913307  0
C  C136  1  0.64838015  0.56526635  0.43631304  1  0.542907  0  0.096083  0.329597  0  4.056194  0
C  C137  1  0.57605265  0.56310477  0.43699105  1  0.047335  0  -0.100181  -0.251522  0  3.913067  0
C  C138  1  0.64836151  0.43764941  0.56404426  1  -0.06671  0  -0.081432  -0.054128  0  4.017802  0
C  C139  1  0.57701583  0.43626392  0.56395980  1  -0.015012  0  -0.101305  -0.16451  0  4.000383  0
C  C140  1  0.34991350  0.56377115  0.43789921  1  -0.028684  0  -0.080901  -0.053817  0  4.017477  0
C  C141  1  0.42273780  0.56371834  0.43647607  1  -0.011371  0  -0.101383  -0.164376  0  4.000847  0
C  C142  1  0.46140617  0.49980355  0.49989510  1  -0.098979  0  0.005038  0.104066  0  3.989132  0
C  C143  1  0.53888414  0.49970668  0.50001664  1  -0.040835  0  0.005384  0.104864  0  3.988952  0
O  O144  1  0.79344467  0.44292901  0.70248581  1  -1.190086  0  -0.357146  -0.637905  0  2.322501  0
O  O145  1  0.06108202  0.70210121  0.44332003  1  -1.189893  0  -0.357514  -0.638946  0  2.322045  0
O  O146  1  0.20224187  0.56101521  0.29369150  1  -1.189105  0  -0.357123  -0.637636  0  2.322621  0
O  O147  1  0.94310504  0.29320845  0.56143331  1  -1.189572  0  -0.357306  -0.638515  0  2.322618  0
O  O148  1  0.05985890  0.29246503  0.70332747  1  -1.179442  0  -0.35727  -0.619346  0  2.285669  0
O  O149  1  0.79386504  0.56140742  0.44242062  1  -1.193731  0  -0.355834  -0.638782  0  2.318475  0
O  O150  1  0.94442382  0.70259883  0.29302291  1  -1.179146  0  -0.358015  -0.619846  0  2.288159  0
O  O151  1  0.20232034  0.44200223  0.56186428  1  -1.182108  0  -0.355977  -0.638864  0  2.317545  0
O  O152  1  0.94287999  0.56012381  0.70245310  1  -1.187383  0  -0.358804  -0.63839  0  2.326921  0
O  O153  1  0.20139207  0.29338505  0.44396743  1  -1.189423  0  -0.358412  -0.638592  0  2.327502  0
O  O154  1  0.06123645  0.44356462  0.29374987  1  -1.187373  0  -0.358905  -0.639505  0  2.326229  0
O  O155  1  0.79454817  0.70212682  0.56048401  1  -1.190043  0  -0.358426  -0.638574  0  2.326156  0
O  O156  1  0.20197256  0.29238443  0.56283012  1  -1.181332  0  -0.356185  -0.616059  0  2.273148  0
O  O157  1  0.94272353  0.56233557  0.29289258  1  -1.185709  0  -0.356658  -0.61648  0  2.274856  0
O  O158  1  0.79416473  0.70300922  0.44158988  1  -1.18214  0  -0.356706  -0.617162  0  2.273493  0
O  O159  1  0.06118535  0.44115540  0.70346995  1  -1.182437  0  -0.356807  -0.616968  0  2.273779  0
O  O160  1  0.94107270  0.29268247  0.70360847  1  -1.180785  0  -0.358935  -0.627961  0  2.269369  0
O  O161  1  0.20245670  0.56133596  0.44223112  1  -1.186022  0  -0.36002  -0.621214  0  2.271789  0
O  O162  1  0.06265426  0.70293657  0.29331309  1  -1.184311  0  -0.358911  -0.626928  0  2.272529  0
O  O163  1  0.79393896  0.44177857  0.56175873  1  -1.1855  0  -0.359897  -0.621568  0  2.273214  0
O  O164  1  0.06161010  0.29390521  0.44260056  1  -1.189346  0  -0.359058  -0.618822  0  2.278571  0
O  O165  1  0.79423128  0.56134313  0.70222113  1  -1.183079  0  -0.359046  -0.618645  0  2.278496  0
O  O166  1  0.94210528  0.70195186  0.56168665  1  -1.187736  0  -0.358669  -0.618797  0  2.279484  0
O  O167  1  0.20191070  0.44217683  0.29436524  1  -1.182409  0  -0.359007  -0.618601  0  2.279248  0
O  O168  1  0.94788649  0.44837209  0.44785376  1  -1.240489  0  -0.696163  -1.067028  0  2.359011  0
O  O169  1  0.15582660  0.44736293  0.44891833  1  -1.244824  0  -0.696208  -1.068204  0  2.361363  0
O  O170  1  0.94842401  0.65639514  0.44751622  1  -1.244553  0  -0.696195  -1.068592  0  2.361444  0
O  O171  1  0.94765225  0.44701719  0.65689632  1  -1.22946  0  -0.695615  -1.067327  0  2.359438  0
O  O172  1  0.03843257  0.53727385  0.53897575  1  -1.196514  0  -0.793592  -1.144164  0  2.130906  0
O  O173  1  0.88534954  0.53844054  0.53778298  1  -1.193761  0  -0.793713  -1.144589  0  2.13239  0
O  O174  1  0.03823967  0.53870104  0.38514262  1  -1.188519  0  -0.793892  -1.14544  0  2.13664  0
O  O175  1  0.03789815  0.38468205  0.53917565  1  -1.19161  0  -0.793703  -1.145064  0  2.135758  0
O  O176  1  0.31889428  0.62847125  0.17878476  1  -1.153219  0  -0.358964  -0.447383  0  2.242857  0
O  O177  1  0.67884881  0.37337875  0.81957948  1  -1.15224  0  -0.358974  -0.447954  0  2.242742  0
O  O178  1  0.12806878  0.81932369  0.37351771  1  -1.16089  0  -0.358984  -0.447957  0  2.242752  0
O  O179  1  0.87375360  0.17845330  0.62865280  1  -1.164961  0  -0.358959  -0.447869  0  2.242302  0
O  O180  1  0.31797887  0.17995728  0.37385945  1  -1.143434  0  -0.357456  -0.445484  0  2.243946  0
O  O181  1  0.68022550  0.81793071  0.62815071  1  -1.147093  0  -0.357092  -0.444639  0  2.243775  0
O  O182  1  0.87380967  0.62805586  0.81804446  1  -1.156071  0  -0.357396  -0.445093  0  2.243564  0
O  O183  1  0.12834374  0.37377999  0.18002914  1  -1.147453  0  -0.357338  -0.445082  0  2.243674  0
O  O184  1  0.31883154  0.37247335  0.62944376  1  -1.16099  0  -0.357292  -0.445615  0  2.242965  0
O  O185  1  0.67934313  0.62917275  0.37276915  1  -1.158171  0  -0.357035  -0.445087  0  2.242289  0
F  F186  1  0.18796231  0.07267216  0.92771053  1  -0.628415  0  -0.105187  -0.147099  0  1.310124  0
F  F187  1  0.81168190  0.92692303  0.07336079  1  -0.629152  0  -0.105195  -0.147101  0  1.310734  0
