# generated using pymatgen
data_CaH12(C5O4)2
_symmetry_space_group_name_H-M   'P 1'
_cell_length_a   6.93071299
_cell_length_b   7.60472975
_cell_length_c   23.24000000
_cell_angle_alpha   93.31557759
_cell_angle_beta   90.00000000
_cell_angle_gamma   90.00000000
_symmetry_Int_Tables_number   1
_chemical_formula_structural   CaH12(C5O4)2
_chemical_formula_sum   'Ca4 H48 C40 O32'
_cell_volume   1222.84175911
_cell_formula_units_Z   4
loop_
 _symmetry_equiv_pos_site_id
 _symmetry_equiv_pos_as_xyz
  1  'x, y, z'
loop_
 _atom_site_type_symbol
 _atom_site_label
 _atom_site_symmetry_multiplicity
 _atom_site_fract_x
 _atom_site_fract_y
 _atom_site_fract_z
 _atom_site_occupancy
 _atom_site_hle17_bader_spin_density
 _atom_site_hle17_ddec_charge
 _atom_site_hle17_ddec_spin_density
 _atom_site_hle17_ddec_sum_bond_order
 _atom_site_hle17_magmom
 _atom_site_hse06_10hf_bader_spin_density
 _atom_site_hse06_10hf_ddec_charge
 _atom_site_hse06_10hf_ddec_spin_density
 _atom_site_hse06_10hf_ddec_sum_bond_order
 _atom_site_hse06_10hf_magmom
 _atom_site_hse06_bader_spin_density
 _atom_site_hse06_ddec_charge
 _atom_site_hse06_ddec_spin_density
 _atom_site_hse06_ddec_sum_bond_order
 _atom_site_hse06_magmom
 _atom_site_pbe_bader_charge
 _atom_site_pbe_bader_spin_density
 _atom_site_pbe_cm5_charge
 _atom_site_pbe_ddec_charge
 _atom_site_pbe_ddec_spin_density
 _atom_site_pbe_ddec_sum_bond_order
 _atom_site_pbe_magmom
Ca  Ca0  1  0.41368760  0.66757504  0.31637069  1  0  1.525627  0  1.095996  0  0  1.381702  0  1.449638  0  0  1.426445  0  1.404097  0  1.643701  0  0.867592  1.348424  0  1.481452  0
Ca  Ca1  1  0.91369243  0.83242751  0.18363084  1  0  1.525554  0  1.096104  0  0  1.381621  0  1.449775  0  0  1.426368  0  1.404224  0  1.643677  0  0.867587  1.348303  0  1.481654  0
Ca  Ca2  1  0.58631197  0.33241832  0.68362888  1  0  1.525601  0  1.09601  0  0  1.38168  0  1.44964  0  0  1.426423  0  1.404095  0  1.643683  0  0.867611  1.348399  0  1.481464  0
Ca  Ca3  1  0.08630569  0.16757639  0.81636850  1  0  1.525594  0  1.096054  0  0  1.381666  0  1.449706  0  0  1.426414  0  1.404158  0  1.643659  0  0.8676  1.34838  0  1.481541  0
H  H4  1  0.31916197  0.63787404  0.54234732  1  0  0.12186  0  1.000816  0  0  0.127657  0  1.070459  0  0  0.131893  0  1.067284  0  0.152664  0  0.104352  0.124595  0  1.072823  0
H  H5  1  0.81915670  0.86212324  0.95765756  1  0  0.121794  0  1.000813  0  0  0.127528  0  1.070544  0  0  0.13177  0  1.067351  0  0.152663  0  0.104308  0.12447  0  1.0729  0
H  H6  1  0.68083760  0.36212459  0.45765451  1  0  0.121828  0  1.000788  0  0  0.12757  0  1.070498  0  0  0.131813  0  1.067304  0  0.152736  0  0.104312  0.124513  0  1.072851  0
H  H7  1  0.18084719  0.13789119  0.04234414  1  0  0.121813  0  1.000813  0  0  0.127534  0  1.070548  0  0  0.131778  0  1.067349  0  0.152627  0  0.104307  0.124477  0  1.072904  0
H  H8  1  0.55291570  0.77049390  0.61268119  1  0  0.096514  0  0.969657  0  0  0.104164  0  1.036219  0  0  0.108466  0  1.032565  0  0.12481  0  0.101008  0.100975  0  1.039022  0
H  H9  1  0.05290076  0.72951656  0.88732049  1  0  0.096636  0  0.969603  0  0  0.104282  0  1.036151  0  0  0.108566  0  1.032517  0  0.124649  0  0.101049  0.101097  0  1.038951  0
H  H10  1  0.44707666  0.22951000  0.38731901  1  0  0.096504  0  0.969646  0  0  0.104168  0  1.036186  0  0  0.108475  0  1.032529  0  0.12481  0  0.101002  0.100981  0  1.038985  0
H  H11  1  0.94709159  0.27050183  0.11267870  1  0  0.096558  0  0.969513  0  0  0.104197  0  1.036081  0  0  0.108477  0  1.03245  0  0.124804  0  0.101003  0.101009  0  1.038882  0
H  H12  1  0.83286669  0.93988404  0.57909090  1  0  0.084044  0  0.962685  0  0  0.095969  0  1.024763  0  0  0.098866  0  1.022938  0  0.06021  0  0.097941  0.093858  0  1.026212  0
H  H13  1  0.33286907  0.56014354  0.92090766  1  0  0.084129  0  0.962579  0  0  0.096025  0  1.024674  0  0  0.098922  0  1.022848  0  0.060138  0  0.09796  0.093878  0  1.026165  0
H  H14  1  0.16713143  0.06010932  0.42091125  1  0  0.084119  0  0.962548  0  0  0.096038  0  1.024634  0  0  0.098934  0  1.022811  0  0.060243  0  0.097988  0.093929  0  1.02608  0
H  H15  1  0.66713050  0.43987880  0.07908730  1  0  0.084117  0  0.962613  0  0  0.095994  0  1.024746  0  0  0.09889  0  1.022924  0  0.060247  0  0.097948  0.093886  0  1.026189  0
H  H16  1  0.87984454  0.97575732  0.47396216  1  0  0.094349  0  0.992178  0  0  0.105612  0  1.057984  0  0  0.107819  0  1.057125  0  0.062028  0  0.100266  0.103995  0  1.058796  0
H  H17  1  0.37985702  0.52427289  0.02603603  1  0  0.094454  0  0.991955  0  0  0.105688  0  1.057816  0  0  0.107896  0  1.056938  0  0.062228  0  0.10021  0.104071  0  1.058629  0
H  H18  1  0.12015935  0.02422418  0.52603934  1  0  0.094441  0  0.992131  0  0  0.105637  0  1.057993  0  0  0.107835  0  1.057156  0  0.061864  0  0.100278  0.104019  0  1.058806  0
H  H19  1  0.62013966  0.47575340  0.97395858  1  0  0.094372  0  0.99207  0  0  0.105583  0  1.057944  0  0  0.107782  0  1.057098  0  0.061534  0  0.100222  0.103965  0  1.058755  0
H  H20  1  0.79012650  0.06960484  0.38407460  1  0  0.105581  0  0.915815  0  0  0.116912  0  0.978647  0  0  0.118665  0  0.977133  0  0.107623  0  0.119774  0.115676  0  0.979873  0
H  H21  1  0.29013898  0.43040172  0.11592171  1  0  0.105634  0  0.915697  0  0  0.116906  0  0.978609  0  0  0.118661  0  0.977097  0  0.107728  0  0.119774  0.11566  0  0.979833  0
H  H22  1  0.20987595  0.93037534  0.61592773  1  0  0.105593  0  0.915803  0  0  0.116863  0  0.978776  0  0  0.118605  0  0.977253  0  0.107825  0  0.119785  0.115625  0  0.979994  0
H  H23  1  0.70986780  0.56960613  0.88407426  1  0  0.105579  0  0.915824  0  0  0.1169  0  0.978691  0  0  0.118658  0  0.97718  0  0.10764  0  0.119774  0.115661  0  0.979918  0
H  H24  1  0.94107778  0.87889879  0.38506282  1  0  0.089228  0  0.929425  0  0  0.101249  0  0.993077  0  0  0.102625  0  0.99162  0  0.07537  0  0.118629  0.100279  0  0.994261  0
H  H25  1  0.44109748  0.62111166  0.11494102  1  0  0.089226  0  0.929378  0  0  0.101269  0  0.993024  0  0  0.102643  0  0.991578  0  0.075242  0  0.118679  0.100293  0  0.994194  0
H  H26  1  0.05893333  0.12109062  0.61493926  1  0  0.08915  0  0.929404  0  0  0.101269  0  0.993003  0  0  0.102635  0  0.991535  0  0.075315  0  0.118622  0.100295  0  0.994184  0
H  H27  1  0.55891075  0.37889223  0.88505790  1  0  0.089181  0  0.92945  0  0  0.101268  0  0.993039  0  0  0.102648  0  0.991588  0  0.075361  0  0.118661  0.100301  0  0.994208  0
H  H28  1  0.20515061  0.46700076  0.46929809  1  0  0.092747  0  0.964832  0  0  0.102479  0  1.031435  0  0  0.103045  0  1.032726  0  0.107918  0  0.110437  0.102117  0  1.030672  0
H  H29  1  0.70514390  0.03299789  0.03070324  1  0  0.092792  0  0.964821  0  0  0.102478  0  1.031454  0  0  0.103043  0  1.032746  0  0.107598  0  0.110433  0.102115  0  1.030692  0
H  H30  1  0.79484030  0.53298733  0.53070267  1  0  0.092793  0  0.964914  0  0  0.102506  0  1.031524  0  0  0.103072  0  1.032815  0  0.10783  0  0.110452  0.102143  0  1.030762  0
H  H31  1  0.29484845  0.96701127  0.96929836  1  0  0.092793  0  0.964891  0  0  0.102506  0  1.031487  0  0  0.103072  0  1.032782  0  0.107829  0  0.110456  0.102143  0  1.030727  0
H  H32  1  0.08822180  0.67583505  0.47101755  1  0  0.089113  0  0.931088  0  0  0.098867  0  0.999638  0  0  0.100341  0  0.998333  0  0.086947  0  0.108063  0.097801  0  1.000785  0
H  H33  1  0.58822664  0.82416355  0.02898692  1  0  0.089049  0  0.931159  0  0  0.098799  0  0.999707  0  0  0.100278  0  0.998396  0  0.087008  0  0.108018  0.097733  0  1.000852  0
H  H34  1  0.91177777  0.32416094  0.52898165  1  0  0.089123  0  0.931085  0  0  0.098887  0  0.999629  0  0  0.100369  0  0.998314  0  0.086922  0  0.108042  0.097822  0  1.000775  0
H  H35  1  0.41177870  0.17584693  0.97101254  1  0  0.089042  0  0.931048  0  0  0.098821  0  0.999551  0  0  0.100299  0  0.998244  0  0.086951  0  0.108033  0.097757  0  1.000695  0
H  H36  1  0.64538815  0.34045177  0.29592420  1  0  0.423648  0  0.830639  0  0  0.40924  0  0.880495  0  0  0.417623  0  0.869966  0  0.614973  0  0.326616  0.403173  0  0.887597  0
H  H37  1  0.14538043  0.15956401  0.20407788  1  0  0.42354  0  0.83069  0  0  0.409137  0  0.880551  0  0  0.417517  0  0.87009  0  0.614853  0  0.326597  0.403081  0  0.887629  0
H  H38  1  0.35460854  0.65954027  0.70407577  1  0  0.423691  0  0.830617  0  0  0.409272  0  0.880491  0  0  0.417661  0  0.869927  0  0.615021  0  0.32662  0.403205  0  0.887594  0
H  H39  1  0.85461482  0.84044648  0.79592503  1  0  0.423652  0  0.830672  0  0  0.409239  0  0.880536  0  0  0.417623  0  0.869974  0  0.614959  0  0.326613  0.403172  0  0.887637  0
H  H40  1  0.74451936  0.42583375  0.35387098  1  0  0.432605  0  0.8747  0  0  0.395718  0  0.947674  0  0  0.408645  0  0.928905  0  0.648778  0  0.28869  0.386596  0  0.960896  0
H  H41  1  0.24451741  0.07417413  0.14613096  1  0  0.432658  0  0.874632  0  0  0.395791  0  0.947573  0  0  0.408717  0  0.928804  0  0.648845  0  0.288723  0.386668  0  0.960795  0
H  H42  1  0.25548165  0.57415961  0.64612860  1  0  0.432594  0  0.87473  0  0  0.395727  0  0.947663  0  0  0.408652  0  0.928897  0  0.648895  0  0.288703  0.386605  0  0.960884  0
H  H43  1  0.75547494  0.92583767  0.85387111  1  0  0.432596  0  0.874721  0  0  0.395722  0  0.94767  0  0  0.408648  0  0.928901  0  0.648788  0  0.288689  0.3866  0  0.960891  0
H  H44  1  0.17889069  0.99223388  0.29782863  1  0  0.427465  0  0.875437  0  0  0.396128  0  0.939992  0  0  0.407413  0  0.923506  0  0.630738  0  0.298875  0.388125  0  0.951675  0
H  H45  1  0.67888542  0.50777263  0.20216997  1  0  0.42747  0  0.875423  0  0  0.396135  0  0.939973  0  0  0.40742  0  0.923486  0  0.630707  0  0.298882  0.388132  0  0.951656  0
H  H46  1  0.82111321  0.00776212  0.70217143  1  0  0.427473  0  0.875403  0  0  0.396127  0  0.939968  0  0  0.40741  0  0.923484  0  0.630707  0  0.298888  0.388127  0  0.951645  0
H  H47  1  0.32111703  0.49223127  0.79783023  1  0  0.427481  0  0.875389  0  0  0.396156  0  0.939921  0  0  0.40744  0  0.923436  0  0.630763  0  0.298921  0.388154  0  0.951601  0
H  H48  1  0.38060298  0.99207977  0.26743156  1  0  0.422954  0  0.832468  0  0  0.400084  0  0.899925  0  0  0.409745  0  0.888158  0  0.599267  0  0.324082  0.393086  0  0.908512  0
H  H49  1  0.88060781  0.50792542  0.23255969  1  0  0.42294  0  0.832383  0  0  0.400085  0  0.899816  0  0  0.409743  0  0.888057  0  0.59943  0  0.324043  0.393089  0  0.908395  0
H  H50  1  0.61940092  0.00791359  0.73256629  1  0  0.422945  0  0.832488  0  0  0.40007  0  0.899955  0  0  0.409731  0  0.888191  0  0.599343  0  0.324063  0.393071  0  0.908542  0
H  H51  1  0.11939464  0.49208111  0.76743841  1  0  0.422891  0  0.832506  0  0  0.400041  0  0.899932  0  0  0.4097  0  0.888173  0  0.599412  0  0.324049  0.393045  0  0.908511  0
C  C52  1  0.63240824  0.81920306  0.44899029  1  0  0.174425  0  3.792171  0  0  0.162912  0  4.048655  0  0  0.170369  0  4.065787  0  0.441865  0  0.078949  0.157623  0  4.037214  0
C  C53  1  0.13241783  0.68081793  0.05101460  1  0  0.174501  0  3.791971  0  0  0.162967  0  4.048424  0  0  0.170424  0  4.065552  0  0.442339  0  0.079022  0.157672  0  4.03699  0
C  C54  1  0.36759710  0.18077976  0.55101253  1  0  0.174185  0  3.792054  0  0  0.162746  0  4.048424  0  0  0.170193  0  4.065559  0  0.443337  0  0.078889  0.157454  0  4.036987  0
C  C55  1  0.86758895  0.31920704  0.94898600  1  0  0.174221  0  3.79213  0  0  0.162705  0  4.048609  0  0  0.17015  0  4.065741  0  0.442612  0  0.078981  0.157421  0  4.037168  0
C  C56  1  0.47141037  0.72646334  0.46834575  1  0  0.1738  0  3.791965  0  0  0.165264  0  4.047248  0  0  0.172321  0  4.063819  0  0.3985  0  0.078525  0.160169  0  4.036193  0
C  C57  1  0.97141232  0.77354711  0.03165722  1  0  0.173717  0  3.792265  0  0  0.165189  0  4.047536  0  0  0.172262  0  4.064105  0  0.397815  0  0.078489  0.160094  0  4.036484  0
C  C58  1  0.52858920  0.27352475  0.53165544  1  0  0.174082  0  3.791561  0  0  0.165458  0  4.046906  0  0  0.17254  0  4.063454  0  0.397891  0  0.078589  0.160362  0  4.035854  0
C  C59  1  0.02858869  0.22647127  0.96834197  1  0  0.174117  0  3.791677  0  0  0.165507  0  4.047042  0  0  0.172594  0  4.063578  0  0.398372  0  0.07862  0.16041  0  4.035991  0
C  C60  1  0.44346520  0.70910823  0.52703968  1  0  -0.187758  0  3.751658  0  0  -0.211619  0  4.010013  0  0  -0.215031  0  4.028444  0  -0.052815  0  -0.111345  -0.209219  0  3.997749  0
C  C61  1  0.94345993  0.79089168  0.97296568  1  0  -0.187625  0  3.751816  0  0  -0.211435  0  4.010181  0  0  -0.214841  0  4.028606  0  -0.052806  0  -0.111298  -0.209037  0  3.997919  0
C  C62  1  0.55652716  0.29089171  0.47296045  1  0  -0.187743  0  3.751572  0  0  -0.21154  0  4.009942  0  0  -0.214952  0  4.028369  0  -0.052885  0  -0.111269  -0.209142  0  3.99768  0
C  C63  1  0.05652954  0.20911089  0.02703708  1  0  -0.187805  0  3.751609  0  0  -0.211585  0  4.009976  0  0  -0.214998  0  4.028397  0  -0.052801  0  -0.111294  -0.209189  0  3.997713  0
C  C64  1  0.57501732  0.78553868  0.56684200  1  0  -0.058562  0  3.770516  0  0  -0.078698  0  4.033169  0  0  -0.07921  0  4.051142  0  -0.043632  0  -0.100386  -0.078274  0  4.021042  0
C  C65  1  0.07500383  0.71445202  0.93315716  1  0  -0.058786  0  3.770524  0  0  -0.078927  0  4.033176  0  0  -0.079428  0  4.051158  0  -0.043513  0  -0.100431  -0.078503  0  4.021037  0
C  C66  1  0.42497648  0.21445995  0.43315768  1  0  -0.058518  0  3.770404  0  0  -0.078666  0  4.03305  0  0  -0.079185  0  4.05102  0  -0.043794  0  -0.100359  -0.078242  0  4.020925  0
C  C67  1  0.92498131  0.28554530  0.06684034  1  0  -0.058534  0  3.770437  0  0  -0.078628  0  4.033019  0  0  -0.079125  0  4.051004  0  -0.043727  0  -0.100349  -0.078204  0  4.020896  0
C  C68  1  0.73265045  0.87901734  0.54783744  1  0  -0.066047  0  3.79625  0  0  -0.08732  0  4.061625  0  0  -0.087575  0  4.080489  0  -0.053197  0  -0.103511  -0.087118  0  4.048891  0
C  C69  1  0.23264273  0.62099575  0.95216473  1  0  -0.066041  0  3.796487  0  0  -0.087266  0  4.061804  0  0  -0.087522  0  4.08067  0  -0.052965  0  -0.103531  -0.087037  0  4.049075  0
C  C70  1  0.26735200  0.12097339  0.45216424  1  0  -0.06615  0  3.796228  0  0  -0.08743  0  4.061615  0  0  -0.087685  0  4.08048  0  -0.052884  0  -0.103565  -0.087228  0  4.04888  0
C  C71  1  0.76734818  0.37902000  0.04783398  1  0  -0.066292  0  3.796436  0  0  -0.087544  0  4.061804  0  0  -0.087799  0  4.080663  0  -0.052776  0  -0.103606  -0.087343  0  4.049069  0
C  C72  1  0.76154503  0.89627761  0.48880308  1  0  -0.202021  0  3.815453  0  0  -0.223438  0  4.073562  0  0  -0.2273  0  4.094325  0  -0.006899  0  -0.11508  -0.220815  0  4.059729  0
C  C73  1  0.26154885  0.60374338  0.01119622  1  0  -0.202179  0  3.815417  0  0  -0.223598  0  4.073551  0  0  -0.227451  0  4.094311  0  -0.00697  0  -0.115042  -0.220973  0  4.059711  0
C  C74  1  0.23845743  0.10370258  0.51119711  1  0  -0.20208  0  3.81546  0  0  -0.223461  0  4.073557  0  0  -0.227324  0  4.094323  0  -0.007768  0  -0.115099  -0.22084  0  4.059729  0
C  C75  1  0.73844639  0.39628027  0.98880048  1  0  -0.20187  0  3.815369  0  0  -0.223248  0  4.073478  0  0  -0.227106  0  4.094242  0  -0.007468  0  -0.115  -0.220626  0  4.059649  0
C  C76  1  0.80307178  0.92972071  0.36934133  1  0  -0.064117  0  3.610348  0  0  -0.121814  0  3.869243  0  0  -0.117912  0  3.869134  0  0.420082  0  -0.052897  -0.124825  0  3.869651  0
C  C77  1  0.30308714  0.57028316  0.13065894  1  0  -0.064093  0  3.610156  0  0  -0.121758  0  3.869029  0  0  -0.117867  0  3.868937  0  0.420087  0  -0.052898  -0.124721  0  3.869372  0
C  C78  1  0.19693212  0.07025816  0.63066227  1  0  -0.06382  0  3.610152  0  0  -0.121694  0  3.869247  0  0  -0.117729  0  3.869063  0  0.420215  0  -0.052808  -0.12468  0  3.869617  0
C  C79  1  0.69691675  0.42972205  0.86933785  1  0  -0.06404  0  3.610293  0  0  -0.121823  0  3.869233  0  0  -0.117943  0  3.869153  0  0.420057  0  -0.052871  -0.124812  0  3.869615  0
C  C80  1  0.80803664  0.91154105  0.30406268  1  0  0.689959  0  3.88453  0  0  0.639746  0  4.18524  0  0  0.673177  0  4.177346  0  1.576067  0  0.224048  0.617018  0  4.189875  0
C  C81  1  0.30804046  0.58845229  0.19593739  1  0  0.689892  0  3.884616  0  0  0.639617  0  4.18541  0  0  0.673049  0  4.177526  0  1.575728  0  0.224007  0.616872  0  4.190048  0
C  C82  1  0.19196726  0.08844441  0.69593846  1  0  0.689862  0  3.884621  0  0  0.639664  0  4.185356  0  0  0.673078  0  4.177463  0  1.57607  0  0.224086  0.616929  0  4.189995  0
C  C83  1  0.69196344  0.41154898  0.80406019  1  0  0.689898  0  3.884383  0  0  0.639637  0  4.185164  0  0  0.673067  0  4.177283  0  1.575832  0  0.224127  0.616899  0  4.189804  0
C  C84  1  0.17287687  0.58063090  0.44385606  1  0  -0.078761  0  3.617844  0  0  -0.135165  0  3.875976  0  0  -0.131743  0  3.877122  0  0.344986  0  -0.065632  -0.137776  0  3.875392  0
C  C85  1  0.67287594  0.91937166  0.05614676  1  0  -0.078865  0  3.6179  0  0  -0.135087  0  3.875985  0  0  -0.131657  0  3.87714  0  0.345222  0  -0.065605  -0.137691  0  3.87539  0
C  C86  1  0.82712414  0.41936378  0.55614483  1  0  -0.078959  0  3.618052  0  0  -0.135298  0  3.876223  0  0  -0.131871  0  3.87737  0  0.34517  0  -0.065651  -0.137907  0  3.875637  0
C  C87  1  0.32712507  0.08063356  0.94385389  1  0  -0.078797  0  3.617892  0  0  -0.135096  0  3.875953  0  0  -0.131682  0  3.877117  0  0.345159  0  -0.065626  -0.137707  0  3.875368  0
C  C88  1  0.05496548  0.51973522  0.39101857  1  0  0.682218  0  3.907812  0  0  0.631274  0  4.217808  0  0  0.664028  0  4.209691  0  1.618737  0  0.212144  0.609002  0  4.222656  0
C  C89  1  0.55496455  0.98026865  0.10898385  1  0  0.682439  0  3.90767  0  0  0.631224  0  4.218058  0  0  0.663983  0  4.209941  0  1.618709  0  0.212113  0.608951  0  4.222902  0
C  C90  1  0.94503408  0.48026341  0.60898369  1  0  0.682389  0  3.907603  0  0  0.631211  0  4.21794  0  0  0.663966  0  4.209824  0  1.618732  0  0.212093  0.608939  0  4.222786  0
C  C91  1  0.44503791  0.01973393  0.89101676  1  0  0.682396  0  3.907713  0  0  0.631305  0  4.217924  0  0  0.664063  0  4.209807  0  1.618744  0  0.212175  0.609032  0  4.222773  0
O  O92  1  0.62633383  0.42776209  0.32752537  1  0  -0.887007  0  1.805897  0  0  -0.834192  0  1.997727  0  0  -0.854793  0  1.966435  0  -1.286001  0  -0.624179  -0.819269  0  2.018857  0
O  O93  1  0.12633621  0.07224578  0.17247742  1  0  -0.886944  0  1.805882  0  0  -0.834147  0  1.997717  0  0  -0.854742  0  1.966479  0  -1.285911  0  -0.624192  -0.819232  0  2.018831  0
O  O94  1  0.37366718  0.57223126  0.67247377  1  0  -0.887054  0  1.805933  0  0  -0.834243  0  1.997792  0  0  -0.854849  0  1.966447  0  -1.28604  0  -0.624197  -0.81932  0  2.018926  0
O  O95  1  0.87366336  0.92776338  0.82752503  1  0  -0.887008  0  1.805933  0  0  -0.834176  0  1.997741  0  0  -0.854789  0  1.96643  0  -1.285964  0  -0.624177  -0.819247  0  2.018871  0
O  O96  1  0.31984300  0.97584953  0.30465753  1  0  -0.856348  0  1.780407  0  0  -0.807627  0  1.95916  0  0  -0.827904  0  1.931161  0  -1.23768  0  -0.605459  -0.793069  0  1.978712  0
O  O97  1  0.81983629  0.52415830  0.19533635  1  0  -0.856315  0  1.780272  0  0  -0.807604  0  1.959049  0  0  -0.827882  0  1.931051  0  -1.237803  0  -0.605441  -0.793041  0  1.978596  0
O  O98  1  0.68016379  0.02414910  0.69534085  1  0  -0.85631  0  1.780345  0  0  -0.807573  0  1.959133  0  0  -0.827857  0  1.931138  0  -1.237734  0  -0.605444  -0.793011  0  1.978679  0
O  O99  1  0.18016617  0.47584692  0.80466258  1  0  -0.856288  0  1.780343  0  0  -0.807587  0  1.959119  0  0  -0.827868  0  1.931124  0  -1.237821  0  -0.605486  -0.793024  0  1.97866  0
O  O100  1  0.64619181  0.82915301  0.39007360  1  0  -0.293571  0  2.42428  0  0  -0.213919  0  2.656289  0  0  -0.232873  0  2.661804  0  -1.095235  0  -0.184822  -0.200279  0  2.65208  0
O  O101  1  0.14619564  0.67084427  0.10992912  1  0  -0.293584  0  2.42435  0  0  -0.213862  0  2.656299  0  0  -0.232817  0  2.661819  0  -1.095178  0  -0.184841  -0.200219  0  2.652061  0
O  O102  1  0.35380775  0.17084035  0.60993070  1  0  -0.293596  0  2.424346  0  0  -0.21385  0  2.656319  0  0  -0.232821  0  2.661818  0  -1.095499  0  -0.18486  -0.200208  0  2.652096  0
O  O103  1  0.85380105  0.32915435  0.89006840  1  0  -0.293583  0  2.424365  0  0  -0.21385  0  2.656344  0  0  -0.2328  0  2.661873  0  -1.094989  0  -0.184956  -0.200214  0  2.652132  0
O  O104  1  0.68688171  0.81419516  0.27679224  1  0  -0.70495  0  2.015374  0  0  -0.643478  0  2.260632  0  0  -0.671694  0  2.251637  0  -1.213866  0  -0.354413  -0.623502  0  2.266088  0
O  O105  1  0.18687543  0.68579027  0.22320983  1  0  -0.704812  0  2.015239  0  0  -0.643368  0  2.260597  0  0  -0.671552  0  2.251533  0  -1.213494  0  -0.35436  -0.623393  0  2.266073  0
O  O106  1  0.31311930  0.18579161  0.72320720  1  0  -0.704839  0  2.015444  0  0  -0.643367  0  2.260737  0  0  -0.671554  0  2.25168  0  -1.213813  0  -0.354352  -0.623392  0  2.266196  0
O  O107  1  0.81312269  0.31420836  0.77678813  1  0  -0.7048  0  2.015205  0  0  -0.643319  0  2.260523  0  0  -0.671498  0  2.251454  0  -1.21363  0  -0.354357  -0.623374  0  2.266059  0
O  O108  1  0.94094648  0.99481818  0.27927900  1  0  -0.68779  0  1.955407  0  0  -0.626665  0  2.179391  0  0  -0.653758  0  2.167582  0  -1.215481  0  -0.346495  -0.607558  0  2.186916  0
O  O109  1  0.44094598  0.50517121  0.22072099  1  0  -0.687859  0  1.955464  0  0  -0.626716  0  2.179477  0  0  -0.653809  0  2.167666  0  -1.215561  0  -0.346506  -0.607616  0  2.187007  0
O  O110  1  0.05905164  0.00517255  0.72072440  1  0  -0.687955  0  1.955365  0  0  -0.626836  0  2.179359  0  0  -0.653933  0  2.167553  0  -1.215654  0  -0.34666  -0.607733  0  2.186886  0
O  O111  1  0.55905504  0.49482742  0.77927567  1  0  -0.687861  0  1.955371  0  0  -0.626752  0  2.179397  0  0  -0.653845  0  2.167585  0  -1.215626  0  -0.346618  -0.607647  0  2.186926  0
O  O112  1  0.34842303  0.66178737  0.42554945  1  0  -0.312462  0  2.423324  0  0  -0.233298  0  2.657411  0  0  -0.252463  0  2.662366  0  -1.100502  0  -0.194041  -0.219409  0  2.653503  0
O  O113  1  0.84841920  0.83821386  0.07445378  1  0  -0.312463  0  2.423415  0  0  -0.233335  0  2.657476  0  0  -0.252543  0  2.662459  0  -1.100379  0  -0.194052  -0.219444  0  2.653565  0
O  O114  1  0.65157943  0.33820730  0.57445187  1  0  -0.312561  0  2.423287  0  0  -0.233373  0  2.657381  0  0  -0.252573  0  2.662351  0  -1.100539  0  -0.194075  -0.219484  0  2.653474  0
O  O115  1  0.15158325  0.16179267  0.92554691  1  0  -0.312603  0  2.423341  0  0  -0.233447  0  2.657449  0  0  -0.252633  0  2.66241  0  -1.100589  0  -0.194104  -0.219557  0  2.653541  0
O  O116  1  0.11328416  0.55710877  0.34143973  1  0  -0.704094  0  1.931082  0  0  -0.650356  0  2.171231  0  0  -0.675493  0  2.158923  0  -1.215404  0  -0.386219  -0.632469  0  2.179115  0
O  O117  1  0.61329044  0.94289774  0.15856231  1  0  -0.704083  0  1.931061  0  0  -0.650242  0  2.171333  0  0  -0.675377  0  2.159024  0  -1.215453  0  -0.386172  -0.632349  0  2.179217  0
O  O118  1  0.88671685  0.44289381  0.65856260  1  0  -0.704042  0  1.931072  0  0  -0.650217  0  2.171323  0  0  -0.675356  0  2.159019  0  -1.215459  0  -0.386162  -0.632326  0  2.179206  0
O  O119  1  0.38670625  0.05709826  0.84143731  1  0  -0.704122  0  1.930949  0  0  -0.650343  0  2.171178  0  0  -0.675483  0  2.158868  0  -1.215427  0  -0.386243  -0.632455  0  2.17906  0
O  O120  1  0.90200677  0.43734587  0.40206604  1  0  -0.622655  0  1.971511  0  0  -0.567352  0  2.198087  0  0  -0.593716  0  2.188535  0  -1.194523  0  -0.315517  -0.548891  0  2.204145  0
O  O121  1  0.40200337  0.06265674  0.09793666  1  0  -0.622752  0  1.971336  0  0  -0.567403  0  2.198078  0  0  -0.59376  0  2.188506  0  -1.194559  0  -0.315523  -0.548942  0  2.204138  0
O  O122  1  0.09799569  0.56264486  0.59793563  1  0  -0.622749  0  1.971374  0  0  -0.567375  0  2.198062  0  0  -0.59373  0  2.188494  0  -1.194599  0  -0.315502  -0.548912  0  2.204122  0
O  O123  1  0.59799764  0.93734847  0.90206314  1  0  -0.622707  0  1.971491  0  0  -0.567385  0  2.198166  0  0  -0.593739  0  2.188588  0  -1.194567  0  -0.315509  -0.548925  0  2.204227  0
