# generated using pymatgen
data_FeH18Au2(C13N3)2
_symmetry_space_group_name_H-M   'P 1'
_cell_length_a   10.10289783
_cell_length_b   10.10284956
_cell_length_c   13.93536509
_cell_angle_alpha   103.14974066
_cell_angle_beta   106.81612667
_cell_angle_gamma   106.69669240
_symmetry_Int_Tables_number   1
_chemical_formula_structural   FeH18Au2(C13N3)2
_chemical_formula_sum   'Fe2 H36 Au4 C52 N12'
_cell_volume   1227.01376905
_cell_formula_units_Z   2
loop_
 _symmetry_equiv_pos_site_id
 _symmetry_equiv_pos_as_xyz
  1  'x, y, z'
loop_
 _atom_site_type_symbol
 _atom_site_label
 _atom_site_symmetry_multiplicity
 _atom_site_fract_x
 _atom_site_fract_y
 _atom_site_fract_z
 _atom_site_occupancy
 _atom_site_hle17_bader_spin_density
 _atom_site_hle17_ddec_charge
 _atom_site_hle17_ddec_spin_density
 _atom_site_hle17_ddec_sum_bond_order
 _atom_site_hle17_magmom
 _atom_site_hse06_10hf_bader_spin_density
 _atom_site_hse06_10hf_ddec_charge
 _atom_site_hse06_10hf_ddec_spin_density
 _atom_site_hse06_10hf_ddec_sum_bond_order
 _atom_site_hse06_10hf_magmom
 _atom_site_hse06_bader_spin_density
 _atom_site_hse06_ddec_charge
 _atom_site_hse06_ddec_spin_density
 _atom_site_hse06_ddec_sum_bond_order
 _atom_site_hse06_magmom
 _atom_site_pbe_bader_spin_density
 _atom_site_pbe_cm5_charge
 _atom_site_pbe_ddec_charge
 _atom_site_pbe_ddec_spin_density
 _atom_site_pbe_ddec_sum_bond_order
 _atom_site_pbe_magmom
Fe  Fe0  1  0.00000000  0.00000000  0.00000000  1  0  0.587225  0  3.499318  0  0  0.583256  0  3.961048  0  0  0.610051  0  3.918287  0  0  0.907875  0.574574  0  3.979953  0
Fe  Fe1  1  0.49999998  0.99999989  0.49999978  1  0  0.586645  0  3.495277  0  0  0.582703  0  3.95682  0  0  0.609503  0  3.914227  0  0  0.908248  0.573904  0  3.975892  0
H  H2  1  0.44753295  0.90229802  0.20092713  1  0  0.105289  0  0.953614  0  0  0.114145  0  1.01432  0  0  0.115702  0  1.015317  0  0  0.106415  0.112845  0  1.014094  0
H  H3  1  0.20116733  0.24628762  0.29889401  1  0  0.104586  0  0.954892  0  0  0.113605  0  1.015432  0  0  0.115155  0  1.016445  0  0  0.1061  0.112303  0  1.015193  0
H  H4  1  0.55246713  0.09770185  0.79907303  1  0  0.105286  0  0.953614  0  0  0.114134  0  1.01433  0  0  0.11569  0  1.015328  0  0  0.106416  0.112835  0  1.014105  0
H  H5  1  0.79883317  0.75371335  0.70110569  1  0  0.104592  0  0.954886  0  0  0.113602  0  1.015442  0  0  0.115153  0  1.016456  0  0  0.1061  0.112299  0  1.015204  0
H  H6  1  0.17768519  0.86227273  0.12335069  1  0  0.086017  0  0.937487  0  0  0.092163  0  1.00451  0  0  0.093435  0  1.00292  0  0  0.119703  0.091377  0  1.005556  0
H  H7  1  0.23893992  0.05421500  0.37662296  1  0  0.086087  0  0.937052  0  0  0.092033  0  1.004227  0  0  0.093305  0  1.00263  0  0  0.119553  0.091276  0  1.00522  0
H  H8  1  0.82231488  0.13772714  0.87664947  1  0  0.086005  0  0.937492  0  0  0.092147  0  1.004515  0  0  0.09342  0  1.002925  0  0  0.119704  0.091362  0  1.005562  0
H  H9  1  0.76105913  0.94578486  0.62337554  1  0  0.086088  0  0.937082  0  0  0.092034  0  1.00425  0  0  0.093306  0  1.002652  0  0  0.119553  0.091276  0  1.005245  0
H  H10  1  0.63829443  0.11356606  0.18906708  1  0  0.085333  0  0.97222  0  0  0.091542  0  1.048635  0  0  0.094641  0  1.044701  0  0  0.095156  0.08938  0  1.051583  0
H  H11  1  0.42430108  0.44904141  0.31082605  1  0  0.084603  0  0.972971  0  0  0.090736  0  1.049447  0  0  0.093848  0  1.045511  0  0  0.094909  0.08857  0  1.052409  0
H  H12  1  0.36170565  0.88643381  0.81093236  1  0  0.085333  0  0.972223  0  0  0.091547  0  1.048635  0  0  0.094641  0  1.044705  0  0  0.095167  0.089383  0  1.051584  0
H  H13  1  0.57570046  0.55095956  0.68917388  1  0  0.084609  0  0.972974  0  0  0.09074  0  1.049447  0  0  0.093852  0  1.045513  0  0  0.094911  0.088574  0  1.052408  0
H  H14  1  0.27559981  0.22209416  0.02315852  1  0  0.08621  0  0.96771  0  0  0.094006  0  1.03441  0  0  0.094656  0  1.034291  0  0  0.120137  0.093291  0  1.03502  0
H  H15  1  0.69894004  0.25253245  0.47683047  1  0  0.086947  0  0.967955  0  0  0.094387  0  1.034722  0  0  0.095082  0  1.034554  0  0  0.120599  0.093673  0  1.035324  0
H  H16  1  0.72439984  0.77790461  0.97684065  1  0  0.086228  0  0.967687  0  0  0.094025  0  1.034385  0  0  0.094676  0  1.034266  0  0  0.120144  0.09331  0  1.034994  0
H  H17  1  0.30106004  0.74746743  0.52317041  1  0  0.086952  0  0.967956  0  0  0.094392  0  1.034725  0  0  0.095086  0  1.034559  0  0  0.120601  0.093678  0  1.035326  0
H  H18  1  0.71450248  0.21531658  0.05467078  1  0  0.091011  0  0.964921  0  0  0.102178  0  1.023996  0  0  0.104398  0  1.024678  0  0  0.095925  0.100598  0  1.023831  0
H  H19  1  0.66048833  0.65982485  0.44531571  1  0  0.092405  0  0.964575  0  0  0.10347  0  1.023529  0  0  0.10569  0  1.024207  0  0  0.096371  0.101872  0  1.023365  0
H  H20  1  0.28549906  0.78468439  0.94532986  1  0  0.091005  0  0.964926  0  0  0.102175  0  1.024002  0  0  0.104395  0  1.024684  0  0  0.095926  0.100592  0  1.023841  0
H  H21  1  0.33951218  0.34017612  0.55468400  1  0  0.092411  0  0.964579  0  0  0.103486  0  1.023522  0  0  0.105707  0  1.024201  0  0  0.09637  0.101888  0  1.023358  0
H  H22  1  0.85014484  0.67519600  0.09379130  1  0  0.086517  0  0.970795  0  0  0.094784  0  1.035249  0  0  0.096587  0  1.036081  0  0  0.093451  0.093733  0  1.034281  0
H  H23  1  0.08121916  0.75622369  0.40617699  1  0  0.084409  0  0.973216  0  0  0.09294  0  1.037506  0  0  0.094826  0  1.038252  0  0  0.092529  0.091863  0  1.036552  0
H  H24  1  0.14985524  0.32480388  0.90620885  1  0  0.086516  0  0.970801  0  0  0.094782  0  1.035257  0  0  0.096586  0  1.036088  0  0  0.093448  0.093732  0  1.034288  0
H  H25  1  0.91878092  0.24377618  0.59382317  1  0  0.084423  0  0.973193  0  0  0.092953  0  1.037483  0  0  0.094839  0  1.038229  0  0  0.092534  0.091877  0  1.036528  0
H  H26  1  0.88333961  0.43812720  0.04284486  1  0  0.065009  0  1.005188  0  0  0.069581  0  1.083014  0  0  0.072456  0  1.080257  0  0  0.078577  0.068311  0  1.083656  0
H  H27  1  0.89525122  0.84045152  0.45720011  1  0  0.064913  0  1.004573  0  0  0.069529  0  1.082324  0  0  0.072379  0  1.079586  0  0  0.078298  0.068139  0  1.083247  0
H  H28  1  0.11666150  0.56187267  0.95715480  1  0  0.065023  0  1.005139  0  0  0.069605  0  1.082952  0  0  0.072479  0  1.080196  0  0  0.078583  0.068334  0  1.083593  0
H  H29  1  0.10475031  0.15954945  0.54279981  1  0  0.064938  0  1.004553  0  0  0.069561  0  1.082288  0  0  0.072409  0  1.079551  0  0  0.078296  0.068171  0  1.08321  0
H  H30  1  0.63699041  0.68500679  0.14734344  1  0  0.075962  0  0.965185  0  0  0.083709  0  1.033355  0  0  0.08676  0  1.031032  0  0  0.087967  0.081717  0  1.034811  0
H  H31  1  0.03747355  0.48953766  0.35258376  1  0  0.076117  0  0.96542  0  0  0.084423  0  1.032902  0  0  0.087451  0  1.030618  0  0  0.088482  0.082489  0  1.034277  0
H  H32  1  0.36300967  0.31499308  0.85265672  1  0  0.075968  0  0.965234  0  0  0.083715  0  1.033403  0  0  0.086767  0  1.031077  0  0  0.087975  0.081724  0  1.034858  0
H  H33  1  0.96252695  0.51046331  0.64741667  1  0  0.076106  0  0.965428  0  0  0.084421  0  1.032898  0  0  0.08745  0  1.030614  0  0  0.088479  0.082486  0  1.034273  0
H  H34  1  0.45957027  0.45947631  0.14942285  1  0  0.076602  0  0.97702  0  0  0.083621  0  1.050941  0  0  0.086276  0  1.049085  0  0  0.091066  0.081546  0  1.052589  0
H  H35  1  0.80980490  0.31003519  0.35048890  1  0  0.075136  0  0.977484  0  0  0.08242  0  1.051213  0  0  0.08511  0  1.049309  0  0  0.091114  0.080287  0  1.052924  0
H  H36  1  0.54042939  0.54052246  0.85057632  1  0  0.076591  0  0.977017  0  0  0.083584  0  1.050963  0  0  0.086236  0  1.049112  0  0  0.091056  0.081509  0  1.052612  0
H  H37  1  0.19019518  0.68996469  0.64951126  1  0  0.075122  0  0.9775  0  0  0.08241  0  1.051224  0  0  0.085099  0  1.049321  0  0  0.091108  0.080276  0  1.052935  0
Au  Au38  1  0.18425857  0.53490357  0.19801897  1  0  0.121923  0  2.337145  0  0  0.070294  0  2.789244  0  0  0.082459  0  2.751552  0  0  0.305554  0.060621  0  2.816994  0
Au  Au39  1  0.83677869  0.98624591  0.30193437  1  0  0.121774  0  2.335525  0  0  0.070194  0  2.787695  0  0  0.082326  0  2.750022  0  0  0.30577  0.060751  0  2.815281  0
Au  Au40  1  0.81574316  0.46509521  0.80198136  1  0  0.121924  0  2.33711  0  0  0.070296  0  2.789209  0  0  0.08246  0  2.751516  0  0  0.305553  0.060623  0  2.816956  0
Au  Au41  1  0.16322035  0.01375396  0.69806557  1  0  0.121784  0  2.3355  0  0  0.070199  0  2.787675  0  0  0.082326  0  2.750002  0  0  0.305793  0.060755  0  2.815259  0
C  C42  1  0.09154206  0.32839229  0.10438753  1  0  0.026785  0  3.562414  0  0  0.036566  0  3.908893  0  0  0.043984  0  3.913359  0  0  0.000449  0.031733  0  3.906823  0
C  C43  1  0.72408521  0.98719814  0.39568154  1  0  0.026838  0  3.559197  0  0  0.036587  0  3.905545  0  0  0.044005  0  3.909987  0  0  6.2e-05  0.031674  0  3.903549  0
C  C44  1  0.90845966  0.67160649  0.89561351  1  0  0.026799  0  3.562421  0  0  0.036578  0  3.908912  0  0  0.043996  0  3.913378  0  0  0.000455  0.031744  0  3.90684  0
C  C45  1  0.27591341  0.01280063  0.60431742  1  0  0.026891  0  3.559296  0  0  0.036641  0  3.905644  0  0  0.044059  0  3.910084  0  0  5.8e-05  0.031727  0  3.903644  0
C  C46  1  0.57556809  0.32184011  0.10305926  1  0  0.043436  0  3.798964  0  0  0.059792  0  4.02405  0  0  0.059591  0  4.049701  0  0  -0.013436  0.060017  0  4.00656  0
C  C47  1  0.71852104  0.47244683  0.39678920  1  0  0.044654  0  3.800187  0  0  0.062808  0  4.02379  0  0  0.062698  0  4.04932  0  0  -0.011368  0.06301  0  4.006291  0
C  C48  1  0.42443199  0.67815975  0.89693946  1  0  0.043402  0  3.799044  0  0  0.059772  0  4.024114  0  0  0.05957  0  4.049767  0  0  -0.013421  0.059997  0  4.006624  0
C  C49  1  0.28147843  0.52755414  0.60321101  1  0  0.044713  0  3.800069  0  0  0.062841  0  4.023717  0  0  0.062727  0  4.049249  0  0  -0.011361  0.063043  0  4.006219  0
C  C50  1  0.41408823  0.97567668  0.16169352  1  0  -0.106521  0  3.754525  0  0  -0.118142  0  4.007652  0  0  -0.125404  0  4.031216  0  0  -0.081487  -0.113186  0  3.992251  0
C  C51  1  0.31379370  0.25209186  0.33810100  1  0  -0.107256  0  3.754626  0  0  -0.119241  0  4.008098  0  0  -0.126489  0  4.031611  0  0  -0.082547  -0.114337  0  3.992828  0
C  C52  1  0.58591289  0.02432319  0.83830686  1  0  -0.106554  0  3.754491  0  0  -0.118177  0  4.007637  0  0  -0.125438  0  4.031198  0  0  -0.081502  -0.113224  0  3.99224  0
C  C53  1  0.68620577  0.74790911  0.66189849  1  0  -0.10726  0  3.75464  0  0  -0.119242  0  4.008101  0  0  -0.126492  0  4.031615  0  0  -0.082528  -0.114335  0  3.992825  0
C  C54  1  0.26330108  0.95233101  0.11897734  1  0  0.111781  0  3.658745  0  0  0.078387  0  3.920121  0  0  0.087077  0  3.936981  0  0  0.046796  0.072033  0  3.908891  0
C  C55  1  0.33334354  0.14418106  0.38093084  1  0  0.112041  0  3.656965  0  0  0.079171  0  3.917949  0  0  0.087889  0  3.934784  0  0  0.047534  0.072855  0  3.906759  0
C  C56  1  0.73670045  0.04766997  0.88102402  1  0  0.111826  0  3.658721  0  0  0.078435  0  3.920082  0  0  0.087125  0  3.936941  0  0  0.0468  0.072078  0  3.908855  0
C  C57  1  0.66665696  0.85581991  0.61906887  1  0  0.11206  0  3.657104  0  0  0.079201  0  3.918078  0  0  0.087922  0  3.934909  0  0  0.04755  0.072885  0  3.906887  0
C  C58  1  0.51961436  0.09350802  0.15519779  1  0  -0.061575  0  3.704918  0  0  -0.087857  0  3.952955  0  0  -0.084915  0  3.97204  0  0  -0.073046  -0.089944  0  3.940532  0
C  C59  1  0.43809408  0.36419487  0.34465420  1  0  -0.058572  0  3.702421  0  0  -0.083881  0  3.950801  0  0  -0.080932  0  3.969855  0  0  -0.070302  -0.086007  0  3.938466  0
C  C60  1  0.48038426  0.90649075  0.84480189  1  0  -0.061514  0  3.704869  0  0  -0.087797  0  3.952889  0  0  -0.084853  0  3.971976  0  0  -0.07303  -0.089884  0  3.940467  0
C  C61  1  0.56190497  0.63580501  0.65534574  1  0  -0.058559  0  3.702412  0  0  -0.083862  0  3.950792  0  0  -0.080915  0  3.969847  0  0  -0.070284  -0.085987  0  3.938457  0
C  C62  1  0.31812194  0.15471029  0.06418374  1  0  0.072896  0  3.631903  0  0  0.035963  0  3.880938  0  0  0.044201  0  3.897874  0  0  0.048942  0.030534  0  3.870443  0
C  C63  1  0.59048393  0.25395013  0.43579105  1  0  0.071167  0  3.636024  0  0  0.035622  0  3.885209  0  0  0.043872  0  3.90208  0  0  0.048012  0.030207  0  3.874703  0
C  C64  1  0.68187565  0.84528847  0.93581500  1  0  0.072869  0  3.631899  0  0  0.035914  0  3.880935  0  0  0.044154  0  3.89787  0  0  0.048926  0.030488  0  3.87044  0
C  C65  1  0.40951615  0.74604975  0.56420911  1  0  0.071146  0  3.636009  0  0  0.035605  0  3.88521  0  0  0.043857  0  3.902077  0  0  0.048015  0.030189  0  3.874702  0
C  C66  1  0.47184844  0.18862091  0.10763182  1  0  0.014076  0  3.783634  0  0  0.035509  0  4.010127  0  0  0.03031  0  4.035062  0  0  0.002762  0.038821  0  3.993514  0
C  C67  1  0.58081284  0.36412348  0.39227062  1  0  0.013764  0  3.785288  0  0  0.032424  0  4.014777  0  0  0.027165  0  4.039729  0  0  1e-05  0.035739  0  3.998168  0
C  C68  1  0.52815121  0.81137786  0.89236807  1  0  0.014041  0  3.783773  0  0  0.035489  0  4.010243  0  0  0.03029  0  4.035178  0  0  0.002743  0.0388  0  3.993629  0
C  C69  1  0.41918869  0.63587749  0.60773002  1  0  0.013759  0  3.785229  0  0  0.03242  0  4.014738  0  0  0.027165  0  4.039684  0  0  -1e-06  0.035735  0  3.998129  0
C  C70  1  0.69688550  0.31799171  0.07438528  1  0  -0.110532  0  3.738911  0  0  -0.12577  0  3.975441  0  0  -0.129397  0  3.999136  0  0  -0.093501  -0.123138  0  3.959414  0
C  C71  1  0.74337968  0.62245912  0.42552702  1  0  -0.114681  0  3.7444  0  0  -0.130245  0  3.980521  0  0  -0.133904  0  4.004195  0  0  -0.095869  -0.127538  0  3.964356  0
C  C72  1  0.30311458  0.68200817  0.92561488  1  0  -0.110484  0  3.73898  0  0  -0.125734  0  3.975506  0  0  -0.129359  0  3.999201  0  0  -0.093495  -0.123101  0  3.959477  0
C  C73  1  0.25662082  0.37754185  0.57447341  1  0  -0.114665  0  3.744405  0  0  -0.130227  0  3.980529  0  0  -0.133888  0  4.004209  0  0  -0.095856  -0.12752  0  3.964366  0
C  C74  1  0.77251136  0.57642076  0.09581294  1  0  -0.083243  0  3.777206  0  0  -0.096017  0  4.023383  0  0  -0.099597  0  4.048838  0  0  -0.099101  -0.093286  0  4.005827  0
C  C75  1  0.98033842  0.67654184  0.40405393  1  0  -0.078278  0  3.776168  0  0  -0.090815  0  4.021619  0  0  -0.094425  0  4.04703  0  0  -0.095853  -0.088114  0  4.004144  0
C  C76  1  0.22748872  0.42357911  0.90418650  1  0  -0.08323  0  3.777229  0  0  -0.096006  0  4.023419  0  0  -0.099586  0  4.048872  0  0  -0.099093  -0.093276  0  4.005864  0
C  C77  1  0.01966208  0.32345913  0.59594649  1  0  -0.078306  0  3.776165  0  0  -0.090843  0  4.02161  0  0  -0.094452  0  4.04702  0  0  -0.095888  -0.088141  0  4.004136  0
C  C78  1  0.79234320  0.44370585  0.06843676  1  0  -0.082028  0  3.829427  0  0  -0.094418  0  4.081335  0  0  -0.097545  0  4.105539  0  0  -0.104534  -0.092367  0  4.064971  0
C  C79  1  0.87508669  0.72382454  0.43152477  1  0  -0.081702  0  3.830308  0  0  -0.094331  0  4.082473  0  0  -0.097437  0  4.106724  0  0  -0.104295  -0.092286  0  4.066017  0
C  C80  1  0.20765730  0.55629511  0.93156222  1  0  -0.082083  0  3.829474  0  0  -0.09448  0  4.081388  0  0  -0.097607  0  4.105594  0  0  -0.104559  -0.092428  0  4.065024  0
C  C81  1  0.12491484  0.27617643  0.56847659  1  0  -0.081753  0  3.830318  0  0  -0.094385  0  4.082493  0  0  -0.09749  0  4.106742  0  0  -0.104266  -0.09234  0  4.066037  0
C  C82  1  0.65322283  0.58172511  0.12572745  1  0  -0.053382  0  3.782454  0  0  -0.061147  0  4.021704  0  0  -0.063713  0  4.045777  0  0  -0.090631  -0.059209  0  4.004472  0
C  C83  1  0.95574409  0.52735108  0.37411922  1  0  -0.056535  0  3.783347  0  0  -0.06534  0  4.023986  0  0  -0.067946  0  4.048135  0  0  -0.093405  -0.063446  0  4.006863  0
C  C84  1  0.34677579  0.41827367  0.87427222  1  0  -0.053405  0  3.782536  0  0  -0.061163  0  4.021777  0  0  -0.063726  0  4.045846  0  0  -0.09065  -0.059224  0  4.004545  0
C  C85  1  0.04425599  0.47264880  0.62588093  1  0  -0.05652  0  3.783344  0  0  -0.065322  0  4.023972  0  0  -0.067929  0  4.04812  0  0  -0.093404  -0.063429  0  4.006849  0
C  C86  1  0.55388404  0.45488205  0.12751378  1  0  -0.10681  0  3.736506  0  0  -0.122446  0  3.974048  0  0  -0.125584  0  3.997456  0  0  -0.089516  -0.119811  0  3.957658  0
C  C87  1  0.82708829  0.42625831  0.37232243  1  0  -0.104075  0  3.73451  0  0  -0.119977  0  3.971526  0  0  -0.123159  0  3.994946  0  0  -0.088869  -0.1173  0  3.955222  0
C  C88  1  0.44611707  0.54511782  0.87248587  1  0  -0.106775  0  3.736485  0  0  -0.1224  0  3.974044  0  0  -0.125535  0  3.997453  0  0  -0.089508  -0.119764  0  3.957655  0
C  C89  1  0.17291264  0.57374376  0.62767898  1  0  -0.1041  0  3.734499  0  0  -0.120009  0  3.971545  0  0  -0.123189  0  3.994963  0  0  -0.088877  -0.117332  0  3.955239  0
C  C90  1  0.92908343  0.98480752  0.19582676  1  0  0.020153  0  3.573975  0  0  0.027551  0  3.925811  0  0  0.035812  0  3.92857  0  0  -0.006052  0.022025  0  3.92482  0
C  C91  1  0.28882840  0.73341501  0.30405818  1  0  0.019251  0  3.57787  0  0  0.026762  0  3.929556  0  0  0.035006  0  3.932326  0  0  -0.006102  0.02118  0  3.928644  0
C  C92  1  0.07091397  0.01519345  0.80417229  1  0  0.020243  0  3.573936  0  0  0.027648  0  3.925767  0  0  0.035908  0  3.928526  0  0  -0.006011  0.02212  0  3.924777  0
C  C93  1  0.71117083  0.26658267  0.69594144  1  0  0.019191  0  3.577792  0  0  0.026698  0  3.929481  0  0  0.034939  0  3.932247  0  0  -0.006141  0.021118  0  3.928568  0
N  N94  1  0.04581616  0.20247661  0.05664049  1  0  -0.326365  0  3.35151  0  0  -0.299108  0  3.642573  0  0  -0.313493  0  3.657424  0  0  -0.384723  -0.291089  0  3.631582  0
N  N95  1  0.64586803  0.98915201  0.44339155  1  0  -0.324943  0  3.34755  0  0  -0.297477  0  3.63834  0  0  -0.311882  0  3.653204  0  0  -0.383849  -0.289455  0  3.627382  0
N  N96  1  0.95418392  0.79752327  0.94336038  1  0  -0.326368  0  3.351542  0  0  -0.299114  0  3.642606  0  0  -0.313497  0  3.657458  0  0  -0.384712  -0.291093  0  3.631614  0
N  N97  1  0.35412998  0.01084787  0.55660817  1  0  -0.325005  0  3.347636  0  0  -0.29754  0  3.638425  0  0  -0.311944  0  3.653288  0  0  -0.383851  -0.289517  0  3.627467  0
N  N98  1  0.21559017  0.03932021  0.06880023  1  0  -0.207114  0  3.370908  0  0  -0.158322  0  3.640657  0  0  -0.180939  0  3.662146  0  0  -0.327996  -0.14388  0  3.625311  0
N  N99  1  0.47053665  0.14677247  0.43118568  1  0  -0.207674  0  3.370422  0  0  -0.159391  0  3.640113  0  0  -0.182052  0  3.661585  0  0  -0.328097  -0.144986  0  3.624847  0
N  N100  1  0.78440991  0.96067966  0.93119993  1  0  -0.207114  0  3.370865  0  0  -0.158297  0  3.640583  0  0  -0.180914  0  3.662073  0  0  -0.327987  -0.143855  0  3.625238  0
N  N101  1  0.52946343  0.85322741  0.56881448  1  0  -0.207696  0  3.370502  0  0  -0.159436  0  3.640213  0  0  -0.182097  0  3.661683  0  0  -0.328143  -0.145027  0  3.624942  0
N  N102  1  0.96665588  0.98426362  0.12370733  1  0  -0.325074  0  3.351443  0  0  -0.298344  0  3.645087  0  0  -0.312925  0  3.659869  0  0  -0.382941  -0.290033  0  3.633956  0
N  N103  1  0.36049794  0.84301915  0.37626037  1  0  -0.324279  0  3.353329  0  0  -0.297619  0  3.646827  0  0  -0.312202  0  3.661604  0  0  -0.3828  -0.289304  0  3.635725  0
N  N104  1  0.03334358  0.01573735  0.87629215  1  0  -0.325156  0  3.351428  0  0  -0.298433  0  3.645081  0  0  -0.31301  0  3.659862  0  0  -0.382977  -0.29012  0  3.633951  0
N  N105  1  0.63950256  0.15698182  0.62374005  1  0  -0.324218  0  3.353275  0  0  -0.297556  0  3.64677  0  0  -0.312136  0  3.661542  0  0  -0.382766  -0.289242  0  3.635668  0
