# generated using pymatgen
data_MnCuH17C13(NO3)3
_symmetry_space_group_name_H-M   'P 1'
_cell_length_a   9.37643633
_cell_length_b   9.56266350
_cell_length_c   10.73685569
_cell_angle_alpha   82.05746625
_cell_angle_beta   71.63221739
_cell_angle_gamma   82.44339914
_symmetry_Int_Tables_number   1
_chemical_formula_structural   MnCuH17C13(NO3)3
_chemical_formula_sum   'Mn2 Cu2 H34 C26 N6 O18'
_cell_volume   900.92389572
_cell_formula_units_Z   2
loop_
 _symmetry_equiv_pos_site_id
 _symmetry_equiv_pos_as_xyz
  1  'x, y, z'
loop_
 _atom_site_type_symbol
 _atom_site_label
 _atom_site_symmetry_multiplicity
 _atom_site_fract_x
 _atom_site_fract_y
 _atom_site_fract_z
 _atom_site_occupancy
 _atom_site_hle17_ddec_charge
 _atom_site_hle17_ddec_spin_density
 _atom_site_hle17_ddec_sum_bond_order
 _atom_site_hle17_magmom
 _atom_site_hse06_10hf_ddec_charge
 _atom_site_hse06_10hf_ddec_spin_density
 _atom_site_hse06_10hf_ddec_sum_bond_order
 _atom_site_hse06_10hf_magmom
 _atom_site_hse06_ddec_charge
 _atom_site_hse06_ddec_spin_density
 _atom_site_hse06_ddec_sum_bond_order
 _atom_site_hse06_magmom
 _atom_site_pbe_cm5_charge
 _atom_site_pbe_ddec_charge
 _atom_site_pbe_ddec_spin_density
 _atom_site_pbe_ddec_sum_bond_order
 _atom_site_pbe_magmom
Mn  Mn0  1  0.16039545  0.00706516  0.73923496  1  1.260023  4.679135  1.674977  4.673  1.109078  4.532196  2.159575  4.541  1.16116  4.545326  2.087502  4.608  0.606298  1.079911  4.471284  2.211665  4.443
Mn  Mn1  1  0.83984304  0.99303653  0.25868198  1  1.259294  -4.678701  1.673427  -4.673  1.108162  -4.532072  2.157415  -4.542  1.160626  -4.544478  2.085262  -4.608  0.606176  1.078299  -4.473166  2.20963  -4.444
Cu  Cu2  1  0.01298910  0.57951990  0.65823685  1  0.79945  -0.749795  1.864948  -0.482  0.756026  -0.892458  2.276659  -0.582  0.844171  -1.018884  2.212468  -0.67  0.723352  0.693747  -0.777887  2.32642  -0.507
Cu  Cu3  1  0.98718934  0.42060828  0.34209841  1  0.79982  0.749401  1.863114  0.482  0.755689  0.892041  2.275393  0.582  0.842716  1.01765  2.21242  0.67  0.723956  0.694005  0.779108  2.324557  0.508
H  H4  1  0.88968862  0.81393250  0.74141596  1  0.303359  -0.000621  0.925731  0.001  0.293371  -0.001335  0.981358  0.0  0.301329  -0.001048  0.975971  0.0  0.294617  0.286725  -0.001379  0.986708  0.0
H  H5  1  0.11125498  0.18556028  0.26193822  1  0.302572  0.000593  0.9286  -0.001  0.293784  0.001278  0.982199  0.0  0.301724  0.001001  0.976905  0.0  0.294446  0.287204  0.001316  0.987393  0.0
H  H6  1  0.76981956  0.73892596  0.69366570  1  0.286314  0.000753  0.881333  0.001  0.285782  -0.000349  0.927789  0.0  0.291313  -2.6e-05  0.925547  0.001  0.298588  0.28121  -0.000527  0.93073  0.0
H  H7  1  0.23047007  0.26188506  0.30955855  1  0.28754  -0.000731  0.884299  -0.001  0.286028  0.000379  0.931956  0.0  0.29154  5e-05  0.929739  0.0  0.298308  0.281474  0.000558  0.934848  0.0
H  H8  1  0.42511992  0.11644113  0.72388714  1  0.422702  -0.000347  0.836221  0.0  0.399687  0.000193  0.903227  0.001  0.4073  -1.1e-05  0.894925  0.001  0.316129  0.394892  0.000388  0.908366  0.001
H  H9  1  0.57273213  0.88594744  0.28020105  1  0.423749  0.000343  0.833629  0.0  0.400646  -0.000207  0.900485  -0.001  0.4083  -1e-06  0.892146  -0.001  0.316379  0.395782  -0.0004  0.905714  -0.001
H  H10  1  0.43132090  0.95243185  0.74487856  1  0.427252  -0.000573  0.835262  0.0  0.405088  -9.7e-05  0.89812  0.0  0.414502  -0.000254  0.884245  0.0  0.315729  0.399082  2.6e-05  0.905387  0.001
H  H11  1  0.56909711  0.05009565  0.26051009  1  0.426014  0.000543  0.840427  0.0  0.402806  5.7e-05  0.903669  0.0  0.412469  0.000208  0.889424  0.0  0.312909  0.396605  -6.1e-05  0.912717  -0.001
H  H12  1  0.03530247  0.85717032  0.00259579  1  0.432375  0.001323  0.865466  0.002  0.400831  0.001966  0.929594  0.003  0.411915  0.001662  0.913585  0.003  0.298909  0.39368  0.002138  0.939761  0.004
H  H13  1  0.96465324  0.14315024  0.99587022  1  0.432804  -0.001331  0.865184  -0.002  0.401826  -0.001977  0.928518  -0.003  0.41291  -0.00167  0.912462  -0.003  0.299756  0.394664  -0.002155  0.938722  -0.004
H  H14  1  0.08312187  0.77660752  0.87045124  1  0.403143  0.000258  0.9196  0.0  0.372197  0.001012  0.985721  0.001  0.382898  0.000773  0.970297  0.001  0.287544  0.365402  0.001178  0.995309  0.001
H  H15  1  0.91728037  0.22379670  0.12795695  1  0.403463  -0.000243  0.918352  0.0  0.372413  -0.000994  0.984692  -0.001  0.38312  -0.000756  0.969221  -0.001  0.287604  0.365613  -0.001162  0.99432  -0.001
H  H16  1  0.91639428  0.03623327  0.63957836  1  0.427668  7e-05  0.882395  0.001  0.394218  0.000709  0.949345  0.002  0.406845  0.000466  0.931087  0.002  0.291909  0.385719  0.000945  0.961636  0.002
H  H17  1  0.08263816  0.96287429  0.35879700  1  0.427342  -6.4e-05  0.883353  -0.001  0.393124  -0.000704  0.951568  -0.002  0.405846  -0.000463  0.933203  -0.002  0.29158  0.384522  -0.000936  0.963985  -0.002
H  H18  1  0.02927146  0.89595059  0.57694083  1  0.421713  0.000684  0.883807  0.002  0.390515  0.001443  0.951056  0.003  0.40154  0.001194  0.935008  0.002  0.300589  0.383228  0.001684  0.961654  0.003
H  H19  1  0.96937322  0.10277751  0.42226860  1  0.423502  -0.000687  0.883128  -0.002  0.391473  -0.001448  0.950105  -0.003  0.402557  -0.0012  0.933962  -0.002  0.301568  0.384106  -0.00169  0.960823  -0.003
H  H20  1  0.85370486  0.40911234  0.98729184  1  0.065322  -0.000204  0.937881  0.0  0.084784  -3e-06  0.995684  0.0  0.084535  -3.1e-05  0.995709  0.0  0.103262  0.084529  1.2e-05  0.996111  0.0
H  H21  1  0.14583476  0.58730883  0.01190308  1  0.065152  0.000197  0.935443  0.0  0.084609  -4e-06  0.993268  0.0  0.084298  2.7e-05  0.993343  0.0  0.10301  0.084384  -3.1e-05  0.99369  0.0
H  H22  1  0.75817771  0.31291365  0.91382362  1  0.072326  -0.005474  0.900264  -0.006  0.089905  -0.003796  0.954916  -0.003  0.089645  -0.003032  0.954872  -0.003  0.108007  0.088986  -0.003678  0.956017  -0.003
H  H23  1  0.24126114  0.68579808  0.08361918  1  0.072501  0.005533  0.900663  0.006  0.090026  0.003865  0.955179  0.003  0.089742  0.003082  0.95513  0.003  0.108066  0.089075  0.003784  0.956338  0.003
H  H24  1  0.63802808  0.53709561  0.82963444  1  0.065931  0.00013  0.98105  0.0  0.08134  6.5e-05  1.049751  0.0  0.080212  6.8e-05  1.05402  0.0  0.086702  0.081833  7.1e-05  1.046923  0.0
H  H25  1  0.36228215  0.46399080  0.17032919  1  0.066021  -0.000132  0.981398  0.0  0.081835  -6.6e-05  1.049608  0.0  0.080708  -6.8e-05  1.053912  0.0  0.08685  0.082348  -7.3e-05  1.046742  0.0
H  H26  1  0.60662320  0.52699936  0.00119770  1  0.072848  0.000359  0.96535  0.0  0.091667  0.000162  1.027493  0.0  0.091925  0.000152  1.028824  0.0  0.094003  0.090874  0.000158  1.027546  0.0
H  H27  1  0.39332029  0.47103545  0.99899862  1  0.072241  -0.000361  0.964985  0.0  0.091151  -0.000165  1.027115  0.0  0.091369  -0.000153  1.028471  0.0  0.093596  0.09035  -0.000162  1.027194  0.0
H  H28  1  0.66307898  0.76469186  0.92390463  1  0.056654  -0.006411  0.901886  -0.007  0.078295  -0.004806  0.951404  -0.005  0.077742  -0.003739  0.951994  -0.004  0.103365  0.07649  -0.004974  0.952995  -0.005
H  H29  1  0.33941640  0.23358955  0.08038145  1  0.056771  0.006466  0.901415  0.007  0.077833  0.004839  0.951273  0.005  0.07724  0.00376  0.951926  0.004  0.103224  0.076093  0.005022  0.952793  0.005
H  H30  1  0.83234500  0.67921703  0.94892261  1  0.065519  -0.00037  0.912732  -0.001  0.08572  -0.000206  0.968949  -0.001  0.085746  -0.000185  0.969176  0.0  0.108258  0.084677  -0.000212  0.969213  -0.001
H  H31  1  0.17007628  0.31604759  0.05330436  1  0.066365  0.000351  0.913114  0.001  0.085857  0.00019  0.969364  0.001  0.085979  0.000176  0.969508  0.0  0.108169  0.084754  0.000191  0.969685  0.0
H  H32  1  0.42891729  0.26773483  0.46452614  1  0.123255  0.000105  0.993868  0.0  0.12696  -5.4e-05  1.061127  0.0  0.132545  -6.6e-05  1.056148  0.0  0.103944  0.122763  -6.8e-05  1.064407  0.0
H  H33  1  0.57211590  0.73290068  0.53483377  1  0.123729  -0.000111  0.99317  0.0  0.127285  5.1e-05  1.060696  0.0  0.13285  6.2e-05  1.055717  0.0  0.104019  0.12311  6.7e-05  1.063976  0.0
H  H34  1  0.67872538  0.57974742  0.18498850  1  0.103338  0.000101  0.946894  0.0  0.114497  8.1e-05  1.005917  0.0  0.117651  7.7e-05  1.004662  0.0  0.105936  0.111826  8e-05  1.008089  0.0
H  H35  1  0.32096127  0.42189218  0.81481461  1  0.103872  -0.000116  0.94525  0.0  0.114999  -8.4e-05  1.004119  0.0  0.118219  -7.8e-05  1.002818  0.0  0.106084  0.112309  -8.5e-05  1.006304  0.0
H  H36  1  0.44775768  0.75427113  0.24110065  1  0.097729  -9e-05  0.976583  0.0  0.106509  -0.000202  1.03878  0.0  0.110711  -8.7e-05  1.034875  0.0  0.105373  0.102908  -0.00038  1.042531  0.0
H  H37  1  0.55144641  0.24668301  0.75877790  1  0.095546  0.000101  0.979104  0.0  0.105083  0.000223  1.040638  0.0  0.109399  0.000101  1.036559  0.0  0.105153  0.10143  0.000405  1.044438  0.0
C  C38  1  0.16034145  0.30938923  0.62745925  1  0.441091  0.008467  3.861705  0.008  0.408314  0.006018  4.145081  0.006  0.436315  0.00503  4.148225  0.005  0.226094  0.389184  0.006386  4.143319  0.006
C  C39  1  0.83997041  0.69073350  0.37174990  1  0.442652  -0.008426  3.860587  -0.008  0.408488  -0.005945  4.145385  -0.006  0.436593  -0.004975  4.148367  -0.005  0.226203  0.389366  -0.00636  4.14359  -0.006
C  C40  1  0.02906826  0.30080996  0.75437672  1  0.411039  0.010682  3.904811  0.01  0.368607  0.00653  4.190085  0.006  0.395528  0.005663  4.195272  0.006  0.217949  0.349572  0.006785  4.185735  0.006
C  C41  1  0.97099479  0.69892788  0.24453505  1  0.410831  -0.010664  3.902426  -0.01  0.369644  -0.006554  4.186465  -0.006  0.396479  -0.005696  4.191611  -0.006  0.217661  0.350635  -0.006862  4.182115  -0.006
C  C42  1  0.81144708  0.41219082  0.90186052  1  0.057787  -0.004087  3.669821  -0.002  0.008311  -0.003799  3.93637  -0.002  0.015842  -0.002577  3.949316  -0.001  -0.068349  0.003425  -0.004163  3.927999  -0.003
C  C43  1  0.18809905  0.58617334  0.09710298  1  0.059273  0.004067  3.669111  0.002  0.009668  0.003791  3.936106  0.002  0.017335  0.002561  3.94885  0.001  -0.06804  0.004742  0.004174  3.927807  0.003
C  C44  1  0.69391627  0.53888761  0.90534286  1  -0.166469  -0.00292  3.694936  -0.004  -0.211193  -0.002562  3.958162  -0.003  -0.214115  -0.001949  3.97271  -0.002  -0.169933  -0.208718  -0.002752  3.948145  -0.003
C  C45  1  0.30625417  0.46010738  0.09509669  1  -0.167672  0.00299  3.694415  0.004  -0.212605  0.002616  3.957153  0.003  -0.215549  0.00198  3.971746  0.003  -0.170213  -0.210107  0.00281  3.947087  0.003
C  C46  1  0.75559752  0.68173243  0.88927600  1  0.091396  0.001432  3.635353  0.004  0.03783  -0.000993  3.906303  0.001  0.043943  -0.0002  3.918273  0.002  -0.06953  0.034934  -0.001313  3.899627  0.001
C  C47  1  0.24595727  0.31627333  0.11325802  1  0.090729  -0.001443  3.636424  -0.004  0.038841  0.000989  3.905795  -0.001  0.044834  0.000188  3.917902  -0.002  -0.069029  0.036007  0.00132  3.898954  -0.001
C  C48  1  0.19719201  0.73859429  0.41838409  1  0.660298  0.00131  3.848554  0.003  0.609482  -0.001036  4.148241  0.0  0.645814  -0.000748  4.141186  0.0  0.215163  0.584708  -0.001562  4.153577  0.0
C  C49  1  0.80157120  0.26091500  0.58091673  1  0.659658  -0.001327  3.850262  -0.003  0.60973  0.001053  4.149187  0.0  0.646073  0.000752  4.142135  0.0  0.214551  0.584954  0.001587  4.15447  0.0
C  C50  1  0.31514201  0.61525791  0.39246184  1  -0.151713  -0.002628  3.675256  -0.003  -0.139723  -0.001753  3.920793  -0.002  -0.151696  -0.001438  3.944572  -0.002  -0.019631  -0.132225  -0.002224  3.904942  -0.002
C  C51  1  0.68454797  0.38502165  0.60710775  1  -0.150111  0.002746  3.670613  0.003  -0.139384  0.001773  3.917485  0.002  -0.151379  0.001461  3.941347  0.002  -0.019716  -0.131919  0.002256  3.901596  0.002
C  C52  1  0.30554428  0.47512342  0.45919745  1  0.248698  -0.001238  3.752913  0.001  0.244181  -0.002894  4.012556  -0.001  0.256064  -0.001837  4.03484  0.0  0.101199  0.236796  -0.003687  3.996644  -0.002
C  C53  1  0.69479025  0.52516681  0.54031758  1  0.248794  0.001075  3.754461  -0.001  0.244591  0.00286  4.013986  0.001  0.25647  0.001794  4.036288  0.0  0.101235  0.237215  0.003636  3.998088  0.001
C  C54  1  0.43287669  0.37566197  0.41768079  1  -0.173189  -0.00756  3.67424  -0.007  -0.204489  -0.004516  3.927067  -0.005  -0.208685  -0.003836  3.944914  -0.004  -0.095376  -0.199957  -0.004614  3.91363  -0.005
C  C55  1  0.56785882  0.62502215  0.58170242  1  -0.173759  0.007667  3.673893  0.007  -0.204805  0.004538  3.927279  0.005  -0.209045  0.003877  3.945126  0.004  -0.096485  -0.200262  0.004644  3.913868  0.005
C  C56  1  0.56554522  0.41278653  0.32206853  1  -0.042716  0.000588  3.781572  0.0  -0.020847  -0.000581  4.017327  -0.001  -0.025384  -0.000228  4.038762  0.0  -0.019393  -0.017882  -0.000732  4.003052  -0.001
C  C57  1  0.43493785  0.58837894  0.67716658  1  -0.042549  -0.000748  3.78267  0.0  -0.021938  0.000533  4.019646  0.001  -0.026414  0.00016  4.040985  0.0  -0.018831  -0.018991  0.000661  4.005371  0.001
C  C58  1  0.69932612  0.30515803  0.28514778  1  0.656857  -0.003271  3.872636  -0.004  0.606232  -0.005654  4.166272  -0.006  0.640807  -0.004275  4.159055  -0.005  0.21619  0.583609  -0.006046  4.168303  -0.006
C  C59  1  0.30137845  0.69632971  0.71352799  1  0.657723  0.003435  3.876428  0.004  0.608241  0.005869  4.168962  0.006  0.642883  0.004455  4.161612  0.005  0.216675  0.585575  0.006258  4.171017  0.006
C  C60  1  0.57451962  0.55119008  0.25915790  1  -0.083322  -0.002603  3.756652  -0.002  -0.109913  -0.001257  4.012533  -0.001  -0.11199  -0.001111  4.03249  -0.001  -0.093991  -0.110854  -0.001041  4.002694  -0.001
C  C61  1  0.42531721  0.45013211  0.74046059  1  -0.084425  0.002724  3.754612  0.002  -0.110514  0.001257  4.010796  0.001  -0.112639  0.00113  4.030705  0.001  -0.094299  -0.111394  0.001044  4.00092  0.001
C  C62  1  0.44874093  0.64784837  0.29266479  1  -0.073365  0.001451  3.772311  0.001  -0.095146  0.000165  4.024974  0.0  -0.093736  0.000432  4.044081  0.0  -0.088495  -0.09614  3.5e-05  4.014182  0.0
C  C63  1  0.55082016  0.35306194  0.70703565  1  -0.072984  -0.001582  3.76999  -0.001  -0.094848  -0.000164  4.022596  0.0  -0.093516  -0.000451  4.041689  0.0  -0.088918  -0.095734  -3.7e-05  4.011712  0.0
N  N64  1  0.17910058  0.43964074  0.56466202  1  -0.513306  -0.093186  3.282998  -0.104  -0.491122  -0.070092  3.617302  -0.077  -0.533029  -0.061157  3.634719  -0.069  -0.383909  -0.464342  -0.068792  3.608109  -0.074
N  N65  1  0.82124390  0.56055134  0.43492167  1  -0.513753  0.092673  3.284365  0.104  -0.490789  0.069681  3.618734  0.077  -0.532477  0.060839  3.635937  0.069  -0.383791  -0.464021  0.068554  3.609534  0.074
N  N66  1  0.93823911  0.41579924  0.78110838  1  -0.449249  -0.103459  3.249814  -0.117  -0.41204  -0.070426  3.58034  -0.079  -0.452072  -0.062307  3.59908  -0.071  -0.405968  -0.384869  -0.068046  3.567628  -0.075
N  N67  1  0.06149095  0.58371956  0.21803040  1  -0.449305  0.103765  3.249704  0.118  -0.411896  0.070803  3.579351  0.079  -0.45167  0.062664  3.597964  0.072  -0.40522  -0.384842  0.06856  3.566652  0.076
N  N68  1  0.84142854  0.72062521  0.75045245  1  -0.582525  -0.093722  3.124071  -0.104  -0.556061  -0.07108  3.393927  -0.077  -0.584334  -0.063013  3.39258  -0.07  -0.640713  -0.541869  -0.0685  3.400469  -0.072
N  N69  1  0.15948169  0.27909608  0.25217535  1  -0.582648  0.094046  3.126311  0.105  -0.557067  0.071176  3.396352  0.077  -0.585229  0.063055  3.395031  0.07  -0.641681  -0.542791  0.068798  3.402686  0.073
O  O70  1  0.23839321  0.19264671  0.59759584  1  -0.574211  0.017531  2.031488  0.006  -0.51256  0.025901  2.271576  0.013  -0.539868  0.026849  2.260654  0.015  -0.286296  -0.492977  0.024361  2.278446  0.01
O  O71  1  0.76222518  0.80762367  0.40127386  1  -0.574583  -0.017533  2.034621  -0.006  -0.512264  -0.025754  2.274983  -0.013  -0.539562  -0.02663  2.264061  -0.015  -0.285972  -0.492659  -0.024213  2.281785  -0.01
O  O72  1  0.01877669  0.18005570  0.82529831  1  -0.609191  0.022211  2.104505  0.009  -0.533709  0.029038  2.350247  0.014  -0.564973  0.030123  2.340092  0.017  -0.299395  -0.510182  0.026249  2.356128  0.011
O  O73  1  0.98121239  0.81943606  0.17326292  1  -0.609932  -0.022593  2.102281  -0.01  -0.535172  -0.029414  2.348249  -0.014  -0.56636  -0.030389  2.337943  -0.017  -0.299635  -0.51161  -0.026754  2.354174  -0.011
O  O74  1  0.07414230  0.73178677  0.51620569  1  -0.630276  -0.062398  2.170733  -0.075  -0.579707  -0.049286  2.456673  -0.059  -0.61818  -0.042662  2.444323  -0.052  -0.33484  -0.555489  -0.048884  2.467471  -0.058
O  O75  1  0.92499018  0.26778736  0.48358018  1  -0.631017  0.062785  2.169107  0.076  -0.579962  0.049607  2.454344  0.06  -0.618185  0.042924  2.441902  0.053  -0.334881  -0.555822  0.049378  2.465218  0.058
O  O76  1  0.22197924  0.85214990  0.34297337  1  -0.580512  -0.011567  1.938468  -0.014  -0.529811  -0.008003  2.147842  -0.01  -0.552345  -0.005247  2.135899  -0.007  -0.307585  -0.516453  -0.009549  2.157196  -0.011
O  O77  1  0.77560860  0.14688605  0.65544551  1  -0.582178  0.011661  1.935177  0.014  -0.532426  0.00809  2.144051  0.01  -0.554985  0.005314  2.132081  0.007  -0.308458  -0.519038  0.009676  2.153402  0.011
O  O78  1  0.82479105  0.35004417  0.21535460  1  -0.641408  -0.00158  2.025449  -0.001  -0.59514  -0.002508  2.272227  -0.002  -0.621949  -0.002036  2.260091  -0.001  -0.31373  -0.575404  -0.003818  2.279627  -0.004
O  O79  1  0.17549786  0.65160405  0.78251825  1  -0.642626  0.001613  2.032052  0.001  -0.596734  0.002615  2.279516  0.002  -0.623929  0.002138  2.267626  0.002  -0.314081  -0.576738  0.003919  2.286872  0.004
O  O80  1  0.67932646  0.17409706  0.32465968  1  -0.675802  -0.028421  2.004306  -0.017  -0.606359  -0.033765  2.253175  -0.019  -0.635093  -0.030746  2.238214  -0.017  -0.318009  -0.585149  -0.035576  2.26202  -0.021
O  O81  1  0.32192519  0.82735154  0.67451247  1  -0.676096  0.0287  2.00371  0.017  -0.607625  0.033981  2.253119  0.019  -0.63622  0.030955  2.237896  0.016  -0.318877  -0.586423  0.03576  2.261998  0.021
O  O82  1  0.38102426  0.03810882  0.78678523  1  -0.798245  0.022647  1.798335  0.013  -0.751023  0.031925  1.978244  0.02  -0.769234  0.028074  1.949882  0.018  -0.557739  -0.737228  0.035449  1.995589  0.023
O  O83  1  0.61565957  0.96440923  0.21683085  1  -0.799448  -0.022813  1.797608  -0.014  -0.751413  -0.032087  1.976583  -0.02  -0.769896  -0.0282  1.947898  -0.018  -0.55777  -0.737375  -0.035665  1.995669  -0.023
O  O84  1  0.04431154  0.87066713  0.90715177  1  -0.857777  0.031852  1.877483  0.02  -0.7967  0.040358  2.080121  0.025  -0.821762  0.03668  2.044264  0.023  -0.579166  -0.776217  0.042844  2.102946  0.028
O  O85  1  0.95538215  0.12965796  0.09135253  1  -0.857635  -0.032184  1.879377  -0.02  -0.797063  -0.040663  2.081425  -0.025  -0.82207  -0.036926  2.045565  -0.023  -0.579831  -0.776677  -0.043219  2.104295  -0.028
O  O86  1  0.00703542  0.96525728  0.64303257  1  -0.869086  0.035542  1.953721  0.022  -0.801123  0.043224  2.170994  0.027  -0.826746  0.038649  2.132481  0.023  -0.574604  -0.782113  0.047855  2.197439  0.031
O  O87  1  0.99295985  0.03507646  0.35464703  1  -0.868956  -0.035789  1.957338  -0.022  -0.800088  -0.043325  2.174836  -0.027  -0.825959  -0.038718  2.136283  -0.023  -0.573907  -0.780857  -0.047977  2.201403  -0.032
