# generated using pymatgen
data_ZnH16C18S3(NO)4
_symmetry_space_group_name_H-M   'P 1'
_cell_length_a   8.65438665
_cell_length_b   11.27075707
_cell_length_c   11.62742257
_cell_angle_alpha   72.12965448
_cell_angle_beta   87.30598413
_cell_angle_gamma   76.75833740
_symmetry_Int_Tables_number   1
_chemical_formula_structural   ZnH16C18S3(NO)4
_chemical_formula_sum   'Zn2 H32 C36 S6 N8 O8'
_cell_volume   1050.40546208
_cell_formula_units_Z   2
loop_
 _symmetry_equiv_pos_site_id
 _symmetry_equiv_pos_as_xyz
  1  'x, y, z'
loop_
 _atom_site_type_symbol
 _atom_site_label
 _atom_site_symmetry_multiplicity
 _atom_site_fract_x
 _atom_site_fract_y
 _atom_site_fract_z
 _atom_site_occupancy
 _atom_site_hle17_bader_spin_density
 _atom_site_hle17_ddec_charge
 _atom_site_hle17_ddec_spin_density
 _atom_site_hle17_ddec_sum_bond_order
 _atom_site_hle17_magmom
 _atom_site_hse06_10hf_bader_spin_density
 _atom_site_hse06_10hf_ddec_charge
 _atom_site_hse06_10hf_ddec_spin_density
 _atom_site_hse06_10hf_ddec_sum_bond_order
 _atom_site_hse06_10hf_magmom
 _atom_site_hse06_bader_spin_density
 _atom_site_hse06_ddec_charge
 _atom_site_hse06_ddec_spin_density
 _atom_site_hse06_ddec_sum_bond_order
 _atom_site_hse06_magmom
 _atom_site_pbe_bader_spin_density
 _atom_site_pbe_cm5_charge
 _atom_site_pbe_ddec_charge
 _atom_site_pbe_ddec_spin_density
 _atom_site_pbe_ddec_sum_bond_order
 _atom_site_pbe_magmom
Zn  Zn0  1  0.63783335  0.91045641  0.89866367  1  0  1.051956  0  1.785387  0  0  0.863184  0  2.248544  0  0  0.91479  0  2.190344  0  0  0.688685  0.82708  0  2.288621  0
Zn  Zn1  1  0.36216063  0.08955025  0.10133539  1  0  1.051863  0  1.785483  0  0  0.863142  0  2.248643  0  0  0.914737  0  2.190451  0  0  0.688652  0.82704  0  2.28872  0
H  H2  1  0.97008844  0.54815863  0.83969303  1  0  0.138545  0  0.896035  0  0  0.161497  0  0.936332  0  0  0.164148  0  0.935038  0  0  0.116877  0.15954  0  0.937405  0
H  H3  1  0.02990895  0.45184422  0.16030446  1  0  0.138581  0  0.895972  0  0  0.161501  0  0.936297  0  0  0.164168  0  0.934988  0  0  0.116864  0.159545  0  0.93737  0
H  H4  1  0.04732248  0.67727662  0.74870486  1  0  0.11277  0  0.963141  0  0  0.122154  0  1.033234  0  0  0.12454  0  1.031921  0  0  0.096119  0.120637  0  1.033874  0
H  H5  1  0.95266600  0.32272906  0.25129294  1  0  0.112865  0  0.96307  0  0  0.122266  0  1.033119  0  0  0.124654  0  1.03181  0  0  0.096161  0.120748  0  1.033762  0
H  H6  1  0.89514193  0.15531475  0.06910614  1  0  0.147498  0  0.893836  0  0  0.165351  0  0.940647  0  0  0.168656  0  0.938507  0  0  0.117668  0.162969  0  0.942313  0
H  H7  1  0.10486425  0.84467760  0.93089329  1  0  0.147426  0  0.89384  0  0  0.165375  0  0.940534  0  0  0.168681  0  0.938394  0  0  0.117682  0.162992  0  0.942202  0
H  H8  1  0.98659360  0.99229700  0.11694650  1  0  0.13988  0  0.939859  0  0  0.14703  0  1.007305  0  0  0.150451  0  1.004943  0  0  0.10964  0.144577  0  1.009228  0
H  H9  1  0.01341386  0.00770302  0.88305150  1  0  0.139904  0  0.9398  0  0  0.147073  0  1.007237  0  0  0.150491  0  1.004884  0  0  0.109663  0.144621  0  1.009159  0
H  H10  1  0.73536100  0.79083424  0.16465960  1  0  0.081566  0  0.982083  0  0  0.085166  0  1.054091  0  0  0.088108  0  1.051036  0  0  0.112813  0.083029  0  1.056236  0
H  H11  1  0.26463486  0.20916569  0.83534740  1  0  0.081572  0  0.982052  0  0  0.085198  0  1.054043  0  0  0.088139  0  1.050991  0  0  0.112829  0.08306  0  1.056189  0
H  H12  1  0.69018129  0.61661794  0.34042955  1  0  0.109805  0  0.970969  0  0  0.113409  0  1.043803  0  0  0.117044  0  1.04244  0  0  0.102198  0.110933  0  1.044641  0
H  H13  1  0.30981514  0.38338010  0.65957454  1  0  0.109794  0  0.970854  0  0  0.113397  0  1.043695  0  0  0.117031  0  1.042331  0  0  0.102173  0.11092  0  1.044534  0
H  H14  1  0.38999754  0.52012506  0.11173395  1  0  0.111369  0  0.948412  0  0  0.122053  0  1.005521  0  0  0.125017  0  1.005631  0  0  0.105856  0.119878  0  1.005722  0
H  H15  1  0.60999672  0.47988066  0.88826280  1  0  0.111368  0  0.948393  0  0  0.122071  0  1.005484  0  0  0.125034  0  1.005597  0  0  0.105868  0.119895  0  1.005686  0
H  H16  1  0.44805097  0.70383203  0.94112426  1  0  0.082684  0  0.937185  0  0  0.091593  0  0.999949  0  0  0.09409  0  0.99792  0  0  0.115347  0.089798  0  1.001364  0
H  H17  1  0.55195335  0.29617084  0.05887559  1  0  0.08275  0  0.937271  0  0  0.091696  0  1.000006  0  0  0.094202  0  0.99796  0  0  0.115399  0.0899  0  1.001421  0
H  H18  1  0.45639834  0.48372510  0.42201468  1  0  0.078793  0  0.93957  0  0  0.098253  0  0.997194  0  0  0.099115  0  0.997558  0  0  0.09169  0.097689  0  0.996874  0
H  H19  1  0.54360185  0.51627201  0.57798613  1  0  0.078835  0  0.939569  0  0  0.098245  0  0.997236  0  0  0.099105  0  0.9976  0  0  0.091684  0.097682  0  0.996913  0
H  H20  1  0.41793932  0.39864680  0.32498635  1  0  0.088362  0  0.988117  0  0  0.09625  0  1.063196  0  0  0.098733  0  1.061771  0  0  0.086907  0.094366  0  1.064318  0
H  H21  1  0.58205889  0.60135317  0.67501368  1  0  0.088403  0  0.988121  0  0  0.096285  0  1.063176  0  0  0.09877  0  1.061748  0  0  0.086931  0.094401  0  1.064298  0
H  H22  1  0.75610047  0.39468978  0.39995767  1  0  0.067566  0  0.969888  0  0  0.079996  0  1.042755  0  0  0.081189  0  1.042667  0  0  0.086052  0.079201  0  1.042675  0
H  H23  1  0.24390100  0.60531501  0.60003826  1  0  0.067557  0  0.969831  0  0  0.079983  0  1.0427  0  0  0.081174  0  1.042614  0  0  0.086043  0.079186  0  1.042619  0
H  H24  1  0.69868074  0.29755243  0.32281537  1  0  0.075385  0  0.955953  0  0  0.090886  0  1.022017  0  0  0.091897  0  1.0218  0  0  0.087484  0.090225  0  1.022113  0
H  H25  1  0.30131747  0.70244754  0.67718552  1  0  0.075389  0  0.95595  0  0  0.090879  0  1.022022  0  0  0.09189  0  1.021805  0  0  0.087474  0.090214  0  1.022117  0
H  H26  1  0.48240989  0.16309666  0.44765451  1  0  0.119594  0  0.958239  0  0  0.128006  0  1.022399  0  0  0.131105  0  1.021973  0  0  0.105144  0.12582  0  1.022786  0
H  H27  1  0.51758810  0.83690809  0.55234670  1  0  0.11962  0  0.958078  0  0  0.127988  0  1.022314  0  0  0.131087  0  1.021889  0  0  0.105116  0.125804  0  1.022698  0
H  H28  1  0.48041503  0.99620445  0.64941943  1  0  0.082779  0  0.956933  0  0  0.088069  0  1.028334  0  0  0.090683  0  1.02557  0  0  0.112434  0.086069  0  1.030402  0
H  H29  1  0.51959043  0.00379842  0.35058124  1  0  0.082888  0  0.956975  0  0  0.088131  0  1.028383  0  0  0.090744  0  1.025622  0  0  0.112463  0.086145  0  1.030436  0
H  H30  1  0.79466482  0.13485127  0.80109699  1  0  0.080577  0  0.953597  0  0  0.089236  0  1.016731  0  0  0.091664  0  1.014523  0  0  0.114355  0.087445  0  1.018325  0
H  H31  1  0.20534147  0.86514873  0.19890449  1  0  0.080559  0  0.953616  0  0  0.089218  0  1.016752  0  0  0.091643  0  1.014549  0  0  0.114359  0.087427  0  1.018347  0
H  H32  1  0.81148446  0.30599211  0.60823918  1  0  0.109582  0  0.958882  0  0  0.118658  0  1.021217  0  0  0.121423  0  1.021236  0  0  0.103433  0.116724  0  1.021197  0
H  H33  1  0.18852014  0.69400981  0.39175921  1  0  0.109644  0  0.958885  0  0  0.118718  0  1.021211  0  0  0.121481  0  1.02123  0  0  0.10346  0.116785  0  1.021192  0
C  C34  1  0.80024374  0.72940417  0.79571705  1  0  0.667067  0  3.93851  0  0  0.622227  0  4.242393  0  0  0.654645  0  4.237297  0  0  0.181423  0.600319  0  4.24503  0
C  C35  1  0.19974924  0.27059387  0.20428285  1  0  0.666978  0  3.938689  0  0  0.622072  0  4.242623  0  0  0.654492  0  4.23754  0  0  0.181376  0.600165  0  4.245257  0
C  C36  1  0.94200113  0.63623152  0.76246802  1  0  -0.308036  0  3.653223  0  0  -0.342023  0  3.914888  0  0  -0.346068  0  3.919033  0  0  -0.153788  -0.338964  0  3.911402  0
C  C37  1  0.05799104  0.36376939  0.23752935  1  0  -0.3082  0  3.653065  0  0  -0.342139  0  3.914642  0  0  -0.346206  0  3.918805  0  0  -0.153828  -0.339082  0  3.911163  0
C  C38  1  0.89183932  0.71725805  0.51471789  1  0  0.068356  0  3.787022  0  0  0.067081  0  4.099236  0  0  0.077559  0  4.112422  0  0  0.113206  0.0599  0  4.090275  0
C  C39  1  0.10815944  0.28274001  0.48528182  1  0  0.068344  0  3.787052  0  0  0.067111  0  4.099202  0  0  0.077589  0  4.112387  0  0  0.113212  0.05993  0  4.09024  0
C  C40  1  0.87253117  0.91910212  0.36098681  1  0  0.063079  0  3.820472  0  0  0.06086  0  4.130729  0  0  0.071036  0  4.145576  0  0  0.110955  0.054136  0  4.120643  0
C  C41  1  0.12747479  0.08089501  0.63901380  1  0  0.063053  0  3.820383  0  0  0.060837  0  4.130659  0  0  0.071012  0  4.145507  0  0  0.110944  0.054114  0  4.120572  0
C  C42  1  0.87879191  0.06138550  0.12641161  1  0  -0.298593  0  3.608281  0  0  -0.329752  0  3.866589  0  0  -0.334755  0  3.870385  0  0  -0.145126  -0.326647  0  3.864196  0
C  C43  1  0.12120998  0.93860971  0.87358884  1  0  -0.29853  0  3.608093  0  0  -0.329834  0  3.866466  0  0  -0.334839  0  3.870257  0  0  -0.145158  -0.326729  0  3.864076  0
C  C44  1  0.73261414  0.03148596  0.08245131  1  0  0.724209  0  3.861795  0  0  0.666042  0  4.17495  0  0  0.701178  0  4.166392  0  0  0.216989  0.642173  0  4.180004  0
C  C45  1  0.26739845  0.96850835  0.91754305  1  0  0.724167  0  3.862528  0  0  0.666129  0  4.17549  0  0  0.70127  0  4.166933  0  0  0.217041  0.642262  0  4.180543  0
C  C46  1  0.65817883  0.73019393  0.15550945  1  0  0.143254  0  3.686187  0  0  0.111821  0  3.934438  0  0  0.119534  0  3.952053  0  0  0.043989  0.106829  0  3.92253  0
C  C47  1  0.34181678  0.26980698  0.84449211  1  0  0.143335  0  3.686159  0  0  0.111879  0  3.934386  0  0  0.119592  0  3.952002  0  0  0.04402  0.10689  0  3.922474  0
C  C48  1  0.63158285  0.63135978  0.25452695  1  0  -0.171729  0  3.696756  0  0  -0.18914  0  3.94485  0  0  -0.198289  0  3.96748  0  0  -0.088986  -0.183354  0  3.929901  0
C  C49  1  0.36841678  0.36863923  0.74547676  1  0  -0.171765  0  3.696771  0  0  -0.189215  0  3.944891  0  0  -0.198359  0  3.967512  0  0  -0.089005  -0.18343  0  3.929941  0
C  C50  1  0.53267058  0.55343655  0.24203264  1  0  0.160955  0  3.721426  0  0  0.179233  0  3.952683  0  0  0.184512  0  3.975646  0  0  0.012315  0.175852  0  3.937043  0
C  C51  1  0.46732790  0.44656246  0.75796938  1  0  0.16095  0  3.721555  0  0  0.179302  0  3.952668  0  0  0.18458  0  3.975629  0  0  0.012342  0.17592  0  3.937028  0
C  C52  1  0.46554774  0.57943280  0.12709916  1  0  -0.188154  0  3.716825  0  0  -0.202709  0  3.957921  0  0  -0.212034  0  3.980771  0  0  -0.091255  -0.196738  0  3.942672  0
C  C53  1  0.53445245  0.42056431  0.87290165  1  0  -0.188135  0  3.716812  0  0  -0.202736  0  3.957905  0  0  -0.212061  0  3.980759  0  0  -0.091259  -0.196765  0  3.942656  0
C  C54  1  0.49701566  0.68088995  0.03212457  1  0  0.124632  0  3.725774  0  0  0.093516  0  3.975896  0  0  0.100464  0  3.995724  0  0  0.038766  0.089217  0  3.962342  0
C  C55  1  0.50298424  0.31910811  0.96787855  1  0  0.124592  0  3.725863  0  0  0.093422  0  3.976008  0  0  0.100372  0  3.995834  0  0  0.038686  0.089122  0  3.962455  0
C  C56  1  0.50520390  0.44512057  0.34824719  1  0  -0.164503  0  3.684854  0  0  -0.203588  0  3.926508  0  0  -0.205692  0  3.937295  0  0  -0.162492  -0.201849  0  3.918873  0
C  C57  1  0.49479458  0.55487845  0.65175225  1  0  -0.16461  0  3.684921  0  0  -0.203647  0  3.926457  0  0  -0.205745  0  3.937232  0  0  -0.162521  -0.201911  0  3.918822  0
C  C58  1  0.66230839  0.34603311  0.39204140  1  0  -0.152391  0  3.692442  0  0  -0.192164  0  3.932671  0  0  -0.1938  0  3.944492  0  0  -0.160325  -0.190881  0  3.924327  0
C  C59  1  0.33769219  0.65397070  0.60795742  1  0  -0.152361  0  3.692528  0  0  -0.19213  0  3.932659  0  0  -0.19377  0  3.944485  0  0  -0.160322  -0.190835  0  3.924301  0
C  C60  1  0.65027027  0.24727560  0.51060851  1  0  0.157952  0  3.721164  0  0  0.174742  0  3.958082  0  0  0.179947  0  3.980667  0  0  0.009686  0.171494  0  3.942794  0
C  C61  1  0.34973350  0.75272919  0.48939079  1  0  0.157856  0  3.721338  0  0  0.174679  0  3.958169  0  0  0.179884  0  3.980753  0  0  0.009672  0.171427  0  3.94288  0
C  C62  1  0.55457825  0.15912214  0.52385677  1  0  -0.181261  0  3.67932  0  0  -0.198379  0  3.926605  0  0  -0.207977  0  3.949808  0  0  -0.090882  -0.19215  0  3.910896  0
C  C63  1  0.44542466  0.84088170  0.47613767  1  0  -0.181169  0  3.679299  0  0  -0.19828  0  3.926546  0  0  -0.207879  0  3.94975  0  0  -0.090795  -0.192053  0  3.910842  0
C  C64  1  0.55283067  0.06652498  0.63489436  1  0  0.137288  0  3.70192  0  0  0.103702  0  3.956757  0  0  0.111142  0  3.975956  0  0  0.042017  0.099039  0  3.94343  0
C  C65  1  0.44717541  0.93347981  0.36510572  1  0  0.137059  0  3.702078  0  0  0.103603  0  3.956824  0  0  0.111032  0  3.976016  0  0  0.041952  0.098927  0  3.943496  0
C  C66  1  0.72876027  0.14365488  0.72026097  1  0  0.135035  0  3.715595  0  0  0.101601  0  3.971415  0  0  0.109158  0  3.990379  0  0  0.043041  0.096807  0  3.958442  0
C  C67  1  0.27124343  0.85634607  0.27973946  1  0  0.134939  0  3.715762  0  0  0.101506  0  3.971615  0  0  0.109057  0  3.990569  0  0  0.042973  0.096712  0  3.958642  0
C  C68  1  0.73638099  0.23928354  0.61257514  1  0  -0.18471  0  3.72357  0  0  -0.202684  0  3.973912  0  0  -0.212125  0  3.997507  0  0  -0.092499  -0.19658  0  3.957948  0
C  C69  1  0.26362106  0.76072314  0.38742538  1  0  -0.184721  0  3.72373  0  0  -0.202693  0  3.974033  0  0  -0.212137  0  3.997636  0  0  -0.092506  -0.196583  0  3.958053  0
S  S70  1  0.91375538  0.57958842  0.63759258  1  0  0.09988  0  2.439615  0  0  0.088977  0  2.779536  0  0  0.086835  0  2.776471  0  0  0.056911  0.090642  0  2.78167  0
S  S71  1  0.08623651  0.42041345  0.36240624  1  0  0.099856  0  2.439536  0  0  0.088927  0  2.779424  0  0  0.086789  0  2.77637  0  0  0.056871  0.090594  0  2.781561  0
S  S72  1  0.88172120  0.87304971  0.51867285  1  0  0.086872  0  2.506374  0  0  0.086697  0  2.838575  0  0  0.087371  0  2.841352  0  0  0.101592  0.084717  0  2.839202  0
S  S73  1  0.11827986  0.12694836  0.48132765  1  0  0.086853  0  2.50641  0  0  0.086656  0  2.838626  0  0  0.087337  0  2.841386  0  0  0.101574  0.084676  0  2.839253  0
S  S74  1  0.86959054  0.07563266  0.27672210  1  0  0.076187  0  2.514032  0  0  0.063898  0  2.869949  0  0  0.061857  0  2.867724  0  0  0.041266  0.065432  0  2.87223  0
S  S75  1  0.13041862  0.92436544  0.72327899  1  0  0.076193  0  2.513932  0  0  0.063902  0  2.869908  0  0  0.061857  0  2.867684  0  0  0.041269  0.065436  0  2.872187  0
N  N76  1  0.87433905  0.82441004  0.31667891  1  0  -0.210556  0  3.054192  0  0  -0.185781  0  3.339207  0  0  -0.194923  0  3.353952  0  0  -0.217685  -0.179234  0  3.328862  0
N  N77  1  0.12566433  0.17558804  0.68331979  1  0  -0.21052  0  3.054161  0  0  -0.185759  0  3.339197  0  0  -0.194904  0  3.353946  0  0  -0.217694  -0.179211  0  3.32885  0
N  N78  1  0.88532496  0.70981183  0.40439974  1  0  -0.232549  0  3.077948  0  0  -0.212155  0  3.370828  0  0  -0.220374  0  3.384194  0  0  -0.224326  -0.206053  0  3.36184  0
N  N79  1  0.11467352  0.29018719  0.59559970  1  0  -0.232511  0  3.077923  0  0  -0.212117  0  3.370768  0  0  -0.220336  0  3.384134  0  0  -0.224273  -0.206015  0  3.361779  0
N  N80  1  0.59103195  0.75604842  0.04585431  1  0  -0.335432  0  3.289124  0  0  -0.252652  0  3.551995  0  0  -0.272716  0  3.568871  0  0  -0.325367  -0.23903  0  3.540326  0
N  N81  1  0.40896740  0.24395154  0.95414912  1  0  -0.335529  0  3.289227  0  0  -0.252749  0  3.552129  0  0  -0.272812  0  3.569004  0  0  -0.325395  -0.239127  0  3.540461  0
N  N82  1  0.63997592  0.05743887  0.73172644  1  0  -0.330134  0  3.271446  0  0  -0.248316  0  3.537516  0  0  -0.268215  0  3.554191  0  0  -0.32425  -0.234904  0  3.525911  0
N  N83  1  0.36003188  0.94256403  0.26826984  1  0  -0.329948  0  3.271304  0  0  -0.248198  0  3.537387  0  0  -0.268056  0  3.554013  0  0  -0.324205  -0.23479  0  3.525791  0
O  O84  1  0.84119997  0.78860038  0.86350537  1  0  -0.649098  0  2.014016  0  0  -0.587244  0  2.27363  0  0  -0.617464  0  2.263737  0  0  -0.33691  -0.566328  0  2.279796  0
O  O85  1  0.15879717  0.21140344  0.13648926  1  0  -0.649006  0  2.014129  0  0  -0.587131  0  2.273758  0  0  -0.61735  0  2.263866  0  0  -0.336854  -0.566216  0  2.279923  0
O  O86  1  0.66197131  0.74132110  0.75937818  1  0  -0.625961  0  1.915557  0  0  -0.577844  0  2.14256  0  0  -0.600834  0  2.134524  0  0  -0.326743  -0.561835  0  2.147563  0
O  O87  1  0.33802009  0.25867020  0.24063063  1  0  -0.625907  0  1.915656  0  0  -0.577763  0  2.142664  0  0  -0.600753  0  2.13463  0  0  -0.326737  -0.561753  0  2.147665  0
O  O88  1  0.75501349  0.99557028  0.98799225  1  0  -0.640829  0  2.062768  0  0  -0.565866  0  2.336221  0  0  -0.594179  0  2.320744  0  0  -0.315343  -0.546238  0  2.346361  0
O  O89  1  0.24499356  0.00442302  0.01201032  1  0  -0.640692  0  2.062505  0  0  -0.565857  0  2.336006  0  0  -0.594177  0  2.320528  0  0  -0.315328  -0.546227  0  2.346145  0
O  O90  1  0.60598029  0.04568718  0.13942758  1  0  -0.649554  0  2.154985  0  0  -0.590904  0  2.449302  0  0  -0.618479  0  2.435664  0  0  -0.308854  -0.571768  0  2.458132  0
O  O91  1  0.39400944  0.95430606  0.86057470  1  0  -0.649575  0  2.155942  0  0  -0.590932  0  2.450173  0  0  -0.618477  0  2.436467  0  0  -0.308902  -0.571797  0  2.459001  0
