# generated using pymatgen
data_CoH15C11NO9
_symmetry_space_group_name_H-M   'P 1'
_cell_length_a   6.99373410
_cell_length_b   10.36977793
_cell_length_c   10.50077134
_cell_angle_alpha   110.51199171
_cell_angle_beta   102.03207059
_cell_angle_gamma   91.11101834
_symmetry_Int_Tables_number   1
_chemical_formula_structural   CoH15C11NO9
_chemical_formula_sum   'Co2 H30 C22 N2 O18'
_cell_volume   694.03858236
_cell_formula_units_Z   2
loop_
 _symmetry_equiv_pos_site_id
 _symmetry_equiv_pos_as_xyz
  1  'x, y, z'
loop_
 _atom_site_type_symbol
 _atom_site_label
 _atom_site_symmetry_multiplicity
 _atom_site_fract_x
 _atom_site_fract_y
 _atom_site_fract_z
 _atom_site_occupancy
 _atom_site_hle17_ddec_charge
 _atom_site_hle17_ddec_spin_density
 _atom_site_hle17_ddec_sum_bond_order
 _atom_site_hle17_magmom
 _atom_site_hse06_10hf_ddec_charge
 _atom_site_hse06_10hf_ddec_spin_density
 _atom_site_hse06_10hf_ddec_sum_bond_order
 _atom_site_hse06_10hf_magmom
 _atom_site_hse06_ddec_charge
 _atom_site_hse06_ddec_spin_density
 _atom_site_hse06_ddec_sum_bond_order
 _atom_site_hse06_magmom
 _atom_site_pbe_cm5_charge
 _atom_site_pbe_ddec_charge
 _atom_site_pbe_ddec_spin_density
 _atom_site_pbe_ddec_sum_bond_order
 _atom_site_pbe_magmom
Co  Co0  1  0.49999588  0.00000019  0.50000036  1  1.17494  2.92  1.814061  2.637  1.14537  2.891725  2.205417  2.691  1.212174  2.922568  2.1359  2.75  0.639736  1.09312  2.863929  2.256639  2.637
Co  Co1  1  0.50000660  0.49999972  0.00000248  1  1.063112  -2.885979  1.751018  -2.587  1.034305  -2.886238  2.150596  -2.668  1.11623  -2.922356  2.077543  -2.737  0.627299  0.962022  -2.853686  2.216268  -2.605
H  H2  1  0.65839479  0.67763380  0.58353827  1  0.302285  -1.6e-05  0.914413  0.0  0.282494  -3e-05  0.977348  0.0  0.29164  -3e-05  0.970959  0.0  0.303279  0.276019  -3.1e-05  0.981918  0.0
H  H3  1  0.34160126  0.32237079  0.41646077  1  0.302391  -1.9e-05  0.914335  0.0  0.282667  -3e-05  0.977167  0.0  0.291791  -2.9e-05  0.97081  0.0  0.303333  0.27619  -3.1e-05  0.981741  0.0
H  H4  1  0.82541268  0.15894491  0.50008331  1  0.441007  0.00017  0.85836  0.0  0.408884  0.000353  0.922505  0.001  0.420465  0.000199  0.905931  0.001  0.295701  0.400611  0.000516  0.934328  0.001
H  H5  1  0.17457849  0.84105657  0.49991775  1  0.440983  0.00017  0.858388  0.0  0.408846  0.000353  0.922559  0.001  0.420429  0.0002  0.90598  0.001  0.295684  0.400574  0.000516  0.93438  0.001
H  H6  1  0.76567030  0.18649331  0.65258747  1  0.421523  -0.000436  0.885473  -0.001  0.387217  -0.000108  0.953568  0.0  0.399796  -0.000203  0.935471  0.0  0.290163  0.378187  1e-06  0.966545  0.0
H  H7  1  0.23432300  0.81350297  0.34741302  1  0.421493  -0.000436  0.885506  -0.001  0.387172  -0.000108  0.953622  0.0  0.399753  -0.000203  0.935521  0.0  0.290145  0.378141  1e-06  0.966599  0.0
H  H8  1  0.20128091  0.16266387  0.53202131  1  0.43324  0.000229  0.872564  0.0  0.401626  0.000407  0.936983  0.001  0.413511  0.000246  0.919799  0.001  0.291156  0.393154  0.000568  0.949177  0.001
H  H9  1  0.79870616  0.83733966  0.46798274  1  0.433238  0.00023  0.87258  0.0  0.401612  0.000407  0.937019  0.001  0.413497  0.000247  0.919835  0.001  0.291124  0.393138  0.000569  0.949215  0.001
H  H10  1  0.33906205  0.19761203  0.68975154  1  0.433007  0.000125  0.869546  0.001  0.405141  0.000266  0.928602  0.001  0.416369  0.000199  0.912489  0.001  0.293163  0.397084  0.000312  0.940095  0.001
H  H11  1  0.66093482  0.80238841  0.31024806  1  0.43307  0.000123  0.86947  0.001  0.405197  0.000266  0.928537  0.001  0.416424  0.000199  0.912424  0.001  0.293179  0.397141  0.000312  0.940029  0.001
H  H12  1  0.21526178  0.65973127  0.08586421  1  0.435033  2.9e-05  0.870911  0.0  0.401017  -0.000198  0.939308  -0.001  0.413347  -5.9e-05  0.921731  0.0  0.290512  0.392179  -0.000346  0.951872  -0.001
H  H13  1  0.78474892  0.34026394  0.91413647  1  0.434895  3e-05  0.87109  0.0  0.400908  -0.000198  0.939439  -0.001  0.413237  -5.9e-05  0.921866  0.0  0.290429  0.392072  -0.000346  0.952002  -0.001
H  H14  1  0.15497369  0.50129125  0.06094744  1  0.426495  6.4e-05  0.818665  0.0  0.411942  -0.000411  0.87025  -0.001  0.421334  -0.000169  0.859989  0.0  0.322288  0.404725  -0.000667  0.877901  -0.001
H  H15  1  0.84495620  0.49869842  0.93898930  1  0.426653  5.8e-05  0.818304  0.0  0.412102  -0.00041  0.869916  -0.001  0.421493  -0.000169  0.859644  0.0  0.322244  0.404889  -0.000666  0.877569  -0.001
H  H16  1  0.40201198  0.15944753  0.17075329  1  0.104738  -0.0001  0.959717  0.0  0.110042  -0.000113  1.03055  0.0  0.114378  -9.2e-05  1.026292  0.0  0.106757  0.106703  -0.000133  1.033657  0.0
H  H17  1  0.59799821  0.84054453  0.82925097  1  0.10478  -0.000101  0.959657  0.0  0.110073  -0.000113  1.030505  0.0  0.114415  -9.2e-05  1.02623  0.0  0.106772  0.106724  -0.000133  1.033639  0.0
H  H18  1  0.17161486  0.04754947  0.72803518  1  0.106888  -0.000197  0.960928  0.0  0.113374  -0.000212  1.029285  0.0  0.118076  -0.000193  1.024505  0.0  0.110146  0.10967  -0.000239  1.03316  0.0
H  H19  1  0.82839523  0.95246125  0.27197278  1  0.106903  -0.000205  0.960956  0.0  0.113385  -0.000212  1.029314  0.0  0.118092  -0.000193  1.024533  0.0  0.110129  0.109675  -0.000239  1.033206  0.0
H  H20  1  0.08422825  0.76029153  0.92630153  1  0.106521  -2.5e-05  0.946576  0.0  0.112768  -4e-06  1.014202  0.0  0.117299  1.7e-05  1.009434  0.0  0.106577  0.109173  -3.4e-05  1.018197  0.0
H  H21  1  0.91576356  0.23971410  0.07369822  1  0.106491  -4.1e-05  0.946593  0.0  0.112721  -4e-06  1.014239  0.0  0.117252  1.7e-05  1.009468  0.0  0.106544  0.109126  -3.4e-05  1.018233  0.0
H  H22  1  0.55110746  0.27399025  0.50518721  1  0.311093  -0.000181  0.90155  0.0  0.291243  -0.000103  0.963377  0.0  0.299481  -0.000133  0.957375  0.0  0.308892  0.285272  -7e-05  0.967659  0.0
H  H23  1  0.44889114  0.72602159  0.49481380  1  0.310889  -0.000182  0.901735  0.0  0.291092  -0.000103  0.963486  0.0  0.29933  -0.000133  0.957487  0.0  0.308797  0.285121  -7e-05  0.967767  0.0
H  H24  1  0.61688849  0.32893896  0.31177375  1  0.101612  -6.6e-05  0.921238  0.0  0.116371  -5.2e-05  0.979436  0.0  0.117271  -2e-05  0.979656  0.0  0.121864  0.115571  -9.4e-05  0.979557  0.0
H  H25  1  0.38310963  0.67106976  0.68822799  1  0.101631  -7.1e-05  0.921122  0.0  0.116439  -5.2e-05  0.979293  0.0  0.117343  -2e-05  0.979508  0.0  0.121864  0.115638  -9.4e-05  0.979417  0.0
H  H26  1  0.76267932  0.43686900  0.47888213  1  0.091332  1.2e-05  0.903732  0.0  0.10494  3.6e-05  0.962011  0.0  0.106575  2.2e-05  0.961066  0.0  0.118934  0.103636  6.3e-05  0.962947  0.0
H  H27  1  0.23730390  0.56313771  0.52111488  1  0.091282  1e-06  0.903661  0.0  0.104903  3.6e-05  0.96196  0.0  0.10654  2.2e-05  0.961012  0.0  0.118925  0.103601  6.3e-05  0.962892  0.0
H  H28  1  0.61157032  0.49358846  0.68825232  1  0.093722  0.000122  0.911657  0.0  0.107347  0.000144  0.971303  0.0  0.109024  0.000129  0.969955  0.0  0.119309  0.106005  0.000166  0.972481  0.0
H  H29  1  0.38842543  0.50642345  0.31174163  1  0.093815  0.000123  0.911666  0.0  0.107422  0.000144  0.971389  0.0  0.1091  0.000129  0.970042  0.0  0.119345  0.106079  0.000166  0.972566  0.0
H  H30  1  0.36800079  0.41991527  0.66098625  1  0.103253  0.000378  0.907274  0.0  0.117385  0.000358  0.964924  0.0  0.118989  0.000267  0.963291  0.0  0.126868  0.115984  0.000449  0.966518  0.0
H  H31  1  0.63199866  0.58009242  0.33901341  1  0.10321  0.000376  0.907291  0.0  0.117429  0.000358  0.964914  0.0  0.119034  0.000268  0.96328  0.0  0.126883  0.116026  0.000449  0.966507  0.0
C  C32  1  0.25206629  0.95521107  0.06282430  1  -0.096569  0.002396  3.765514  0.003  -0.069623  0.001527  4.003808  0.002  -0.082885  0.001126  4.029145  0.002  -0.020109  -0.060736  0.001938  3.986319  0.003
C  C33  1  0.74794178  0.04478620  0.93717864  1  -0.096633  0.002392  3.76559  0.003  -0.069619  0.001527  4.003725  0.002  -0.082884  0.001126  4.029066  0.002  -0.020104  -0.06073  0.001938  3.986238  0.003
C  C34  1  0.32423288  0.08500758  0.07034698  1  -0.025252  0.00074  3.673336  0.001  -0.065262  0.00027  3.923165  0.0  -0.058512  0.000222  3.939652  0.0  -0.063662  -0.068731  0.000157  3.911013  0.0
C  C35  1  0.67578347  0.91498653  0.92965888  1  -0.025252  0.000739  3.673575  0.001  -0.065339  0.000269  3.923417  0.0  -0.058584  0.00022  3.939897  0.0  -0.06373  -0.068813  0.000156  3.911267  0.0
C  C36  1  0.29673136  0.11957238  0.95115213  1  -0.0854  -0.001704  3.770681  -0.002  -0.056125  -0.000814  4.005224  -0.001  -0.068183  -0.000563  4.027291  -0.001  -0.019839  -0.048821  -0.001057  3.990865  -0.001
C  C37  1  0.70328593  0.88042795  0.04885510  1  -0.08539  -0.001694  3.771054  -0.002  -0.056014  -0.000813  4.005463  -0.001  -0.068075  -0.000563  4.027524  -0.001  -0.019828  -0.048703  -0.001056  3.991103  -0.001
C  C38  1  0.19641903  0.02247769  0.82205758  1  -0.02729  0.000248  3.654395  0.0  -0.071214  -0.000165  3.910201  0.0  -0.064272  -2.2e-05  3.925143  0.0  -0.066334  -0.076135  -0.000546  3.901142  0.0
C  C39  1  0.80358705  0.97752579  0.17794726  1  -0.027437  0.000255  3.654618  0.0  -0.071354  -0.000165  3.910427  0.0  -0.064407  -2.2e-05  3.925357  0.0  -0.066362  -0.076279  -0.000547  3.901361  0.0
C  C40  1  0.12011505  0.89347986  0.81369437  1  -0.095931  -0.000264  3.751727  0.0  -0.069331  -5.6e-05  3.995715  0.0  -0.081297  -0.000114  4.019576  0.0  -0.022139  -0.061913  1.2e-05  3.980533  0.0
C  C41  1  0.87988961  0.10652367  0.18630648  1  -0.095723  -0.000265  3.751576  0.0  -0.069228  -5.6e-05  3.995717  0.0  -0.081191  -0.000115  4.019585  0.0  -0.022127  -0.061806  1.2e-05  3.980533  0.0
C  C42  1  0.14779384  0.86017984  0.93423468  1  -0.028948  0.000999  3.661207  0.001  -0.069164  0.000582  3.914134  0.001  -0.062774  0.000509  3.931046  0.001  -0.064606  -0.073973  0.000655  3.903562  0.001
C  C43  1  0.85221079  0.13982366  0.06576900  1  -0.028925  0.00105  3.661254  0.001  -0.069113  0.000581  3.914177  0.001  -0.062719  0.000507  3.931084  0.001  -0.064533  -0.073921  0.000654  3.903596  0.001
C  C44  1  0.28393438  0.92405458  0.19434103  1  0.664375  -0.003573  3.857404  -0.006  0.612304  -0.001011  4.157134  -0.002  0.648022  -0.000476  4.150547  -0.001  0.216543  0.587215  -0.002047  4.161366  -0.003
C  C45  1  0.71605715  0.07593964  0.80565847  1  0.664431  -0.003565  3.857303  -0.006  0.612388  -0.001012  4.156943  -0.002  0.648104  -0.000477  4.150356  -0.001  0.216557  0.5873  -0.002049  4.161179  -0.003
C  C46  1  0.37321633  0.25930763  0.96474337  1  0.636795  0.007566  3.865727  0.013  0.591103  0.002876  4.157692  0.006  0.627871  0.002175  4.153893  0.005  0.204069  0.565556  0.003703  4.157818  0.008
C  C47  1  0.62681363  0.74068953  0.03526645  1  0.636744  0.007559  3.865885  0.013  0.591  0.002875  4.157867  0.006  0.627772  0.002175  4.154068  0.005  0.20406  0.565454  0.003702  4.157988  0.008
C  C48  1  0.98985340  0.79806474  0.67877704  1  0.66334  4.3e-05  3.896116  0.0  0.607317  0.000114  4.202304  0.0  0.640643  5.4e-05  4.195593  0.0  0.212436  0.585023  0.000213  4.205983  0.0
C  C49  1  0.01014520  0.20194709  0.32122491  1  0.66323  2.5e-05  3.896159  0.0  0.607177  0.000114  4.202471  0.0  0.640489  5.5e-05  4.195777  0.0  0.212258  0.584881  0.000213  4.206148  0.0
C  C50  1  0.61378514  0.41050280  0.41135063  1  0.016502  -4.1e-05  3.525922  0.0  -0.04148  -1.4e-05  3.780735  0.0  -0.037987  -3e-06  3.790423  0.0  -0.052733  -0.043845  -2.7e-05  3.77432  0.0
C  C51  1  0.38620001  0.58949765  0.58865016  1  0.016582  -1.6e-05  3.525519  0.0  -0.041519  -1.4e-05  3.780317  0.0  -0.038049  -4e-06  3.790047  0.0  -0.052721  -0.04388  -2.7e-05  3.7739  0.0
C  C52  1  0.46675710  0.46465671  0.61570444  1  0.012042  0.000318  3.542432  0.0  -0.048532  0.000381  3.804498  0.0  -0.044266  0.000299  3.812558  0.0  -0.054766  -0.05126  0.000463  3.799172  0.0
C  C53  1  0.53323937  0.53534067  0.38428736  1  0.012178  0.000327  3.542379  0.0  -0.04863  0.000382  3.804717  0.0  -0.04435  0.000298  3.812752  0.0  -0.054778  -0.051359  0.000463  3.799394  0.0
N  N54  1  0.48614487  0.35656311  0.48253591  1  -0.308794  -2.6e-05  3.310414  0.0  -0.245485  -2.1e-05  3.528085  0.0  -0.260498  -9.8e-05  3.536614  0.0  -0.4852  -0.235044  0.000116  3.522455  0.0
N  N55  1  0.51384943  0.64343944  0.51745931  1  -0.308615  -3.4e-05  3.310269  0.0  -0.245221  -2.1e-05  3.527992  0.0  -0.260251  -9.7e-05  3.536522  0.0  -0.485057  -0.234781  0.000116  3.522355  0.0
O  O56  1  0.38469961  0.01588130  0.30498495  1  -0.624673  0.032133  2.050793  0.058  -0.586082  0.02399  2.316501  0.04  -0.617408  0.019751  2.305086  0.032  -0.309402  -0.563237  0.027965  2.324204  0.047
O  O57  1  0.61528266  0.98410981  0.69501595  1  -0.624825  0.032131  2.050813  0.058  -0.586166  0.023992  2.316388  0.04  -0.617472  0.019754  2.304932  0.032  -0.309408  -0.563317  0.027967  2.324094  0.047
O  O58  1  0.20695757  0.80831428  0.18997760  1  -0.64576  -0.001363  2.012151  -0.002  -0.577803  -0.001014  2.225081  -0.001  -0.603948  -0.000774  2.213066  -0.001  -0.316539  -0.560217  -0.001481  2.233778  -0.002
O  O59  1  0.79302931  0.19167792  0.81001577  1  -0.645685  -0.001375  2.012127  -0.002  -0.577783  -0.001014  2.225042  -0.001  -0.603932  -0.000773  2.213039  -0.001  -0.316501  -0.560189  -0.001481  2.23373  -0.002
O  O60  1  0.45225635  0.34916978  0.08525330  1  -0.619917  -0.041273  1.99943  -0.071  -0.585163  -0.029526  2.261044  -0.049  -0.621971  -0.023045  2.252991  -0.038  -0.310406  -0.556014  -0.03555  2.264952  -0.058
O  O61  1  0.54780325  0.65082007  0.91475341  1  -0.619802  -0.041276  1.99943  -0.071  -0.585048  -0.029526  2.261077  -0.049  -0.621853  -0.023045  2.253023  -0.038  -0.310317  -0.555901  -0.03555  2.264983  -0.058
O  O62  1  0.36177297  0.29488086  0.85772815  1  -0.634089  -0.035921  2.007062  -0.063  -0.588509  -0.027135  2.249134  -0.046  -0.623044  -0.021018  2.23724  -0.035  -0.308924  -0.561661  -0.03279  2.256191  -0.054
O  O63  1  0.63823074  0.70512672  0.14228446  1  -0.634158  -0.035915  2.007282  -0.063  -0.588539  -0.027129  2.249337  -0.046  -0.623073  -0.021014  2.237449  -0.035  -0.308952  -0.561676  -0.032783  2.256358  -0.054
O  O64  1  0.99462735  0.82149845  0.56702978  1  -0.667458  0.000769  2.023262  0.002  -0.600608  0.000598  2.2422  0.001  -0.625148  0.000318  2.22841  0.001  -0.327789  -0.584025  0.000925  2.251698  0.002
O  O65  1  0.00536424  0.17851546  0.43297287  1  -0.667373  0.000774  2.02333  0.002  -0.600522  0.000598  2.242288  0.001  -0.625054  0.000317  2.228504  0.001  -0.327638  -0.583939  0.000925  2.251784  0.002
O  O66  1  0.87676450  0.70391166  0.68352360  1  -0.615109  6.6e-05  1.934675  0.0  -0.571807  9.7e-05  2.162643  0.0  -0.595131  4.5e-05  2.153638  0.0  -0.329038  -0.555533  0.000187  2.168307  0.0
O  O67  1  0.12323481  0.29609501  0.31647378  1  -0.615158  7e-05  1.934688  0.0  -0.571855  9.7e-05  2.162666  0.0  -0.595162  4.5e-05  2.15366  0.0  -0.329054  -0.555585  0.000187  2.168333  0.0
O  O68  1  0.71424950  0.16689019  0.54911948  1  -0.848613  0.03035  1.974236  0.049  -0.800799  0.026422  2.18049  0.038  -0.829309  0.02165  2.144788  0.031  -0.567656  -0.7788  0.03093  2.205177  0.045
O  O69  1  0.28574492  0.83311337  0.45087991  1  -0.848476  0.030352  1.974237  0.049  -0.800667  0.026423  2.180501  0.038  -0.829178  0.021652  2.144798  0.031  -0.567598  -0.778666  0.030932  2.205183  0.045
O  O70  1  0.32909497  0.14798814  0.58795116  1  -0.870413  0.033216  1.954337  0.053  -0.834553  0.028397  2.173699  0.041  -0.863707  0.023008  2.137323  0.032  -0.587167  -0.811107  0.034163  2.198924  0.05
O  O71  1  0.67089665  0.85201643  0.41205201  1  -0.870426  0.033222  1.954231  0.053  -0.834564  0.028399  2.17361  0.041  -0.863737  0.023009  2.137267  0.032  -0.58716  -0.811116  0.034167  2.198837  0.05
O  O72  1  0.22151142  0.55933864  0.02446086  1  -0.82981  -0.030227  1.907442  -0.047  -0.790971  -0.02858  2.109612  -0.041  -0.818117  -0.023337  2.075296  -0.033  -0.565974  -0.768454  -0.03352  2.134459  -0.048
O  O73  1  0.77851911  0.44066172  0.97553875  1  -0.829835  -0.030212  1.907246  -0.047  -0.791024  -0.028574  2.109362  -0.041  -0.818163  -0.023332  2.075038  -0.033  -0.565812  -0.768513  -0.033513  2.134215  -0.048
