# generated using pymatgen
data_Hg2H10C11S2(NCl2)2
_symmetry_space_group_name_H-M   'P 1'
_cell_length_a   7.74630542
_cell_length_b   9.10439158
_cell_length_c   14.16850213
_cell_angle_alpha   85.62087159
_cell_angle_beta   79.60558372
_cell_angle_gamma   64.79887825
_symmetry_Int_Tables_number   1
_chemical_formula_structural   Hg2H10C11S2(NCl2)2
_chemical_formula_sum   'Hg4 H20 C22 S4 N4 Cl8'
_cell_volume   889.29262106
_cell_formula_units_Z   2
loop_
 _symmetry_equiv_pos_site_id
 _symmetry_equiv_pos_as_xyz
  1  'x, y, z'
loop_
 _atom_site_type_symbol
 _atom_site_label
 _atom_site_symmetry_multiplicity
 _atom_site_fract_x
 _atom_site_fract_y
 _atom_site_fract_z
 _atom_site_occupancy
 _atom_site_hle17_bader_spin_density
 _atom_site_hle17_ddec_charge
 _atom_site_hle17_ddec_spin_density
 _atom_site_hle17_ddec_sum_bond_order
 _atom_site_hle17_magmom
 _atom_site_hse06_10hf_bader_spin_density
 _atom_site_hse06_10hf_ddec_charge
 _atom_site_hse06_10hf_ddec_spin_density
 _atom_site_hse06_10hf_ddec_sum_bond_order
 _atom_site_hse06_10hf_magmom
 _atom_site_hse06_bader_spin_density
 _atom_site_hse06_ddec_charge
 _atom_site_hse06_ddec_spin_density
 _atom_site_hse06_ddec_sum_bond_order
 _atom_site_hse06_magmom
 _atom_site_pbe_bader_spin_density
 _atom_site_pbe_cm5_charge
 _atom_site_pbe_ddec_charge
 _atom_site_pbe_ddec_spin_density
 _atom_site_pbe_ddec_sum_bond_order
 _atom_site_pbe_magmom
Hg  Hg0  1  0.03233916  0.93084996  0.87621896  1  0  0.694765  0  2.192566  0  0  0.550518  0  2.690693  0  0  0.597371  0  2.657026  0  0  0.48497  0.518533  0  2.713  0
Hg  Hg1  1  0.96311750  0.06899361  0.37620532  1  0  0.694487  0  2.19369  0  0  0.55003  0  2.691852  0  0  0.596932  0  2.658098  0  0  0.485002  0.518003  0  2.714216  0
Hg  Hg2  1  0.96766843  0.06914450  0.12377917  1  0  0.694783  0  2.192609  0  0  0.550503  0  2.690749  0  0  0.597351  0  2.657084  0  0  0.484967  0.518518  0  2.713043  0
Hg  Hg3  1  0.03687797  0.93100935  0.62379503  1  0  0.694507  0  2.193681  0  0  0.550041  0  2.691849  0  0  0.596945  0  2.658092  0  0  0.485011  0.518018  0  2.714201  0
H  H4  1  0.44767343  0.33589891  0.74550711  1  0  0.135389  0  0.937321  0  0  0.148787  0  0.997517  0  0  0.150346  0  0.996672  0  0  0.103397  0.147614  0  0.998305  0
H  H5  1  0.78324746  0.66403288  0.24568798  1  0  0.135919  0  0.936806  0  0  0.148665  0  0.997538  0  0  0.150192  0  0.996768  0  0  0.103637  0.147497  0  0.998319  0
H  H6  1  0.55232525  0.66410283  0.25448944  1  0  0.135369  0  0.93729  0  0  0.148785  0  0.997479  0  0  0.150344  0  0.996635  0  0  0.103412  0.147611  0  0.998263  0
H  H7  1  0.21674935  0.33597008  0.75431435  1  0  0.135922  0  0.93676  0  0  0.148682  0  0.997474  0  0  0.15021  0  0.996702  0  0  0.103653  0.147514  0  0.998259  0
H  H8  1  0.61755242  0.34632508  0.86086394  1  0  0.115801  0  0.977056  0  0  0.122517  0  1.044083  0  0  0.126025  0  1.042632  0  0  0.095054  0.119939  0  1.045351  0
H  H9  1  0.96360890  0.65340002  0.36086482  1  0  0.114709  0  0.978178  0  0  0.121648  0  1.044978  0  0  0.125084  0  1.043594  0  0  0.094778  0.119101  0  1.046231  0
H  H10  1  0.38245722  0.65367059  0.13913816  1  0  0.115841  0  0.977026  0  0  0.122565  0  1.044048  0  0  0.126074  0  1.042595  0  0  0.095058  0.119985  0  1.04532  0
H  H11  1  0.03637555  0.34660658  0.63913576  1  0  0.114723  0  0.978237  0  0  0.121664  0  1.045024  0  0  0.125099  0  1.043643  0  0  0.094791  0.119118  0  1.046278  0
H  H12  1  0.86474944  0.43898028  0.88429442  1  0  0.097546  0  0.977684  0  0  0.107003  0  1.04188  0  0  0.110004  0  1.03908  0  0  0.090073  0.104746  0  1.044019  0
H  H13  1  0.30345052  0.56064271  0.38448898  1  0  0.097519  0  0.977363  0  0  0.107257  0  1.041325  0  0  0.110199  0  1.038542  0  0  0.089987  0.104993  0  1.043499  0
H  H14  1  0.13526014  0.56101296  0.11571063  1  0  0.097618  0  0.977636  0  0  0.107062  0  1.041846  0  0  0.110063  0  1.039044  0  0  0.09011  0.104805  0  1.04399  0
H  H15  1  0.69653584  0.43936267  0.61551006  1  0  0.097502  0  0.977372  0  0  0.107277  0  1.041294  0  0  0.110198  0  1.038537  0  0  0.090021  0.105009  0  1.043473  0
H  H16  1  0.76555056  0.73943130  0.90728312  1  0  0.097061  0  0.998776  0  0  0.100408  0  1.074115  0  0  0.103103  0  1.073337  0  0  0.087757  0.098357  0  1.074933  0
H  H17  1  0.50470788  0.26021908  0.40757012  1  0  0.097149  0  0.999086  0  0  0.100669  0  1.074154  0  0  0.103328  0  1.073403  0  0  0.088163  0.098685  0  1.074952  0
H  H18  1  0.23445969  0.26056315  0.09271827  1  0  0.097034  0  0.998901  0  0  0.100411  0  1.074209  0  0  0.103105  0  1.073432  0  0  0.087754  0.098349  0  1.075039  0
H  H19  1  0.49528120  0.73978873  0.59242781  1  0  0.097198  0  0.999122  0  0  0.100752  0  1.074149  0  0  0.103411  0  1.073399  0  0  0.088201  0.098771  0  1.074944  0
H  H20  1  0.42047722  0.93163753  0.90225395  1  0  0.089952  0  0.965494  0  0  0.096344  0  1.033243  0  0  0.09895  0  1.030431  0  0  0.102247  0.094337  0  1.035421  0
H  H21  1  0.35195883  0.06811013  0.40237490  1  0  0.090436  0  0.965636  0  0  0.096277  0  1.033975  0  0  0.098922  0  1.031164  0  0  0.10195  0.094234  0  1.036168  0
H  H22  1  0.57953692  0.06835693  0.09774210  1  0  0.089915  0  0.965475  0  0  0.096334  0  1.033177  0  0  0.098938  0  1.030367  0  0  0.102245  0.094326  0  1.035351  0
H  H23  1  0.64803663  0.93189282  0.59762474  1  0  0.090428  0  0.965673  0  0  0.096278  0  1.034015  0  0  0.098895  0  1.031229  0  0  0.101951  0.094237  0  1.036208  0
C  C24  1  0.29275873  0.41480850  0.74995694  1  0  -0.192188  0  3.587282  0  0  -0.221919  0  3.85425  0  0  -0.218731  0  3.860032  0  0  -0.136323  -0.224253  0  3.850323  0
C  C25  1  0.70724119  0.58519081  0.25004314  1  0  -0.192166  0  3.587278  0  0  -0.221913  0  3.854253  0  0  -0.218725  0  3.860037  0  0  -0.136308  -0.224246  0  3.850319  0
C  C26  1  0.38895579  0.58988760  0.86702002  1  0  0.177742  0  3.764206  0  0  0.177016  0  4.02499  0  0  0.186517  0  4.047015  0  0  0.111748  0.170552  0  4.010067  0
C  C27  1  0.97862803  0.40989823  0.36700973  1  0  0.177689  0  3.763338  0  0  0.176723  0  4.024085  0  0  0.1862  0  4.046159  0  0  0.111968  0.170249  0  4.009184  0
C  C28  1  0.61105392  0.41011050  0.13297913  1  0  0.177798  0  3.76416  0  0  0.177007  0  4.024959  0  0  0.186511  0  4.046984  0  0  0.111685  0.170541  0  4.010035  0
C  C29  1  0.02136077  0.59010230  0.63299071  1  0  0.177669  0  3.763317  0  0  0.176681  0  4.024063  0  0  0.186155  0  4.046137  0  0  0.111935  0.170212  0  4.009151  0
C  C30  1  0.57918132  0.47545773  0.86814145  1  0  -0.13815  0  3.691523  0  0  -0.152875  0  3.934027  0  0  -0.161249  0  3.955767  0  0  -0.083482  -0.14743  0  3.919529  0
C  C31  1  0.05437920  0.52427561  0.36818012  1  0  -0.137444  0  3.691487  0  0  -0.152311  0  3.934183  0  0  -0.160598  0  3.955941  0  0  -0.083424  -0.146888  0  3.919637  0
C  C32  1  0.42083025  0.52453673  0.13186051  1  0  -0.138251  0  3.691389  0  0  -0.152968  0  3.933907  0  0  -0.161343  0  3.955644  0  0  -0.083494  -0.14752  0  3.919414  0
C  C33  1  0.94561234  0.47572735  0.63182063  1  0  -0.137357  0  3.691669  0  0  -0.152214  0  3.934368  0  0  -0.160498  0  3.956122  0  0  -0.083383  -0.146799  0  3.919824  0
C  C34  1  0.71740147  0.52851966  0.88118820  1  0  0.008785  0  3.700693  0  0  -0.009482  0  3.947604  0  0  -0.005336  0  3.965455  0  0  -0.068397  -0.011961  0  3.935525  0
C  C35  1  0.24567895  0.47114692  0.38132436  1  0  0.009264  0  3.699844  0  0  -0.009246  0  3.946745  0  0  -0.005039  0  3.964604  0  0  -0.068205  -0.011719  0  3.934667  0
C  C36  1  0.28260626  0.47147722  0.11881403  1  0  0.008767  0  3.700527  0  0  -0.009505  0  3.947475  0  0  -0.005358  0  3.965324  0  0  -0.068403  -0.011991  0  3.935406  0
C  C37  1  0.75431461  0.52885725  0.61867612  1  0  0.009305  0  3.69973  0  0  -0.009252  0  3.94669  0  0  -0.00502  0  3.964537  0  0  -0.06821  -0.01172  0  3.934613  0
C  C38  1  0.66326022  0.69332872  0.89459669  1  0  -0.102743  0  3.710636  0  0  -0.116612  0  3.962773  0  0  -0.123238  0  3.983742  0  0  -0.083716  -0.112488  0  3.948938  0
C  C39  1  0.35633845  0.30633740  0.39476731  1  0  -0.102727  0  3.711885  0  0  -0.116712  0  3.964267  0  0  -0.123293  0  3.985206  0  0  -0.083941  -0.112666  0  3.950379  0
C  C40  1  0.33674941  0.30666695  0.10540400  1  0  -0.102744  0  3.710773  0  0  -0.116648  0  3.962931  0  0  -0.123273  0  3.983901  0  0  -0.083731  -0.112516  0  3.94911  0
C  C41  1  0.64365075  0.69367284  0.60523331  1  0  -0.10289  0  3.711962  0  0  -0.116915  0  3.964403  0  0  -0.123494  0  3.985331  0  0  -0.084032  -0.11287  0  3.950517  0
C  C42  1  0.47222534  0.80118931  0.89253904  1  0  0.144721  0  3.652913  0  0  0.11091  0  3.897838  0  0  0.119155  0  3.916023  0  0  0.046964  0.105602  0  3.885556  0
C  C43  1  0.27324353  0.19853541  0.39264153  1  0  0.14292  0  3.654988  0  0  0.109184  0  3.900084  0  0  0.117385  0  3.918221  0  0  0.046681  0.103927  0  3.887808  0
C  C44  1  0.52778436  0.19880879  0.10745870  1  0  0.144757  0  3.652991  0  0  0.110912  0  3.897885  0  0  0.119158  0  3.916068  0  0  0.046972  0.105612  0  3.885572  0
C  C45  1  0.72674881  0.80147119  0.60735895  1  0  0.143013  0  3.655054  0  0  0.10925  0  3.900163  0  0  0.117472  0  3.918313  0  0  0.046697  0.103994  0  3.887878  0
S  S46  1  0.20006876  0.53376411  0.85982667  1  0  0.010708  0  2.42204  0  0  0.01144  0  2.770554  0  0  0.004151  0  2.77217  0  0  0.02097  0.017034  0  2.769155  0
S  S47  1  0.73358559  0.46605438  0.35978284  1  0  0.010566  0  2.422556  0  0  0.011237  0  2.77132  0  0  0.003954  0  2.772933  0  0  0.020918  0.016822  0  2.769952  0
S  S48  1  0.79994098  0.46623399  0.14017459  1  0  0.0107  0  2.422013  0  0  0.011442  0  2.770547  0  0  0.004158  0  2.772152  0  0  0.020953  0.01703  0  2.769146  0
S  S49  1  0.26640846  0.53394615  0.64021636  1  0  0.010586  0  2.422401  0  0  0.01125  0  2.771187  0  0  0.003968  0  2.772798  0  0  0.020945  0.016835  0  2.769817  0
N  N50  1  0.33961178  0.74996465  0.87797157  1  0  -0.30313  0  3.332515  0  0  -0.213163  0  3.580601  0  0  -0.237468  0  3.606037  0  0  -0.30428  -0.196984  0  3.563195  0
N  N51  1  0.08938572  0.24981472  0.37799244  1  0  -0.302271  0  3.332838  0  0  -0.211568  0  3.58007  0  0  -0.235822  0  3.605468  0  0  -0.304368  -0.195381  0  3.562621  0
N  N52  1  0.66039914  0.25003102  0.12202687  1  0  -0.303152  0  3.332496  0  0  -0.213075  0  3.580484  0  0  -0.237373  0  3.605901  0  0  -0.304219  -0.19689  0  3.563068  0
N  N53  1  0.91060197  0.75019066  0.62200787  1  0  -0.302391  0  3.33278  0  0  -0.211642  0  3.579998  0  0  -0.235896  0  3.60539  0  0  -0.304427  -0.195451  0  3.562541  0
Cl  Cl54  1  0.73075043  0.04600238  0.81514791  1  0  -0.429727  0  1.041488  0  0  -0.370239  0  1.317099  0  0  -0.388374  0  1.300326  0  0  -0.247491  -0.357788  0  1.32851  0
Cl  Cl55  1  0.77683721  0.95374799  0.31513720  1  0  -0.429808  0  1.041389  0  0  -0.370224  0  1.31659  0  0  -0.388389  0  1.299906  0  0  -0.247694  -0.357739  0  1.327966  0
Cl  Cl56  1  0.26924748  0.95399572  0.18485314  1  0  -0.42973  0  1.041502  0  0  -0.37025  0  1.31713  0  0  -0.388385  0  1.300357  0  0  -0.247506  -0.357804  0  1.328544  0
Cl  Cl57  1  0.22316280  0.04625375  0.68486204  1  0  -0.429795  0  1.041358  0  0  -0.370221  0  1.316571  0  0  -0.388386  0  1.299885  0  0  -0.247687  -0.357736  0  1.327951  0
Cl  Cl58  1  0.08741147  0.16995764  0.94570329  1  0  -0.502502  0  1.025027  0  0  -0.451189  0  1.309012  0  0  -0.470157  0  1.290183  0  0  -0.287497  -0.437536  0  1.321586  0
Cl  Cl59  1  0.25739142  0.82979071  0.44564911  1  0  -0.50245  0  1.024523  0  0  -0.451085  0  1.308573  0  0  -0.470125  0  1.289876  0  0  -0.287451  -0.437389  0  1.321092  0
Cl  Cl60  1  0.91260129  0.83003438  0.05429656  1  0  -0.502482  0  1.025019  0  0  -0.451181  0  1.30901  0  0  -0.470148  0  1.290182  0  0  -0.287497  -0.437524  0  1.321576  0
Cl  Cl61  1  0.74259680  0.17021104  0.55435344  1  0  -0.502467  0  1.024497  0  0  -0.451119  0  1.308551  0  0  -0.470153  0  1.289846  0  0  -0.287464  -0.437422  0  1.321069  0
