# generated using pymatgen
data_CoH6(C3N)4
_symmetry_space_group_name_H-M   'P 1'
_cell_length_a   13.25314735
_cell_length_b   13.25474639
_cell_length_c   13.85327516
_cell_angle_alpha   89.99994538
_cell_angle_beta   89.99646470
_cell_angle_gamma   89.99936839
_symmetry_Int_Tables_number   1
_chemical_formula_structural   CoH6(C3N)4
_chemical_formula_sum   'Co4 H24 C48 N16'
_cell_volume   2433.56476577
_cell_formula_units_Z   4
loop_
 _symmetry_equiv_pos_site_id
 _symmetry_equiv_pos_as_xyz
  1  'x, y, z'
loop_
 _atom_site_type_symbol
 _atom_site_label
 _atom_site_symmetry_multiplicity
 _atom_site_fract_x
 _atom_site_fract_y
 _atom_site_fract_z
 _atom_site_occupancy
 _atom_site_pbe_bader_charge
 _atom_site_pbe_bader_spin_density
 _atom_site_pbe_cm5_charge
 _atom_site_pbe_ddec_charge
 _atom_site_pbe_ddec_spin_density
 _atom_site_pbe_ddec_sum_bond_order
 _atom_site_pbe_magmom
Co  Co0  1  0.97288842  0.00444016  0.87218983  1  1.157282  2.348854  0.775767  0.644547  2.592745  2.957274  2.283
Co  Co1  1  0.02715180  0.99555172  0.37215478  1  1.157203  2.348527  0.775689  0.644561  2.59229  2.957408  2.282
Co  Co2  1  0.02709915  0.00444248  0.62782475  1  1.157016  2.348922  0.775664  0.644425  2.592784  2.957358  2.283
Co  Co3  1  0.97284908  0.99555040  0.12783976  1  1.157445  2.348494  0.77571  0.644383  2.592267  2.95748  2.282
H  H4  1  0.73800460  0.99496212  0.84343842  1  0.125154  0.00053  0.122985  0.108041  -0.001669  1.007618  0.001
H  H5  1  0.91761086  0.77081876  0.88548037  1  0.102851  0.000676  0.125483  0.111934  -0.001051  0.995556  0.001
H  H6  1  0.94610279  0.59694579  0.89711946  1  0.050761  -0.000313  0.100207  0.099603  -0.000189  1.007895  0.0
H  H7  1  0.94548889  0.41087056  0.89633130  1  0.100654  -0.002732  0.09693  0.095426  -0.00449  1.018501  -0.001
H  H8  1  0.56355183  0.00784197  0.84427916  1  0.013862  -0.000281  0.099475  0.099574  2.9e-05  1.009795  0.0
H  H9  1  0.37750015  0.00759855  0.84502883  1  0.068137  -0.002627  0.095628  0.092382  -0.004315  1.024988  -0.001
H  H10  1  0.26199373  0.00502602  0.34343458  1  0.125063  0.00053  0.122963  0.108009  -0.001673  1.007644  0.001
H  H11  1  0.08243152  0.22917990  0.38543630  1  0.088349  0.000707  0.125333  0.11173  -0.00105  0.995458  0.001
H  H12  1  0.05392224  0.40305437  0.39709639  1  0.05104  -0.000313  0.10024  0.099614  -0.000189  1.007764  0.0
H  H13  1  0.05453090  0.58912960  0.39631524  1  0.10014  -0.002729  0.097035  0.095515  -0.004483  1.018466  -0.001
H  H14  1  0.43637628  0.99212882  0.34422595  1  0.012662  -0.00028  0.099483  0.099522  3e-05  1.00963  0.0
H  H15  1  0.62242187  0.99241071  0.34488244  1  0.069352  -0.002611  0.095611  0.092106  -0.004296  1.024756  -0.001
H  H16  1  0.26198790  0.99497012  0.65657524  1  0.124427  0.00053  0.123033  0.108169  -0.00167  1.007383  0.001
H  H17  1  0.08238411  0.77082048  0.61452556  1  0.10305  0.000677  0.125483  0.111951  -0.001051  0.99541  0.001
H  H18  1  0.05390165  0.59694255  0.60288518  1  0.050974  -0.000313  0.100237  0.099672  -0.000189  1.007803  0.0
H  H19  1  0.05451307  0.41086807  0.60367424  1  0.100684  -0.002733  0.096979  0.095481  -0.00449  1.018448  -0.001
H  H20  1  0.43645608  0.00784427  0.65572458  1  0.013506  -0.000281  0.099524  0.099634  2.9e-05  1.009732  0.0
H  H21  1  0.62250625  0.00760635  0.65495326  1  0.068376  -0.002629  0.095678  0.092418  -0.00432  1.024953  -0.001
H  H22  1  0.73798486  0.00503254  0.15657603  1  0.12475  0.000529  0.12301  0.108025  -0.001673  1.007562  0.001
H  H23  1  0.91757177  0.22918222  0.11455173  1  0.088008  0.000706  0.125475  0.111906  -0.001051  0.995649  0.001
H  H24  1  0.94608366  0.40306016  0.10289148  1  0.051127  -0.000313  0.100224  0.099649  -0.000189  1.007853  0.0
H  H25  1  0.94547521  0.58913615  0.10368040  1  0.10007  -0.002726  0.097007  0.095482  -0.004482  1.018445  -0.001
H  H26  1  0.56359823  0.99214405  0.15578015  1  0.012955  -0.00028  0.099564  0.099669  2.9e-05  1.009557  0.0
H  H27  1  0.37755037  0.99241366  0.15510272  1  0.06912  -0.002615  0.095612  0.092194  -0.0043  1.024679  -0.001
C  C28  1  0.75449327  0.99724721  0.92017431  1  0.383631  0.019675  0.018147  -0.039829  0.011556  3.941632  0.014
C  C29  1  0.95780263  0.78740508  0.81905013  1  0.421242  0.025982  0.023759  -0.030523  0.015215  3.925836  0.019
C  C30  1  0.96935922  0.55680384  0.83207137  1  -0.148141  0.002861  -0.090647  -0.124968  0.001781  3.986452  0.001
C  C31  1  0.96924435  0.45221263  0.83211184  1  0.033366  0.00991  -0.089554  -0.121667  0.004441  3.978774  0.005
C  C32  1  0.52356666  0.00420195  0.91302076  1  0.048776  0.002594  -0.091676  -0.124587  0.001676  3.985062  0.001
C  C33  1  0.41899753  0.00417914  0.91300000  1  -0.083098  0.011399  -0.089922  -0.123556  0.005104  3.983645  0.006
C  C34  1  0.18718062  0.00471154  0.92162929  1  0.447117  -0.58781  0.062767  0.002698  -0.633018  3.32821  -0.336
C  C35  1  0.97152385  0.22035153  0.82365034  1  0.459816  -0.601087  0.063808  0.005873  -0.648876  3.332908  -0.343
C  C36  1  0.24550007  0.00274010  0.42016999  1  0.383887  0.019641  0.018115  -0.039864  0.011539  3.941614  0.014
C  C37  1  0.04222144  0.21259742  0.31901926  1  0.436408  0.025904  0.024039  -0.030027  0.015189  3.926046  0.019
C  C38  1  0.03065494  0.44320166  0.33205684  1  -0.148162  0.002861  -0.090606  -0.124868  0.00178  3.986225  0.001
C  C39  1  0.03076905  0.54778834  0.33209793  1  0.034058  0.009906  -0.089633  -0.121699  0.004438  3.979026  0.005
C  C40  1  0.47638641  0.99578310  0.41295149  1  0.047845  0.0026  -0.091722  -0.124689  0.001679  3.984678  0.001
C  C41  1  0.58096232  0.99582553  0.41286614  1  -0.084039  0.01142  -0.089968  -0.123338  0.005123  3.983412  0.006
C  C42  1  0.81286922  0.99530443  0.42152012  1  0.447351  -0.587957  0.062508  0.002654  -0.63323  3.327753  -0.336
C  C43  1  0.02854217  0.77964116  0.32361831  1  0.460083  -0.600347  0.063667  0.005801  -0.648068  3.332923  -0.343
C  C44  1  0.24549770  0.99725245  0.57984369  1  0.384186  0.019675  0.018029  -0.039987  0.011555  3.941192  0.014
C  C45  1  0.04219820  0.78740793  0.68096012  1  0.420893  0.025979  0.023811  -0.030549  0.015213  3.926008  0.019
C  C46  1  0.03064339  0.55680231  0.66793332  1  -0.148171  0.002861  -0.090625  -0.125035  0.001781  3.986224  0.001
C  C47  1  0.03076017  0.45221034  0.66789655  1  0.033662  0.009911  -0.089699  -0.121751  0.004441  3.978795  0.005
C  C48  1  0.47642997  0.00420086  0.58697577  1  0.049022  0.002591  -0.091677  -0.124723  0.001675  3.984928  0.001
C  C49  1  0.58100362  0.00418218  0.58698932  1  -0.083178  0.011398  -0.09002  -0.123569  0.005103  3.983676  0.006
C  C50  1  0.81280922  0.00472712  0.57835858  1  0.447393  -0.587906  0.062864  0.002792  -0.633123  3.328088  -0.336
C  C51  1  0.02850208  0.22034699  0.67637558  1  0.460137  -0.601113  0.063781  0.005935  -0.64891  3.332771  -0.343
C  C52  1  0.75448609  0.00274501  0.07984424  1  0.38356  0.019658  0.018281  -0.03953  0.011543  3.941547  0.014
C  C53  1  0.95778204  0.21259696  0.18096590  1  0.436568  0.025906  0.023895  -0.030258  0.015191  3.926166  0.019
C  C54  1  0.96934297  0.44320411  0.16793533  1  -0.148379  0.002862  -0.090625  -0.125081  0.00178  3.986408  0.001
C  C55  1  0.96923072  0.54779155  0.16789775  1  0.034015  0.009907  -0.089641  -0.121574  0.00444  3.978787  0.005
C  C56  1  0.52359636  0.99579281  0.08704811  1  0.047185  0.0026  -0.09168  -0.124894  0.001678  3.984819  0.001
C  C57  1  0.41902346  0.99582658  0.08712336  1  -0.084161  0.011422  -0.090007  -0.123255  0.005123  3.983433  0.006
C  C58  1  0.18713317  0.99530956  0.07846937  1  0.447641  -0.587893  0.062576  0.002631  -0.633182  3.32786  -0.336
C  C59  1  0.97149505  0.77964056  0.17636055  1  0.459626  -0.600313  0.063557  0.005468  -0.648037  3.332818  -0.343
C  C60  1  0.00000105  0.72163094  0.75000354  1  0.02808  0.026322  -0.022538  -0.020255  0.014057  4.047561  0.016
C  C61  1  0.00000090  0.61181669  0.75000287  1  0.046633  0.019245  -0.008784  0.080568  0.010339  4.044094  0.011
C  C62  1  0.00000661  0.39748517  0.75000585  1  -0.091498  0.007798  -0.005514  0.103754  0.004212  4.04594  0.003
C  C63  1  0.00001249  0.28854683  0.75001168  1  0.08114  -0.015602  -0.028277  -0.06615  -0.001782  4.130504  -0.029
C  C64  1  0.00000090  0.27837487  0.24999563  1  0.02711  0.026321  -0.02274  -0.020887  0.014055  4.048057  0.015
C  C65  1  0.99999823  0.38818814  0.24999592  1  0.046525  0.019239  -0.008745  0.080805  0.010336  4.043827  0.011
C  C66  1  0.00000439  0.60251838  0.24999692  1  -0.091434  0.007804  -0.005555  0.10356  0.004217  4.046098  0.003
C  C67  1  0.00001511  0.71145144  0.24999182  1  0.080473  -0.015577  -0.02833  -0.066142  -0.001775  4.130687  -0.029
C  C68  1  0.68859771  0.99999421  0.00000827  1  0.00957  0.027785  -0.025524  -0.023652  0.014783  4.058896  0.017
C  C69  1  0.57873249  0.99999557  0.00002808  1  0.014308  0.021153  -0.009503  0.080391  0.011343  4.041892  0.012
C  C70  1  0.36418368  0.00000705  0.00006514  1  0.066701  0.007756  -0.005837  0.103621  0.004188  4.047741  0.003
C  C71  1  0.25530539  0.00000991  0.00006688  1  -0.03816  -0.009856  -0.029945  -0.066563  0.001847  4.141051  -0.025
C  C72  1  0.31139255  0.99999076  0.49999999  1  0.00916  0.027786  -0.025545  -0.023684  0.014782  4.058718  0.017
C  C73  1  0.42125702  0.99998940  0.49997728  1  0.013714  0.021147  -0.009513  0.080486  0.011339  4.041895  0.012
C  C74  1  0.63581082  0.00001285  0.49991661  1  0.066585  0.007753  -0.005744  0.103789  0.004186  4.047696  0.003
C  C75  1  0.74468835  0.00001828  0.49991559  1  -0.038217  -0.00988  -0.029894  -0.066627  0.001836  4.140756  -0.025
N  N76  1  0.97351017  0.88392289  0.79253532  1  -0.754738  0.100656  -0.283124  -0.188114  0.052377  3.657742  0.069
N  N77  1  0.85106858  0.99809240  0.95048128  1  -0.830272  0.099337  -0.279955  -0.182259  0.051611  3.65327  0.068
N  N78  1  0.09182506  0.00250228  0.94805038  1  -0.867109  0.018007  -0.294915  -0.20327  0.016449  3.671068  0.018
N  N79  1  0.97938598  0.12497434  0.79836372  1  -0.853232  0.011994  -0.296761  -0.216772  0.011055  3.679143  0.015
N  N80  1  0.02651336  0.11607964  0.29250978  1  -0.754867  0.100644  -0.283228  -0.188365  0.052375  3.65819  0.069
N  N81  1  0.14892430  0.00190695  0.45048262  1  -0.83067  0.099347  -0.280046  -0.18234  0.051608  3.653168  0.068
N  N82  1  0.90820268  0.99747595  0.44799699  1  -0.802925  0.01859  -0.295108  -0.203529  0.016408  3.670604  0.018
N  N83  1  0.02067113  0.87501912  0.29832267  1  -0.852893  0.012111  -0.29687  -0.217223  0.011119  3.6796  0.015
N  N84  1  0.02649110  0.88392438  0.70747773  1  -0.775521  0.100829  -0.28312  -0.188039  0.052375  3.657872  0.069
N  N85  1  0.14892237  0.99810099  0.54953599  1  -0.730099  0.098446  -0.279903  -0.182096  0.051611  3.652917  0.068
N  N86  1  0.90816781  0.00251231  0.55194976  1  -0.866881  0.018002  -0.294985  -0.203244  0.016442  3.670959  0.018
N  N87  1  0.02063347  0.12496911  0.70166446  1  -0.863466  0.011909  -0.296777  -0.217014  0.011063  3.679308  0.015
N  N88  1  0.97350024  0.11608125  0.20747402  1  -0.775494  0.100831  -0.283199  -0.18808  0.052377  3.658  0.069
N  N89  1  0.85106113  0.00190403  0.04953306  1  -0.7304  0.09846  -0.280232  -0.182556  0.05161  3.65365  0.068
N  N90  1  0.09179817  0.99748291  0.05200044  1  -0.802922  0.018608  -0.295096  -0.203382  0.016432  3.670877  0.018
N  N91  1  0.97937032  0.87501690  0.20165682  1  -0.863357  0.012037  -0.296629  -0.216379  0.011143  3.679038  0.015
