# generated using pymatgen
data_Cd3P2H28C14N2(ClO6)2
_symmetry_space_group_name_H-M   'P 1'
_cell_length_a   6.93387072
_cell_length_b   15.87286214
_cell_length_c   26.44298441
_cell_angle_alpha   89.99990046
_cell_angle_beta   89.99957762
_cell_angle_gamma   90.00010485
_symmetry_Int_Tables_number   1
_chemical_formula_structural   Cd3P2H28C14N2(ClO6)2
_chemical_formula_sum   'Cd12 P8 H112 C56 N8 Cl8 O48'
_cell_volume   2910.32475390
_cell_formula_units_Z   4
loop_
 _symmetry_equiv_pos_site_id
 _symmetry_equiv_pos_as_xyz
  1  'x, y, z'
loop_
 _atom_site_type_symbol
 _atom_site_label
 _atom_site_symmetry_multiplicity
 _atom_site_fract_x
 _atom_site_fract_y
 _atom_site_fract_z
 _atom_site_occupancy
 _atom_site_pbe_bader_charge
 _atom_site_pbe_bader_spin_density
 _atom_site_pbe_cm5_charge
 _atom_site_pbe_ddec_charge
 _atom_site_pbe_ddec_spin_density
 _atom_site_pbe_ddec_sum_bond_order
 _atom_site_pbe_magmom
Cd  Cd0  1  0.39509323  0.48788631  0.01676298  1  1.288437  0  0.701024  1.036171  0  2.341278  0
Cd  Cd1  1  0.10490200  0.51211047  0.51676467  1  1.288467  0  0.70107  1.036181  0  2.341281  0
Cd  Cd2  1  0.60490845  0.98789007  0.48323444  1  1.288464  0  0.70104  1.036142  0  2.341391  0
Cd  Cd3  1  0.89509084  0.01211208  0.98323497  1  1.288416  0  0.701051  1.036184  0  2.341394  0
Cd  Cd4  1  0.63516802  0.24674214  0.00639037  1  1.289849  0  0.708416  1.047833  0  2.236464  0
Cd  Cd5  1  0.86483317  0.75325697  0.50639055  1  1.289774  0  0.708423  1.047854  0  2.236452  0
Cd  Cd6  1  0.36483266  0.74674378  0.49360920  1  1.289728  0  0.708438  1.047872  0  2.236417  0
Cd  Cd7  1  0.13516644  0.25325731  0.99361035  1  1.289797  0  0.708415  1.047838  0  2.236493  0
Cd  Cd8  1  0.73755566  0.49300258  0.11760376  1  1.355148  0  0.782877  1.116462  0  2.012242  0
Cd  Cd9  1  0.76243085  0.50699369  0.61760705  1  1.355172  0  0.78285  1.116344  0  2.012264  0
Cd  Cd10  1  0.26242729  0.99300825  0.38239668  1  1.355289  0  0.782852  1.116485  0  2.012283  0
Cd  Cd11  1  0.23757206  0.00699568  0.88239525  1  1.355385  0  0.782846  1.116355  0  2.012192  0
P  P12  1  0.89368065  0.44178080  0.00231937  1  3.405999  0  0.315137  1.302753  0  5.446661  0
P  P13  1  0.60631776  0.55821895  0.50232026  1  3.406069  0  0.31502  1.302503  0  5.446883  0
P  P14  1  0.10631939  0.94178033  0.49767961  1  3.405839  0  0.315036  1.302539  0  5.446936  0
P  P15  1  0.39368104  0.05821823  0.99768161  1  3.406252  0  0.315108  1.302686  0  5.446518  0
P  P16  1  0.37604173  0.33016541  0.10264030  1  3.382112  0  0.304567  1.245797  0  5.479868  0
P  P17  1  0.12396550  0.66983365  0.60263801  1  3.382156  0  0.3044  1.245625  0  5.480116  0
P  P18  1  0.62396218  0.83016628  0.39736107  1  3.382163  0  0.304381  1.245571  0  5.480131  0
P  P19  1  0.87603664  0.16983423  0.89736071  1  3.382117  0  0.304436  1.245498  0  5.480214  0
H  H20  1  0.98663434  0.33929445  0.10130060  1  0.625796  0  0.282857  0.388399  0  0.953339  0
H  H21  1  0.51336994  0.66069998  0.60129967  1  0.625815  0  0.282918  0.388477  0  0.953219  0
H  H22  1  0.01336384  0.83929671  0.39870000  1  0.625776  0  0.282865  0.388407  0  0.953302  0
H  H23  1  0.48663361  0.16070654  0.89869831  1  0.62581  0  0.282867  0.388404  0  0.953331  0
H  H24  1  0.76554696  0.32009302  0.11228180  1  0.639512  0  0.276731  0.378052  0  0.967601  0
H  H25  1  0.73445557  0.67990264  0.61228081  1  0.639531  0  0.276762  0.378148  0  0.967471  0
H  H26  1  0.23445258  0.82009675  0.38771919  1  0.639533  0  0.276769  0.378128  0  0.967506  0
H  H27  1  0.26554517  0.17990779  0.88771753  1  0.639469  0  0.276711  0.378031  0  0.967629  0
H  H28  1  0.12082974  0.57469083  0.10676590  1  0.639527  0  0.301046  0.403059  0  0.911136  0
H  H29  1  0.37914708  0.42530254  0.60676867  1  0.639364  0  0.301009  0.402985  0  0.911232  0
H  H30  1  0.87914715  0.07469584  0.39323347  1  0.639363  0  0.300986  0.402964  0  0.911265  0
H  H31  1  0.62084458  0.92530342  0.89323357  1  0.639436  0  0.300997  0.402959  0  0.911265  0
H  H32  1  0.15113268  0.48817523  0.12836748  1  0.627085  0  0.306485  0.405971  0  0.895826  0
H  H33  1  0.34883488  0.51182313  0.62836379  1  0.627061  0  0.306501  0.405934  0  0.895728  0
H  H34  1  0.84884592  0.98817572  0.37163599  1  0.627099  0  0.306523  0.405979  0  0.895677  0
H  H35  1  0.65116516  0.01182360  0.87163661  1  0.627068  0  0.306489  0.405926  0  0.895731  0
H  H36  1  0.11035918  0.57294641  0.94132942  1  0.50124  0  0.276473  0.231544  0  0.992442  0
H  H37  1  0.38965293  0.42705483  0.44132742  1  0.50132  0  0.276515  0.231536  0  0.992367  0
H  H38  1  0.88964256  0.07294734  0.55867016  1  0.501247  0  0.276501  0.231585  0  0.992395  0
H  H39  1  0.61035571  0.92705099  0.05867082  1  0.501262  0  0.276476  0.231607  0  0.992315  0
H  H40  1  0.48421244  0.20770100  0.16940617  1  0.464921  0  0.337339  0.263225  0  0.858887  0
H  H41  1  0.01577849  0.79229535  0.66940321  1  0.464849  0  0.337331  0.263235  0  0.858971  0
H  H42  1  0.51577654  0.70770197  0.33059608  1  0.464833  0  0.337343  0.263237  0  0.858953  0
H  H43  1  0.98421983  0.29229621  0.83059501  1  0.464894  0  0.337332  0.263228  0  0.858915  0
H  H44  1  0.97633305  0.44769402  0.91393651  1  0.049488  0  0.118215  0.140332  0  0.979479  0
H  H45  1  0.52367396  0.55230959  0.41393660  1  0.049547  0  0.118221  0.14035  0  0.979498  0
H  H46  1  0.02366014  0.94769341  0.58606268  1  0.04943  0  0.118207  0.140326  0  0.979455  0
H  H47  1  0.47633601  0.05230570  0.08606393  1  0.049479  0  0.118218  0.140343  0  0.979432  0
H  H48  1  0.73598095  0.48628746  0.92411938  1  0.130411  0  0.111182  0.142844  0  1.011711  0
H  H49  1  0.76402866  0.51371676  0.42411905  1  0.13029  0  0.111183  0.142837  0  1.011756  0
H  H50  1  0.26401674  0.98628581  0.57588014  1  0.130437  0  0.111192  0.142849  0  1.01173  0
H  H51  1  0.23597827  0.01371207  0.07588114  1  0.130379  0  0.111195  0.142854  0  1.011738  0
H  H52  1  0.91034401  0.60898000  0.01102592  1  0.072188  0  0.118111  0.112487  0  0.98739  0
H  H53  1  0.58966570  0.39102665  0.51102399  1  0.072119  0  0.118101  0.112469  0  0.987485  0
H  H54  1  0.08966331  0.10898094  0.48897454  1  0.072324  0  0.11811  0.112499  0  0.987456  0
H  H55  1  0.41034169  0.89102394  0.98897260  1  0.072336  0  0.118101  0.112507  0  0.987451  0
H  H56  1  0.71756667  0.63225728  0.96842370  1  0.082221  0  0.099267  0.099119  0  1.019633  0
H  H57  1  0.78244169  0.36774870  0.46842273  1  0.082067  0  0.099265  0.099166  0  1.019519  0
H  H58  1  0.28243676  0.13225779  0.53157733  1  0.082221  0  0.099288  0.099164  0  1.019561  0
H  H59  1  0.21756093  0.86774651  0.03157368  1  0.082192  0  0.099274  0.099221  0  1.019574  0
H  H60  1  0.11080180  0.72222820  0.97331401  1  0.065569  0  0.094416  0.096629  0  1.000471  0
H  H61  1  0.38920942  0.27777799  0.47331065  1  0.065731  0  0.094455  0.09669  0  1.000423  0
H  H62  1  0.88919912  0.22222670  0.52668504  1  0.065572  0  0.094404  0.096634  0  1.000487  0
H  H63  1  0.61078418  0.77777109  0.02668736  1  0.065587  0  0.094463  0.096734  0  1.00041  0
H  H64  1  0.88902347  0.76393236  0.99514209  1  0.061023  0  0.095094  0.100078  0  1.01538  0
H  H65  1  0.61098702  0.23607354  0.49514309  1  0.06106  0  0.095131  0.100082  0  1.015383  0
H  H66  1  0.11098051  0.26393345  0.50485956  1  0.061047  0  0.095089  0.100149  0  1.01535  0
H  H67  1  0.38901217  0.73606967  0.00485270  1  0.061137  0  0.095075  0.100012  0  1.015468  0
H  H68  1  0.75582491  0.75369421  0.90723989  1  0.056303  0  0.103986  0.091777  0  0.952335  0
H  H69  1  0.74419527  0.24631005  0.40724063  1  0.056084  0  0.103983  0.091826  0  0.952298  0
H  H70  1  0.24416316  0.25370082  0.59276215  1  0.056364  0  0.103954  0.09172  0  0.952495  0
H  H71  1  0.25578666  0.74631465  0.09275553  1  0.055945  0  0.104031  0.091888  0  0.952241  0
H  H72  1  0.16733281  0.69826796  0.87987671  1  0.085263  0  0.090299  0.09903  0  0.999448  0
H  H73  1  0.33269401  0.30173093  0.37987570  1  0.085503  0  0.090252  0.098948  0  0.999461  0
H  H74  1  0.83266512  0.19826300  0.62012577  1  0.085249  0  0.090278  0.099076  0  0.999413  0
H  H75  1  0.66730546  0.80172318  0.12011888  1  0.08548  0  0.090208  0.098972  0  0.99945  0
H  H76  1  0.97687841  0.71425098  0.83612178  1  0.02749  0  0.100779  0.108759  0  0.990393  0
H  H77  1  0.52315098  0.28574908  0.33612101  1  0.027576  0  0.100774  0.10876  0  0.990354  0
H  H78  1  0.02312392  0.21424775  0.66387992  1  0.027417  0  0.100749  0.108742  0  0.990417  0
H  H79  1  0.47685419  0.78574294  0.16387586  1  0.027676  0  0.100825  0.108881  0  0.990314  0
H  H80  1  0.77956795  0.60321290  0.87362195  1  0.106176  0  0.110404  0.099714  0  0.976376  0
H  H81  1  0.72045174  0.39679209  0.37361880  1  0.106012  0  0.110379  0.099665  0  0.976538  0
H  H82  1  0.22043536  0.10321246  0.62637835  1  0.106189  0  0.110414  0.099687  0  0.976461  0
H  H83  1  0.27955389  0.89678716  0.12637834  1  0.106059  0  0.110394  0.099674  0  0.976484  0
H  H84  1  0.00891196  0.56295774  0.85683414  1  0.104421  0  0.110053  0.098857  0  0.994671  0
H  H85  1  0.49109964  0.43704311  0.35683194  1  0.10441  0  0.110081  0.098917  0  0.994614  0
H  H86  1  0.99109118  0.06295410  0.64316658  1  0.104379  0  0.110071  0.09885  0  0.994602  0
H  H87  1  0.50890327  0.93703769  0.14316629  1  0.104581  0  0.110082  0.09895  0  0.994669  0
H  H88  1  0.44109656  0.35777785  0.19035082  1  0.184004  0  0.123457  0.161813  0  1.018131  0
H  H89  1  0.05891685  0.64222285  0.69034831  1  0.184218  0  0.123449  0.161825  0  1.018236  0
H  H90  1  0.55890313  0.85777514  0.30965014  1  0.184004  0  0.123439  0.161787  0  1.018216  0
H  H91  1  0.94109672  0.14221995  0.80965044  1  0.18403  0  0.123456  0.161824  0  1.018133  0
H  H92  1  0.18762495  0.33758040  0.18106052  1  0.114569  0  0.126061  0.157188  0  0.965584  0
H  H93  1  0.31238584  0.66242537  0.68105674  1  0.114538  0  0.126048  0.157152  0  0.965724  0
H  H94  1  0.81237466  0.83757597  0.31894084  1  0.114653  0  0.126042  0.157127  0  0.965679  0
H  H95  1  0.68762493  0.16242098  0.81894085  1  0.114895  0  0.12604  0.157178  0  0.965692  0
H  H96  1  0.26252263  0.24738423  0.26182332  1  0.089316  0  0.122693  0.107649  0  0.94159  0
H  H97  1  0.23748444  0.75262194  0.76181770  1  0.089442  0  0.122725  0.107689  0  0.94164  0
H  H98  1  0.73748671  0.74737935  0.23818154  1  0.089409  0  0.122711  0.107692  0  0.941622  0
H  H99  1  0.76253102  0.25261910  0.73817791  1  0.08946  0  0.122696  0.107697  0  0.941475  0
H  H100  1  0.51201115  0.26805610  0.25288307  1  0.099017  0  0.118522  0.107605  0  0.98236  0
H  H101  1  0.98799751  0.73194545  0.75288077  1  0.099127  0  0.118519  0.107628  0  0.982377  0
H  H102  1  0.48799394  0.76804973  0.24711798  1  0.099219  0  0.11853  0.107639  0  0.982408  0
H  H103  1  0.01201355  0.23194135  0.74711826  1  0.098978  0  0.118514  0.107647  0  0.982401  0
H  H104  1  0.57868511  0.11351753  0.24487227  1  0.002191  0  0.094937  0.094127  0  0.965892  0
H  H105  1  0.92130647  0.88648404  0.74486880  1  0.002428  0  0.094948  0.094169  0  0.96585  0
H  H106  1  0.42131646  0.61351172  0.25512970  1  0.001594  0  0.094925  0.094112  0  0.965854  0
H  H107  1  0.07870954  0.38647997  0.75512969  1  0.002505  0  0.095012  0.094296  0  0.966027  0
H  H108  1  0.45435119  0.13307279  0.30207054  1  0.11778  0  0.103349  0.116526  0  1.009898  0
H  H109  1  0.04564465  0.86693074  0.80206819  1  0.117892  0  0.103392  0.116512  0  1.00993  0
H  H110  1  0.54566200  0.63306598  0.19793255  1  0.117925  0  0.103385  0.116538  0  1.009856  0
H  H111  1  0.95437129  0.36692628  0.69793108  1  0.117848  0  0.103366  0.11654  0  1.009953  0
H  H112  1  0.14868682  0.08591109  0.26644326  1  0.048671  0  0.10082  0.088497  0  0.964121  0
H  H113  1  0.35130281  0.91409254  0.76643612  1  0.048838  0  0.100872  0.088458  0  0.964047  0
H  H114  1  0.85132040  0.58590631  0.23356517  1  0.048908  0  0.100843  0.088457  0  0.96409  0
H  H115  1  0.64871765  0.41408962  0.73355932  1  0.048858  0  0.100895  0.088567  0  0.964017  0
H  H116  1  0.11904655  0.04112344  0.17603332  1  0.057207  0  0.105146  0.118505  0  0.961475  0
H  H117  1  0.38093265  0.95888485  0.67602645  1  0.057123  0  0.105088  0.118416  0  0.961542  0
H  H118  1  0.88094174  0.54111780  0.32397591  1  0.057118  0  0.105106  0.118432  0  0.961621  0
H  H119  1  0.61906204  0.45887599  0.82396629  1  0.056865  0  0.105117  0.118421  0  0.961495  0
H  H120  1  0.36652897  0.05767949  0.16709535  1  0.058442  0  0.09242  0.082462  0  1.029314  0
H  H121  1  0.13344471  0.94232758  0.66709200  1  0.058091  0  0.092433  0.082519  0  1.029308  0
H  H122  1  0.63345218  0.55767425  0.33290895  1  0.058159  0  0.09243  0.082584  0  1.029172  0
H  H123  1  0.86653981  0.44232203  0.83290643  1  0.058285  0  0.092429  0.082474  0  1.02929  0
H  H124  1  0.18088883  0.17830232  0.13122849  1  0.088755  0  0.115413  0.118553  0  0.987144  0
H  H125  1  0.31909019  0.82170547  0.63121999  1  0.088833  0  0.115391  0.11855  0  0.987132  0
H  H126  1  0.81909138  0.67829902  0.36878060  1  0.089149  0  0.115398  0.118543  0  0.987122  0
H  H127  1  0.68089816  0.32169842  0.86877365  1  0.088725  0  0.115442  0.118585  0  0.987123  0
H  H128  1  0.06886835  0.19708582  0.19056644  1  0.05808  0  0.117028  0.100591  0  0.951896  0
H  H129  1  0.43112198  0.80292495  0.69055662  1  0.057184  0  0.116936  0.100444  0  0.951774  0
H  H130  1  0.93112059  0.69707901  0.30944187  1  0.057831  0  0.11695  0.100506  0  0.951745  0
H  H131  1  0.56887927  0.30291672  0.80943478  1  0.057969  0  0.116993  0.100521  0  0.951683  0
C  C132  1  0.88462932  0.48663967  0.93846860  1  -0.270109  0  -0.075196  -0.371507  0  3.764106  0
C  C133  1  0.61538421  0.51336261  0.43846742  1  -0.27019  0  -0.075175  -0.371503  0  3.764037  0
C  C134  1  0.11537413  0.98663920  0.56153092  1  -0.270146  0  -0.075201  -0.371491  0  3.763977  0
C  C135  1  0.38462560  0.01335935  0.06153239  1  -0.270084  0  -0.075198  -0.37149  0  3.764053  0
C  C136  1  0.87456260  0.63420846  0.97367598  1  0.219648  0  -0.06669  -0.065471  0  3.76247  0
C  C137  1  0.62543984  0.36579309  0.47367494  1  0.219706  0  -0.066683  -0.065449  0  3.762571  0
C  C138  1  0.12543507  0.13420950  0.52632467  1  0.219555  0  -0.066719  -0.065536  0  3.762589  0
C  C139  1  0.37455845  0.86579230  0.02632185  1  0.219412  0  -0.066663  -0.065609  0  3.762632  0
C  C140  1  0.95405095  0.72233124  0.96664488  1  -0.049004  0  -0.158952  -0.179377  0  3.899847  0
C  C141  1  0.54596034  0.27767537  0.46664408  1  -0.04907  0  -0.159017  -0.179422  0  3.900028  0
C  C142  1  0.04594708  0.22233030  0.53335643  1  -0.049029  0  -0.15896  -0.179463  0  3.899959  0
C  C143  1  0.45403037  0.77766896  0.03335167  1  -0.049113  0  -0.159003  -0.179305  0  3.900044  0
C  C144  1  0.91344098  0.75508154  0.91297812  1  0.005793  0  -0.092463  -0.112244  0  3.889698  0
C  C145  1  0.58658480  0.24492082  0.41297879  1  0.00555  0  -0.092518  -0.112376  0  3.889874  0
C  C146  1  0.08654853  0.25508174  0.58702278  1  0.005714  0  -0.09239  -0.112162  0  3.88988  0
C  C147  1  0.41340001  0.74491611  0.08701775  1  0.006019  0  -0.092568  -0.112574  0  3.889994  0
C  C148  1  0.00982633  0.69619644  0.87520227  1  -0.001584  0  -0.164641  -0.187181  0  3.924114  0
C  C149  1  0.49019774  0.30380309  0.37520134  1  -0.001681  0  -0.164529  -0.186994  0  3.923872  0
C  C150  1  0.99017159  0.19619349  0.62479945  1  -0.001444  0  -0.164663  -0.187365  0  3.924132  0
C  C151  1  0.50980318  0.80379646  0.12479287  1  -0.002105  0  -0.164547  -0.187181  0  3.92407  0
C  C152  1  0.93443660  0.60699172  0.88195293  1  0.14502  0  -0.063696  -0.060755  0  3.785926  0
C  C153  1  0.56558285  0.39301072  0.38195046  1  0.144796  0  -0.06369  -0.060736  0  3.785923  0
C  C154  1  0.06556817  0.10698930  0.61804774  1  0.144804  0  -0.063637  -0.060553  0  3.785707  0
C  C155  1  0.43442277  0.89300405  0.11804592  1  0.144845  0  -0.063645  -0.060695  0  3.785831  0
C  C156  1  0.97166842  0.84763891  0.91096084  1  1.548219  0  0.215045  0.618908  0  4.13579  0
C  C157  1  0.52835598  0.15236156  0.41096323  1  1.548323  0  0.214949  0.618849  0  4.135618  0
C  C158  1  0.02831283  0.34763654  0.58904071  1  1.548116  0  0.215112  0.619017  0  4.136005  0
C  C159  1  0.47162123  0.65235563  0.08903529  1  1.548811  0  0.214877  0.618813  0  4.135451  0
C  C160  1  0.33429494  0.31775229  0.17088302  1  -0.331491  0  -0.076485  -0.382777  0  3.73785  0
C  C161  1  0.16571325  0.68225035  0.67088026  1  -0.331123  0  -0.076473  -0.382698  0  3.738054  0
C  C162  1  0.66570315  0.81775024  0.32911874  1  -0.331519  0  -0.076474  -0.382627  0  3.738051  0
C  C163  1  0.83429471  0.18224669  0.82911845  1  -0.331811  0  -0.076471  -0.38276  0  3.737974  0
C  C164  1  0.39539090  0.22338926  0.24424311  1  0.206498  0  -0.054741  -0.066339  0  3.785046  0
C  C165  1  0.10461379  0.77661002  0.74423886  1  0.206181  0  -0.05475  -0.066373  0  3.784972  0
C  C166  1  0.60461401  0.72338737  0.25575988  1  0.206109  0  -0.054762  -0.066465  0  3.785236  0
C  C167  1  0.89540034  0.27661102  0.75575862  1  0.205884  0  -0.054748  -0.06644  0  3.785118  0
C  C168  1  0.43879769  0.13366064  0.26075714  1  -0.038686  0  -0.160969  -0.193288  0  3.929149  0
C  C169  1  0.06119787  0.86634175  0.76075325  1  -0.039065  0  -0.161033  -0.193363  0  3.929049  0
C  C170  1  0.56121118  0.63365561  0.23924708  1  -0.038178  0  -0.161018  -0.193329  0  3.929052  0
C  C171  1  0.93882095  0.36633968  0.73924488  1  -0.038966  0  -0.161053  -0.193512  0  3.929334  0
C  C172  1  0.28031632  0.07129818  0.24457874  1  -0.016389  0  -0.094841  -0.120979  0  3.881044  0
C  C173  1  0.21967537  0.92870614  0.74457410  1  -0.016443  0  -0.094862  -0.120727  0  3.880975  0
C  C174  1  0.71968940  0.57129450  0.25542895  1  -0.016581  0  -0.094889  -0.120754  0  3.880882  0
C  C175  1  0.78033938  0.42870579  0.75542245  1  -0.016347  0  -0.094814  -0.120891  0  3.880862  0
C  C176  1  0.24024717  0.08099215  0.18803032  1  -0.030403  0  -0.164683  -0.19781  0  3.963528  0
C  C177  1  0.25973458  0.91901485  0.68802561  1  -0.029496  0  -0.164597  -0.197728  0  3.963611  0
C  C178  1  0.75974562  0.58098771  0.31197585  1  -0.030075  0  -0.164546  -0.197754  0  3.963734  0
C  C179  1  0.74025994  0.41900990  0.81196982  1  -0.029925  0  -0.1647  -0.197722  0  3.963514  0
C  C180  1  0.19839938  0.17122352  0.17227377  1  0.213397  0  -0.058262  -0.067038  0  3.769145  0
C  C181  1  0.30157849  0.82878416  0.67226605  1  0.213666  0  -0.058173  -0.066868  0  3.768902  0
C  C182  1  0.80158224  0.67122033  0.32773344  1  0.213095  0  -0.058231  -0.066992  0  3.769122  0
C  C183  1  0.69841133  0.32877912  0.82772758  1  0.213697  0  -0.058254  -0.06698  0  3.768943  0
C  C184  1  0.34147144  0.98043353  0.25862503  1  1.590611  0  0.197331  0.600094  0  4.197976  0
C  C185  1  0.15853140  0.01956508  0.75863092  1  1.591336  0  0.197178  0.59952  0  4.198179  0
C  C186  1  0.65855328  0.48043312  0.24137466  1  1.591244  0  0.197178  0.599588  0  4.198262  0
C  C187  1  0.84148743  0.51956594  0.74136947  1  1.591028  0  0.197121  0.599671  0  4.198122  0
N  N188  1  0.95983430  0.57502578  0.93516666  1  -1.013409  0  -0.34758  0.036158  0  3.561333  0
N  N189  1  0.54017788  0.42497840  0.43516458  1  -1.013146  0  -0.347636  0.036055  0  3.561461  0
N  N190  1  0.04016745  0.07502474  0.56483367  1  -1.0132  0  -0.347605  0.036085  0  3.561444  0
N  N191  1  0.45982786  0.92497316  0.06483252  1  -1.013213  0  -0.347653  0.036018  0  3.561208  0
N  N192  1  0.36170777  0.22853018  0.18795600  1  -1.022316  0  -0.340073  0.049109  0  3.568953  0
N  N193  1  0.13828696  0.77147178  0.68795169  1  -1.02247  0  -0.340073  0.048958  0  3.569077  0
N  N194  1  0.63828706  0.72852753  0.31204774  1  -1.022067  0  -0.340029  0.049052  0  3.569154  0
N  N195  1  0.86171272  0.27147008  0.81204541  1  -1.022007  0  -0.340051  0.049067  0  3.56901  0
Cl  Cl196  1  0.40349425  0.57686391  0.93517892  1  -0.681583  0  -0.31592  -0.555766  0  1.094199  0
Cl  Cl197  1  0.09651948  0.42313104  0.43518127  1  -0.681518  0  -0.315906  -0.555727  0  1.094179  0
Cl  Cl198  1  0.59650895  0.07686585  0.56481801  1  -0.681522  0  -0.315902  -0.555741  0  1.094249  0
Cl  Cl199  1  0.90348770  0.92313435  0.06481924  1  -0.681544  0  -0.3159  -0.555771  0  1.094201  0
Cl  Cl200  1  0.40330600  0.35087502  0.95593767  1  -0.607734  0  -0.256126  -0.486903  0  1.38057  0
Cl  Cl201  1  0.09669127  0.64912302  0.45593751  1  -0.607687  0  -0.256143  -0.486911  0  1.380495  0
Cl  Cl202  1  0.59669400  0.85087625  0.54406238  1  -0.607659  0  -0.256128  -0.486908  0  1.380552  0
Cl  Cl203  1  0.90330756  0.14912401  0.04406253  1  -0.607668  0  -0.256114  -0.486879  0  1.380556  0
O  O204  1  0.07924206  0.47203396  0.02611435  1  -1.457021  0  -0.394024  -0.773694  0  2.377645  0
O  O205  1  0.42075434  0.52796217  0.52611126  1  -1.457143  0  -0.393977  -0.773614  0  2.377703  0
O  O206  1  0.92075811  0.97203422  0.47388611  1  -1.457048  0  -0.394004  -0.773634  0  2.377701  0
O  O207  1  0.57924289  0.02796229  0.97388685  1  -1.457055  0  -0.393999  -0.7737  0  2.37759  0
O  O208  1  0.87817009  0.34554153  0.99448052  1  -1.41444  0  -0.393695  -0.771378  0  2.387273  0
O  O209  1  0.62183033  0.65445870  0.49448220  1  -1.414511  0  -0.393657  -0.771252  0  2.387195  0
O  O210  1  0.12183423  0.84554123  0.50551840  1  -1.414436  0  -0.393657  -0.771273  0  2.387234  0
O  O211  1  0.37817285  0.15445874  0.00552087  1  -1.414522  0  -0.393692  -0.771333  0  2.387171  0
O  O212  1  0.71828334  0.47739241  0.03123872  1  -1.428784  0  -0.395425  -0.800451  0  2.463556  0
O  O213  1  0.78171282  0.52260726  0.53124044  1  -1.428618  0  -0.395388  -0.800411  0  2.463797  0
O  O214  1  0.28171686  0.97739217  0.46876022  1  -1.428563  0  -0.395398  -0.800392  0  2.463682  0
O  O215  1  0.21828295  0.02260836  0.96876221  1  -1.428971  0  -0.395409  -0.800435  0  2.463613  0
O  O216  1  0.13240302  0.86854472  0.89150922  1  -1.166977  0  -0.327074  -0.567077  0  2.194717  0
O  O217  1  0.36761194  0.13145855  0.39151476  1  -1.167711  0  -0.326962  -0.566995  0  2.194601  0
O  O218  1  0.86756678  0.36853730  0.60849269  1  -1.167321  0  -0.327073  -0.567111  0  2.194671  0
O  O219  1  0.63235077  0.63144766  0.10848492  1  -1.16777  0  -0.326854  -0.566936  0  2.194813  0
O  O220  1  0.84969596  0.89705840  0.93156186  1  -1.187399  0  -0.338097  -0.598482  0  2.326174  0
O  O221  1  0.65033219  0.10294327  0.43156218  1  -1.186492  0  -0.338157  -0.598578  0  2.32618  0
O  O222  1  0.15027828  0.39705933  0.56844418  1  -1.18702  0  -0.338196  -0.598533  0  2.326442  0
O  O223  1  0.34963184  0.60294297  0.06843224  1  -1.186921  0  -0.338136  -0.598487  0  2.325712  0
O  O224  1  0.41206372  0.42521950  0.09765174  1  -1.438275  0  -0.379106  -0.755029  0  2.314635  0
O  O225  1  0.08794076  0.57477958  0.59765114  1  -1.43834  0  -0.379096  -0.75504  0  2.314802  0
O  O226  1  0.58794058  0.92522095  0.40234763  1  -1.438334  0  -0.379092  -0.755033  0  2.314755  0
O  O227  1  0.91206387  0.07478080  0.90234957  1  -1.438307  0  -0.379093  -0.754963  0  2.31474  0
O  O228  1  0.19519357  0.29959433  0.07498703  1  -1.451143  0  -0.385087  -0.766198  0  2.358343  0
O  O229  1  0.30481011  0.70040291  0.57498360  1  -1.451234  0  -0.384986  -0.766102  0  2.3584  0
O  O230  1  0.80480733  0.79959653  0.42501475  1  -1.451199  0  -0.384965  -0.766059  0  2.358327  0
O  O231  1  0.69518927  0.20040453  0.92501433  1  -1.451212  0  -0.385005  -0.766019  0  2.358288  0
O  O232  1  0.55475004  0.27468968  0.09127797  1  -1.44216  0  -0.389221  -0.766469  0  2.233283  0
O  O233  1  0.94525020  0.72530603  0.59127614  1  -1.442134  0  -0.389151  -0.766459  0  2.233356  0
O  O234  1  0.44524932  0.77469416  0.40872307  1  -1.442182  0  -0.389147  -0.766428  0  2.233436  0
O  O235  1  0.05474641  0.22530906  0.90872252  1  -1.442132  0  -0.38919  -0.766384  0  2.233388  0
O  O236  1  0.37071704  0.96559557  0.30583980  1  -1.194981  0  -0.358146  -0.6157  0  2.334295  0
O  O237  1  0.12924697  0.03439975  0.80583666  1  -1.195272  0  -0.358013  -0.615245  0  2.334866  0
O  O238  1  0.62927878  0.46560095  0.19416634  1  -1.194817  0  -0.358022  -0.615422  0  2.334851  0
O  O239  1  0.87077047  0.53440581  0.69416409  1  -1.195122  0  -0.357973  -0.6152  0  2.334743  0
O  O240  1  0.36759431  0.92725415  0.22443033  1  -1.175839  0  -0.34315  -0.569575  0  2.10907  0
O  O241  1  0.13247006  0.07276661  0.72443244  1  -1.17647  0  -0.343199  -0.569543  0  2.108322  0
O  O242  1  0.63249077  0.42723157  0.27556866  1  -1.176569  0  -0.343179  -0.569475  0  2.108596  0
O  O243  1  0.86757783  0.57276362  0.77556979  1  -1.176238  0  -0.343198  -0.569667  0  2.108342  0
O  O244  1  0.87588207  0.35597568  0.12330615  1  -1.260214  0  -0.601399  -0.784481  0  2.0331  0
O  O245  1  0.62411870  0.64401869  0.62330692  1  -1.260237  0  -0.601469  -0.78459  0  2.032951  0
O  O246  1  0.12411473  0.85597935  0.37669329  1  -1.260156  0  -0.601445  -0.784542  0  2.032993  0
O  O247  1  0.37588189  0.14402522  0.87669296  1  -1.260193  0  -0.601385  -0.78446  0  2.03309  0
O  O248  1  0.06494710  0.53686395  0.13253311  1  -1.227551  0  -0.581255  -0.750773  0  1.979064  0
O  O249  1  0.43502468  0.46313818  0.63253384  1  -1.227372  0  -0.581225  -0.750621  0  1.979083  0
O  O250  1  0.93502964  0.03686466  0.36746668  1  -1.227441  0  -0.581242  -0.750672  0  1.979009  0
O  O251  1  0.56497291  0.96313720  0.86746684  1  -1.227448  0  -0.581211  -0.750609  0  1.979037  0
