# generated using pymatgen
data_UH2C2O7
_symmetry_space_group_name_H-M   'P 1'
_cell_length_a   5.49385579
_cell_length_b   9.61456722
_cell_length_c   12.84943572
_cell_angle_alpha   89.99927217
_cell_angle_beta   89.99644616
_cell_angle_gamma   99.51280372
_symmetry_Int_Tables_number   1
_chemical_formula_structural   UH2C2O7
_chemical_formula_sum   'U4 H8 C8 O28'
_cell_volume   669.38733598
_cell_formula_units_Z   4
loop_
 _symmetry_equiv_pos_site_id
 _symmetry_equiv_pos_as_xyz
  1  'x, y, z'
loop_
 _atom_site_type_symbol
 _atom_site_label
 _atom_site_symmetry_multiplicity
 _atom_site_fract_x
 _atom_site_fract_y
 _atom_site_fract_z
 _atom_site_occupancy
 _atom_site_hle17_bader_spin_density
 _atom_site_hle17_ddec_charge
 _atom_site_hle17_ddec_spin_density
 _atom_site_hle17_ddec_sum_bond_order
 _atom_site_hle17_magmom
 _atom_site_hse06_10hf_bader_spin_density
 _atom_site_hse06_10hf_ddec_charge
 _atom_site_hse06_10hf_ddec_spin_density
 _atom_site_hse06_10hf_ddec_sum_bond_order
 _atom_site_hse06_10hf_magmom
 _atom_site_hse06_bader_spin_density
 _atom_site_hse06_ddec_charge
 _atom_site_hse06_ddec_spin_density
 _atom_site_hse06_ddec_sum_bond_order
 _atom_site_hse06_magmom
 _atom_site_pbe_bader_spin_density
 _atom_site_pbe_cm5_charge
 _atom_site_pbe_ddec_charge
 _atom_site_pbe_ddec_spin_density
 _atom_site_pbe_ddec_sum_bond_order
 _atom_site_pbe_magmom
U  U0  1  0.76439900  0.75595345  0.90967195  1  0  2.466031  0  4.076004  0  0  2.516496  0  4.728411  0  0  2.618242  0  4.698462  0  0  2.219952  2.444638  0  4.749655  0
U  U1  1  0.23567322  0.74406104  0.40966588  1  0  2.466077  0  4.075906  0  0  2.516852  0  4.728061  0  0  2.61839  0  4.698402  0  0  2.220019  2.445004  0  4.749292  0
U  U2  1  0.23559615  0.24406863  0.09032902  1  0  2.46562  0  4.078497  0  0  2.516316  0  4.730694  0  0  2.61822  0  4.700468  0  0  2.220865  2.444479  0  4.751947  0
U  U3  1  0.76430091  0.25590406  0.59033742  1  0  2.465809  0  4.076979  0  0  2.516604  0  4.72906  0  0  2.618365  0  4.699059  0  0  2.220591  2.444764  0  4.750306  0
H  H4  1  0.72626948  0.63441389  0.69811549  1  0  0.452822  0  0.833064  0  0  0.430214  0  0.882779  0  0  0.44262  0  0.864853  0  0  0.323058  0.421174  0  0.895812  0
H  H5  1  0.27375778  0.86558196  0.19810726  1  0  0.452753  0  0.833211  0  0  0.430147  0  0.882913  0  0  0.442552  0  0.864989  0  0  0.323038  0.421106  0  0.895945  0
H  H6  1  0.27370677  0.36557229  0.30188315  1  0  0.452848  0  0.833081  0  0  0.43024  0  0.882789  0  0  0.442641  0  0.864871  0  0  0.323036  0.421204  0  0.895815  0
H  H7  1  0.72629427  0.13441516  0.80189215  1  0  0.452777  0  0.833196  0  0  0.430158  0  0.88293  0  0  0.442566  0  0.865002  0  0  0.323015  0.421119  0  0.895962  0
H  H8  1  0.92483023  0.77399773  0.67713209  1  0  0.459835  0  0.82037  0  0  0.438868  0  0.865866  0  0  0.451704  0  0.847391  0  0  0.325481  0.429576  0  0.879209  0
H  H9  1  0.07520505  0.72600220  0.17714484  1  0  0.45973  0  0.820505  0  0  0.438842  0  0.865847  0  0  0.451664  0  0.8474  0  0  0.325569  0.429565  0  0.879167  0
H  H10  1  0.07512395  0.22600096  0.32286576  1  0  0.459915  0  0.820262  0  0  0.438956  0  0.865734  0  0  0.45179  0  0.84726  0  0  0.325584  0.429672  0  0.879066  0
H  H11  1  0.92486820  0.27399924  0.82285301  1  0  0.459935  0  0.820239  0  0  0.438973  0  0.865722  0  0  0.451809  0  0.847245  0  0  0.325582  0.429688  0  0.879059  0
C  C12  1  0.49787392  0.96472703  0.05332286  1  0  0.576122  0  3.895017  0  0  0.54166  0  4.190248  0  0  0.575045  0  4.179234  0  0  0.244679  0.51884  0  4.196727  0
C  C13  1  0.50213058  0.53526957  0.55332997  1  0  0.575912  0  3.89481  0  0  0.541487  0  4.189973  0  0  0.574852  0  4.179036  0  0  0.244593  0.518666  0  4.196446  0
C  C14  1  0.50215222  0.03529522  0.94667577  1  0  0.575948  0  3.894941  0  0  0.5414  0  4.190229  0  0  0.574781  0  4.179209  0  0  0.244385  0.518588  0  4.196703  0
C  C15  1  0.49784826  0.46470609  0.44666243  1  0  0.575731  0  3.894934  0  0  0.5414  0  4.189974  0  0  0.57468  0  4.179121  0  0  0.244558  0.518585  0  4.196449  0
C  C16  1  0.00752138  0.53210593  0.05456633  1  0  0.58162  0  3.88816  0  0  0.543179  0  4.191566  0  0  0.576461  0  4.180593  0  0  0.250457  0.520428  0  4.198013  0
C  C17  1  0.99244214  0.96787460  0.55457222  1  0  0.581815  0  3.88724  0  0  0.543156  0  4.191162  0  0  0.576428  0  4.180199  0  0  0.250538  0.520436  0  4.197545  0
C  C18  1  0.99254170  0.46792494  0.94543464  1  0  0.581652  0  3.887901  0  0  0.542949  0  4.191588  0  0  0.576284  0  4.18055  0  0  0.250296  0.520197  0  4.198034  0
C  C19  1  0.00750168  0.03208613  0.44542486  1  0  0.581866  0  3.886481  0  0  0.543028  0  4.190585  0  0  0.576367  0  4.179527  0  0  0.250355  0.520263  0  4.197035  0
O  O20  1  0.46242962  0.65001591  0.90584223  1  0  -0.667595  0  1.55213  0  0  -0.682996  0  1.833708  0  0  -0.705241  0  1.822935  0  0  -0.742059  -0.669874  0  1.841819  0
O  O21  1  0.53766771  0.84998835  0.40581899  1  0  -0.667699  0  1.552339  0  0  -0.683189  0  1.833906  0  0  -0.705405  0  1.823199  0  0  -0.74202  -0.670064  0  1.842002  0
O  O22  1  0.53751640  0.34997957  0.09418286  1  0  -0.667402  0  1.55315  0  0  -0.682838  0  1.83468  0  0  -0.70513  0  1.823867  0  0  -0.742423  -0.669714  0  1.842785  0
O  O23  1  0.46235383  0.15001703  0.59421778  1  0  -0.667614  0  1.553011  0  0  -0.683033  0  1.834526  0  0  -0.705312  0  1.8238  0  0  -0.74241  -0.669916  0  1.842631  0
O  O24  1  0.06590479  0.86281570  0.91033099  1  0  -0.680018  0  1.590457  0  0  -0.697508  0  1.884799  0  0  -0.720522  0  1.874263  0  0  -0.743703  -0.683823  0  1.892738  0
O  O25  1  0.93414266  0.63722179  0.41033530  1  0  -0.67996  0  1.589961  0  0  -0.697609  0  1.88434  0  0  -0.720576  0  1.873844  0  0  -0.743765  -0.683925  0  1.892271  0
O  O26  1  0.93415792  0.13726045  0.08963962  1  0  -0.67967  0  1.591414  0  0  -0.697276  0  1.88585  0  0  -0.720329  0  1.875276  0  0  -0.744213  -0.683596  0  1.89379  0
O  O27  1  0.06580375  0.36272842  0.58963843  1  0  -0.679746  0  1.590093  0  0  -0.697439  0  1.884467  0  0  -0.720461  0  1.873928  0  0  -0.743911  -0.683753  0  1.892399  0
O  O28  1  0.60115517  0.85778009  0.06118049  1  0  -0.560304  0  2.03515  0  0  -0.548533  0  2.279728  0  0  -0.578445  0  2.273026  0  0  -0.319932  -0.526356  0  2.282907  0
O  O29  1  0.39883670  0.64224138  0.56116798  1  0  -0.560206  0  2.034476  0  0  -0.548546  0  2.279075  0  0  -0.578427  0  2.272416  0  0  -0.319988  -0.526359  0  2.282248  0
O  O30  1  0.39889755  0.14227284  0.93882515  1  0  -0.560246  0  2.034661  0  0  -0.548422  0  2.279189  0  0  -0.578377  0  2.272504  0  0  -0.319724  -0.526247  0  2.282361  0
O  O31  1  0.60109196  0.35771716  0.43882754  1  0  -0.560059  0  2.034526  0  0  -0.548444  0  2.279107  0  0  -0.578338  0  2.27249  0  0  -0.319801  -0.526259  0  2.282278  0
O  O32  1  0.38279460  0.01859203  0.12518206  1  0  -0.604076  0  2.028723  0  0  -0.581586  0  2.263443  0  0  -0.612936  0  2.254999  0  0  -0.312471  -0.558756  0  2.268189  0
O  O33  1  0.61715948  0.48140266  0.62518239  1  0  -0.603857  0  2.02931  0  0  -0.581311  0  2.263945  0  0  -0.612617  0  2.255521  0  0  -0.312315  -0.558488  0  2.26869  0
O  O34  1  0.61719163  0.98143737  0.87481580  1  0  -0.603988  0  2.029054  0  0  -0.581385  0  2.263779  0  0  -0.612704  0  2.255336  0  0  -0.312317  -0.558556  0  2.268521  0
O  O35  1  0.38284344  0.51858787  0.37481080  1  0  -0.60391  0  2.029293  0  0  -0.581393  0  2.263931  0  0  -0.61264  0  2.255544  0  0  -0.312479  -0.558571  0  2.268674  0
O  O36  1  0.92734221  0.64832335  0.06504549  1  0  -0.604476  0  2.044096  0  0  -0.5757  0  2.278672  0  0  -0.606103  0  2.270306  0  0  -0.312625  -0.553506  0  2.283366  0
O  O37  1  0.07267415  0.85166334  0.56505195  1  0  -0.604758  0  2.043691  0  0  -0.575863  0  2.278415  0  0  -0.60623  0  2.270044  0  0  -0.312686  -0.553676  0  2.283094  0
O  O38  1  0.07271541  0.35170749  0.93494692  1  0  -0.604575  0  2.04383  0  0  -0.575699  0  2.278492  0  0  -0.606135  0  2.270093  0  0  -0.312656  -0.553502  0  2.283188  0
O  O39  1  0.92725163  0.14828466  0.43495758  1  0  -0.604751  0  2.04378  0  0  -0.57575  0  2.278492  0  0  -0.606165  0  2.270087  0  0  -0.312692  -0.553558  0  2.283198  0
O  O40  1  0.09998004  0.46658447  0.12499797  1  0  -0.568481  0  2.05179  0  0  -0.554152  0  2.300699  0  0  -0.584736  0  2.294116  0  0  -0.31892  -0.531756  0  2.304002  0
O  O41  1  0.89986162  0.03339172  0.62497425  1  0  -0.56849  0  2.052156  0  0  -0.554044  0  2.301222  0  0  -0.584612  0  2.294665  0  0  -0.318952  -0.531655  0  2.304501  0
O  O42  1  0.90005772  0.53345364  0.87501390  1  0  -0.568513  0  2.051885  0  0  -0.554041  0  2.30087  0  0  -0.584626  0  2.29428  0  0  -0.318798  -0.53164  0  2.304169  0
O  O43  1  0.10009429  0.96657328  0.37501271  1  0  -0.568529  0  2.051218  0  0  -0.554046  0  2.300343  0  0  -0.584601  0  2.293755  0  0  -0.318845  -0.531644  0  2.303644  0
O  O44  1  0.80050698  0.72730544  0.72794995  1  0  -0.851468  0  1.877413  0  0  -0.830005  0  2.060427  0  0  -0.856181  0  2.024685  0  0  -0.613927  -0.810665  0  2.085416  0
O  O45  1  0.19952795  0.77269550  0.22794545  1  0  -0.851336  0  1.877667  0  0  -0.829923  0  2.060687  0  0  -0.856057  0  2.024958  0  0  -0.614018  -0.810597  0  2.08567  0
O  O46  1  0.19947099  0.27268707  0.27205491  1  0  -0.851568  0  1.87755  0  0  -0.830102  0  2.060496  0  0  -0.856295  0  2.024736  0  0  -0.613993  -0.810776  0  2.085482  0
O  O47  1  0.80051643  0.22730684  0.77206174  1  0  -0.851522  0  1.877443  0  0  -0.830089  0  2.06041  0  0  -0.856258  0  2.024652  0  0  -0.614009  -0.810761  0  2.085399  0
