# generated using pymatgen
data_CuH30C22(NO2)4
_symmetry_space_group_name_H-M   'P 1'
_cell_length_a   6.55009123
_cell_length_b   9.81793968
_cell_length_c   10.20090331
_cell_angle_alpha   113.97375517
_cell_angle_beta   99.83838949
_cell_angle_gamma   98.83568463
_symmetry_Int_Tables_number   1
_chemical_formula_structural   CuH30C22(NO2)4
_chemical_formula_sum   'Cu1 H30 C22 N4 O8'
_cell_volume   572.18703367
_cell_formula_units_Z   1
loop_
 _symmetry_equiv_pos_site_id
 _symmetry_equiv_pos_as_xyz
  1  'x, y, z'
loop_
 _atom_site_type_symbol
 _atom_site_label
 _atom_site_symmetry_multiplicity
 _atom_site_fract_x
 _atom_site_fract_y
 _atom_site_fract_z
 _atom_site_occupancy
 _atom_site_pbe_cm5_charge
 _atom_site_pbe_ddec_charge
 _atom_site_pbe_ddec_spin_density
 _atom_site_pbe_ddec_sum_bond_order
 _atom_site_pbe_magmom
Cu  Cu0  1  0.50000238  0.50000094  0.50000126  1  0.730304  0.727845  -0.723603  2.239524  -0.564
H  H1  1  0.85655596  0.05317886  0.71034390  1  0.101997  0.11671  -0.000162  0.997959  0.0
H  H2  1  0.14345030  0.94681841  0.28965600  1  0.101995  0.116694  -0.000162  0.997903  0.0
H  H3  1  0.67476279  0.03965571  0.55688205  1  0.101829  0.119255  -0.000603  1.001387  -0.001
H  H4  1  0.32524357  0.96034619  0.44312555  1  0.101825  0.119239  -0.000603  1.001412  -0.001
H  H5  1  0.84224703  0.84702920  0.38558426  1  0.087512  0.085044  -2.7e-05  1.002285  0.0
H  H6  1  0.15774878  0.15296922  0.61441498  1  0.087523  0.085068  -2.7e-05  1.002273  0.0
H  H7  1  0.03366114  0.86847646  0.53968951  1  0.086539  0.081962  -4.4e-05  1.001888  0.0
H  H8  1  0.96634009  0.13152425  0.46030924  1  0.086544  0.081967  -4.4e-05  1.001883  0.0
H  H9  1  0.04270245  0.36488775  0.41143445  1  0.11586  0.101824  -0.001018  1.033065  -0.002
H  H10  1  0.95729876  0.63511295  0.58856233  1  0.115856  0.101887  -0.001018  1.032989  -0.002
H  H11  1  0.75418070  0.54234409  0.11992437  1  0.110468  0.12939  -0.000114  1.017773  0.0
H  H12  1  0.24582361  0.45765661  0.88007273  1  0.110476  0.129396  -0.000114  1.017796  0.0
H  H13  1  0.12579235  0.66367261  0.13000328  1  0.105677  0.107343  -0.000775  1.020313  -0.001
H  H14  1  0.87421317  0.33632697  0.86999842  1  0.105678  0.107322  -0.000775  1.020332  -0.001
H  H15  1  0.43785087  0.63822833  0.28748560  1  0.116101  0.095922  -0.000837  1.017192  -0.001
H  H16  1  0.56215388  0.36177354  0.71251692  1  0.116086  0.09591  -0.000836  1.017178  -0.001
H  H17  1  0.65103053  0.29054133  0.29995294  1  0.283752  0.28497  0.000125  1.034595  0.0
H  H18  1  0.34897029  0.70945822  0.70004433  1  0.283742  0.284946  0.000125  1.034621  0.0
H  H19  1  0.54378688  0.36551767  0.18627796  1  0.294434  0.300275  -0.000157  1.000328  0.0
H  H20  1  0.45622052  0.63448302  0.81371850  1  0.294459  0.300281  -0.000157  1.000301  0.0
H  H21  1  0.32605431  0.96623555  0.93371819  1  0.101885  0.119923  -4e-06  0.989586  0.0
H  H22  1  0.67394465  0.03376748  0.06628514  1  0.10186  0.119893  -4e-06  0.989559  0.0
H  H23  1  0.13172222  0.95526964  0.78732827  1  0.103949  0.122845  1.7e-05  0.997427  0.0
H  H24  1  0.86827009  0.04472304  0.21267132  1  0.103911  0.122835  1.7e-05  0.997453  0.0
H  H25  1  0.16547248  0.14662663  0.11929241  1  0.089471  0.08871  6.2e-05  0.99225  0.0
H  H26  1  0.83452801  0.85337180  0.88071028  1  0.089457  0.088692  6.2e-05  0.992278  0.0
H  H27  1  0.97166580  0.14113836  0.97476197  1  0.089312  0.082983  -1.9e-05  0.994847  0.0
H  H28  1  0.02832575  0.85886120  0.02523629  1  0.089298  0.082988  -1.9e-05  0.994781  0.0
H  H29  1  0.47385104  0.02953436  0.74829059  1  0.292431  0.346792  7.3e-05  1.009532  0.0
H  H30  1  0.52613700  0.97046404  0.25170587  1  0.292457  0.34684  7.3e-05  1.009502  0.0
C  C31  1  0.62265166  0.84012327  0.59456794  1  0.220656  0.626917  0.00068  4.118704  0.002
C  C32  1  0.37735156  0.15987861  0.40543540  1  0.220655  0.62688  0.00068  4.118838  0.002
C  C33  1  0.77267729  0.97394660  0.59374960  1  -0.165058  -0.303834  -0.007323  3.926148  -0.008
C  C34  1  0.22733017  0.02605412  0.40625275  1  -0.165039  -0.303802  -0.007323  3.926109  -0.008
C  C35  1  0.93084113  0.92985864  0.49981935  1  -0.172831  -0.127568  -8.6e-05  3.950057  0.0
C  C36  1  0.06916009  0.07014207  0.50017841  1  -0.172854  -0.127601  -8.6e-05  3.950044  0.0
C  C37  1  0.05257843  0.43296303  0.34999312  1  0.024177  -0.048235  -0.000183  3.905752  0.0
C  C38  1  0.94742549  0.56703652  0.65000448  1  0.024201  -0.048311  -0.000183  3.905768  0.0
C  C39  1  0.86645754  0.44474127  0.26728997  1  0.101409  0.278001  -0.003799  4.070082  -0.005
C  C40  1  0.13354677  0.55525942  0.73270714  1  0.101446  0.27814  -0.003799  4.069882  -0.005
C  C41  1  0.89335072  0.53084071  0.18693047  1  -0.079705  -0.153717  0.002736  3.89651  0.002
C  C42  1  0.10665281  0.46915770  0.81306664  1  -0.079692  -0.153733  0.002737  3.896483  0.002
C  C43  1  0.09891886  0.59934850  0.19339843  1  -0.082615  -0.097578  -0.003976  4.010421  -0.005
C  C44  1  0.90108629  0.40065452  0.80660458  1  -0.082692  -0.097655  -0.003976  4.010518  -0.005
C  C45  1  0.27537816  0.58554526  0.28052764  1  0.023027  0.047865  -0.000655  3.958601  -0.001
C  C46  1  0.72462504  0.41445661  0.71947372  1  0.023064  0.047945  -0.000655  3.958465  -0.001
C  C47  1  0.36214307  0.17212343  0.90624897  1  0.227975  0.622037  -1.6e-05  4.084418  0.0
C  C48  1  0.63784103  0.82786347  0.09374358  1  0.227973  0.621976  -1.6e-05  4.085044  0.0
C  C49  1  0.22123009  0.03224838  0.90318638  1  -0.165405  -0.31929  -5e-06  3.946853  0.0
C  C50  1  0.77876070  0.96774890  0.09681385  1  -0.165376  -0.319217  -5e-06  3.946721  0.0
C  C51  1  0.07099742  0.07176971  0.00427200  1  -0.168686  -0.123938  3e-05  3.954969  0.0
C  C52  1  0.92899688  0.92823331  0.99572986  1  -0.168671  -0.12398  3e-05  3.954967  0.0
N  N53  1  0.25010784  0.50383141  0.35806539  1  -0.354888  -0.219065  -0.059137  3.691377  -0.076
N  N54  1  0.74989575  0.49617161  0.64193646  1  -0.354909  -0.219127  -0.059136  3.691525  -0.076
N  N55  1  0.66726483  0.37923635  0.27046185  1  -0.603502  -0.642865  -0.002226  3.420732  -0.004
N  N56  1  0.33273753  0.62076320  0.72953460  1  -0.603506  -0.642898  -0.002225  3.420712  -0.004
O  O57  1  0.66021066  0.70834140  0.53305926  1  -0.307087  -0.524744  -0.060171  2.419271  -0.086
O  O58  1  0.33979021  0.29165817  0.46694293  1  -0.307094  -0.524721  -0.060171  2.419349  -0.086
O  O59  1  0.46913318  0.86567980  0.65603930  1  -0.316372  -0.560947  -0.000529  2.253378  -0.002
O  O60  1  0.53087039  0.13432321  0.34396059  1  -0.316388  -0.560968  -0.000529  2.253359  -0.002
O  O61  1  0.48854822  0.14625490  0.81401941  1  -0.339358  -0.503145  -8e-06  2.31743  0.0
O  O62  1  0.51143477  0.85374236  0.18597606  1  -0.339434  -0.503237  -8e-06  2.317569  0.0
O  O63  1  0.36328877  0.30483597  0.99032609  1  -0.288092  -0.497728  -4.9e-05  2.161498  0.0
O  O64  1  0.63669818  0.69516821  0.00967543  1  -0.288016  -0.497612  -4.9e-05  2.162155  0.0
