# generated using pymatgen
data_LaP4H20Ru2(CO5)4
_symmetry_space_group_name_H-M   'P 1'
_cell_length_a   9.78136926
_cell_length_b   9.78132498
_cell_length_c   14.74880858
_cell_angle_alpha   94.23471908
_cell_angle_beta   94.23925127
_cell_angle_gamma   98.75405394
_symmetry_Int_Tables_number   1
_chemical_formula_structural   LaP4H20Ru2(CO5)4
_chemical_formula_sum   'La2 P8 H40 Ru4 C8 O40'
_cell_volume   1385.64200819
_cell_formula_units_Z   2
loop_
 _symmetry_equiv_pos_site_id
 _symmetry_equiv_pos_as_xyz
  1  'x, y, z'
loop_
 _atom_site_type_symbol
 _atom_site_label
 _atom_site_symmetry_multiplicity
 _atom_site_fract_x
 _atom_site_fract_y
 _atom_site_fract_z
 _atom_site_occupancy
 _atom_site_pbe_bader_charge
 _atom_site_pbe_bader_spin_density
 _atom_site_pbe_cm5_charge
 _atom_site_pbe_ddec_charge
 _atom_site_pbe_ddec_spin_density
 _atom_site_pbe_ddec_sum_bond_order
 _atom_site_pbe_magmom
La  La0  1  0.99024441  0.00510981  0.25591174  1  2.288942  -0.000209  1.441543  2.040545  -0.00052  2.287945  0.0
La  La1  1  0.00508697  0.99022526  0.75590534  1  2.289981  -0.000207  1.441468  2.040514  -0.000511  2.287745  0.0
P  P2  1  0.65034914  0.93337913  0.35463976  1  3.286975  0.003065  0.323788  1.159632  0.0024  5.447004  0.005
P  P3  1  0.06049888  0.34141622  0.14188266  1  3.27582  0.002952  0.321097  1.153979  0.002241  5.45002  0.005
P  P4  1  0.34139632  0.06049526  0.64186803  1  3.276075  0.00295  0.320926  1.153754  0.002242  5.450161  0.005
P  P5  1  0.93335117  0.65030235  0.85460285  1  3.283019  0.00306  0.323821  1.159018  0.002404  5.446978  0.005
P  P6  1  0.35181771  0.98874989  0.32740925  1  3.314863  0.003242  0.316505  1.149756  0.00272  5.477669  0.005
P  P7  1  0.00407408  0.64205917  0.16699182  1  3.268337  0.003169  0.321847  1.150498  0.002534  5.467525  0.005
P  P8  1  0.64204905  0.00410689  0.66703221  1  3.267441  0.003171  0.321729  1.150218  0.002537  5.467631  0.005
P  P9  1  0.98875014  0.35178892  0.82741304  1  3.314201  0.003242  0.316344  1.149372  0.002717  5.477599  0.005
H  H10  1  0.56360378  0.81259328  0.16458087  1  0.08192  0.000278  0.105593  0.147552  0.000105  0.9793  0.0
H  H11  1  0.18000532  0.43245782  0.33172245  1  0.073993  0.000282  0.104558  0.145925  0.000106  0.98199  0.0
H  H12  1  0.43237256  0.18001683  0.83171599  1  0.073773  0.000281  0.104624  0.146037  0.000106  0.982155  0.0
H  H13  1  0.81257418  0.56356489  0.66455324  1  0.082348  0.000277  0.105575  0.147435  0.000104  0.979338  0.0
H  H14  1  0.38248097  0.83430004  0.15479321  1  0.054495  0.000151  0.096952  0.138373  7e-06  1.004974  0.0
H  H15  1  0.15643118  0.61325384  0.34036845  1  0.06879  0.000135  0.10202  0.148807  -4e-06  0.992833  0.0
H  H16  1  0.61319176  0.15648492  0.84038740  1  0.068559  0.000136  0.102026  0.1487  -4e-06  0.992829  0.0
H  H17  1  0.83428476  0.38244423  0.65476422  1  0.054612  0.000152  0.096914  0.13832  7e-06  1.00511  0.0
H  H18  1  0.44550455  0.73069561  0.23804568  1  0.052856  0.000318  0.100029  0.138914  0.000154  0.997871  0.0
H  H19  1  0.26174499  0.55014014  0.25801736  1  0.042918  0.000302  0.098925  0.1378  0.00014  1.000139  0.0
H  H20  1  0.55005306  0.26177742  0.75802545  1  0.04282  0.000304  0.098888  0.137719  0.000141  1.00012  0.0
H  H21  1  0.73066332  0.44546024  0.73799655  1  0.052986  0.00032  0.10007  0.138884  0.000156  0.997947  0.0
H  H22  1  0.54869808  0.15353237  0.26224667  1  0.595195  0.00032  0.332751  0.363456  0.00025  0.881567  0.0
H  H23  1  0.83911559  0.44851310  0.23234144  1  0.623073  0.000323  0.33363  0.364364  0.000258  0.881099  0.0
H  H24  1  0.44851340  0.83913076  0.73235792  1  0.623401  0.000322  0.333504  0.364288  0.000258  0.881287  0.0
H  H25  1  0.15352558  0.54867438  0.76224362  1  0.595619  0.00032  0.332715  0.363476  0.000249  0.881437  0.0
H  H26  1  0.48858526  0.61554730  0.46000556  1  0.633356  0.000603  0.323626  0.408235  0.000205  0.876304  0.0
H  H27  1  0.38334188  0.50495031  0.03216431  1  0.629123  0.000586  0.324476  0.409172  0.000157  0.873463  0.0
H  H28  1  0.50491022  0.38328787  0.53222289  1  0.629013  0.000586  0.324489  0.409111  0.000159  0.873238  0.0
H  H29  1  0.61560695  0.48858085  0.95995818  1  0.632748  0.000604  0.32349  0.407974  0.000206  0.87675  0.0
H  H30  1  0.83648526  0.17705515  0.38472662  1  0.622382  9.8e-05  0.297956  0.398731  -0.000104  0.932747  0.0
H  H31  1  0.82434176  0.14968235  0.11432000  1  0.647659  7.5e-05  0.299237  0.400209  -0.000135  0.928997  0.0
H  H32  1  0.14968035  0.82432350  0.61432308  1  0.647571  7.5e-05  0.299282  0.400275  -0.000135  0.928904  0.0
H  H33  1  0.17702693  0.83644986  0.88471212  1  0.643934  9.7e-05  0.297961  0.39874  -0.000104  0.932751  0.0
H  H34  1  0.09698539  0.86142519  0.07547998  1  0.618288  0.00015  0.310175  0.40026  -9.5e-05  0.922134  0.0
H  H35  1  0.13811252  0.92437540  0.43668295  1  0.637864  0.000162  0.311355  0.405584  -8.9e-05  0.912705  0.0
H  H36  1  0.92440566  0.13805603  0.93667913  1  0.638555  0.000163  0.311328  0.405589  -8.8e-05  0.912705  0.0
H  H37  1  0.86141120  0.09693499  0.57546123  1  0.61838  0.000151  0.31019  0.400321  -9.5e-05  0.922109  0.0
H  H38  1  0.32769184  0.59485514  0.44726126  1  0.598412  0.00049  0.323104  0.399092  0.000126  0.894869  0.001
H  H39  1  0.40005563  0.66550157  0.04647474  1  0.612485  0.000511  0.323485  0.398896  0.000113  0.893509  0.001
H  H40  1  0.66547251  0.40007382  0.54651582  1  0.612175  0.00051  0.323259  0.398617  0.000113  0.893963  0.001
H  H41  1  0.59481369  0.32768107  0.94726483  1  0.598499  0.00049  0.323034  0.398943  0.000127  0.895054  0.001
H  H42  1  0.91927842  0.29428750  0.32987009  1  0.655312  2.5e-05  0.294279  0.382132  1.8e-05  0.957599  0.0
H  H43  1  0.70636481  0.06768575  0.16823697  1  0.640617  2.7e-05  0.295344  0.382836  1.8e-05  0.955409  0.0
H  H44  1  0.06768608  0.70631172  0.66822275  1  0.640331  2.7e-05  0.295211  0.382602  1.8e-05  0.955738  0.0
H  H45  1  0.29427843  0.91925949  0.82986871  1  0.65527  2.5e-05  0.294289  0.382175  1.8e-05  0.957523  0.0
H  H46  1  0.16403840  0.01731051  0.09884356  1  0.633491  -9e-06  0.334035  0.413922  -2.2e-05  0.866395  0.0
H  H47  1  0.02087027  0.00210199  0.47844452  1  0.652467  -7e-06  0.306196  0.413582  -1.7e-05  0.903013  0.0
H  H48  1  0.00228107  0.02090045  0.97846043  1  0.651874  -7e-06  0.306057  0.413455  -1.7e-05  0.903268  0.0
H  H49  1  0.01731192  0.16395426  0.59880211  1  0.63417  -9e-06  0.334228  0.414111  -2.2e-05  0.86621  0.0
Ru  Ru50  1  0.45618822  0.87881273  0.50083336  1  1.262197  1.339395  0.786008  0.881292  1.410428  3.825557  1.321
Ru  Ru51  1  0.11536583  0.53441422  0.99466679  1  1.2619  1.321007  0.781366  0.881448  1.390177  3.819087  1.301
Ru  Ru52  1  0.53441734  0.11537134  0.49468521  1  1.261921  1.321742  0.781547  0.88159  1.390978  3.819116  1.301
Ru  Ru53  1  0.87880761  0.45616488  0.00081583  1  1.262285  1.340136  0.786247  0.881553  1.411245  3.825108  1.321
C  C54  1  0.50539676  0.95110471  0.27026059  1  -0.425011  5.1e-05  0.050422  -0.136221  -0.00095  3.923414  -0.001
C  C55  1  0.04184206  0.48864470  0.22497582  1  -0.379501  -0.000152  0.052343  -0.131431  -0.000969  3.911256  -0.001
C  C56  1  0.48860623  0.04184871  0.72499089  1  -0.378399  -0.000153  0.052466  -0.1309  -0.00097  3.91083  -0.001
C  C57  1  0.95108503  0.50536127  0.77023742  1  -0.419873  5.2e-05  0.050253  -0.135856  -0.000951  3.923126  -0.001
C  C58  1  0.47210076  0.82392032  0.20186441  1  -0.101043  0.001209  -0.234399  -0.390088  0.00089  3.945086  0.001
C  C59  1  0.16825874  0.52340966  0.29394078  1  -0.090753  0.001151  -0.234558  -0.394589  0.000852  3.944411  0.001
C  C60  1  0.52333424  0.16828979  0.79395166  1  -0.090237  0.001152  -0.234654  -0.394652  0.000853  3.944007  0.001
C  C61  1  0.82390269  0.47205704  0.70183589  1  -0.101607  0.001209  -0.234366  -0.389941  0.00089  3.945024  0.001
O  O62  1  0.59718131  0.81946858  0.41735090  1  -1.33479  0.038029  -0.364355  -0.640552  0.022921  2.326661  0.024
O  O63  1  0.17487506  0.39383960  0.07924160  1  -1.340571  0.037585  -0.369908  -0.651148  0.022743  2.327518  0.024
O  O64  1  0.39384023  0.17488595  0.57923557  1  -1.340858  0.037648  -0.369876  -0.651154  0.022786  2.327548  0.024
O  O65  1  0.81944028  0.59712687  0.91731755  1  -1.334888  0.038101  -0.364372  -0.640315  0.022965  2.326267  0.024
O  O66  1  0.68470620  0.07892740  0.41166842  1  -1.353574  0.03586  -0.36455  -0.681769  0.022175  2.430845  0.022
O  O67  1  0.91563431  0.30530897  0.08389808  1  -1.354129  0.037259  -0.365949  -0.685574  0.023259  2.421383  0.023
O  O68  1  0.30529679  0.91563924  0.58388296  1  -1.354172  0.037195  -0.365839  -0.685507  0.023218  2.421468  0.023
O  O69  1  0.07890270  0.68468873  0.91163171  1  -1.353529  0.035824  -0.364551  -0.681679  0.022146  2.431008  0.022
O  O70  1  0.77091713  0.90197475  0.30367104  1  -1.450325  -0.000985  -0.437247  -0.737741  -0.001684  2.248187  -0.001
O  O71  1  0.09186741  0.22072155  0.19331150  1  -1.456222  -0.001003  -0.429403  -0.74974  -0.001702  2.228993  -0.001
O  O72  1  0.22069250  0.09186395  0.69328652  1  -1.456322  -0.001001  -0.429365  -0.749669  -0.001701  2.228845  -0.001
O  O73  1  0.90191355  0.77087064  0.80362896  1  -1.450105  -0.000983  -0.437162  -0.737504  -0.001684  2.247859  -0.001
O  O74  1  0.31273473  0.87140086  0.39204383  1  -1.344629  0.036521  -0.360294  -0.666627  0.022421  2.380572  0.023
O  O75  1  0.12113420  0.68130333  0.10183001  1  -1.347558  0.032821  -0.36258  -0.676392  0.020031  2.396521  0.02
O  O76  1  0.68128567  0.12115631  0.60185211  1  -1.347123  0.0329  -0.362454  -0.676289  0.020075  2.396733  0.02
O  O77  1  0.87140553  0.31269444  0.89205009  1  -1.344125  0.036575  -0.360298  -0.666613  0.022459  2.380417  0.023
O  O78  1  0.40221736  0.13099872  0.38432612  1  -1.32704  0.042042  -0.366836  -0.648532  0.025774  2.311955  0.027
O  O79  1  0.86205156  0.58904091  0.11036681  1  -1.32676  0.043401  -0.367372  -0.644392  0.02663  2.309781  0.028
O  O80  1  0.58904625  0.86208029  0.61040466  1  -1.32642  0.043352  -0.367374  -0.644277  0.0266  2.309719  0.028
O  O81  1  0.13100415  0.40220711  0.88431978  1  -1.327176  0.041974  -0.366785  -0.648466  0.025732  2.312285  0.027
O  O82  1  0.23663120  0.99652845  0.25526281  1  -1.453264  -0.001289  -0.438944  -0.757996  -0.002073  2.276309  -0.002
O  O83  1  0.99579614  0.75969385  0.23680442  1  -1.448667  -0.000964  -0.435031  -0.736186  -0.00173  2.254544  -0.001
O  O84  1  0.75967700  0.99587495  0.73687143  1  -1.449061  -0.000965  -0.435134  -0.736282  -0.001731  2.254658  -0.001
O  O85  1  0.99654366  0.23661143  0.75526323  1  -1.454322  -0.001289  -0.438906  -0.7579  -0.002072  2.276336  -0.002
O  O86  1  0.54996707  0.07115190  0.22045553  1  -1.069685  0.003632  -0.359529  -0.4321  0.002248  2.249995  0.003
O  O87  1  0.92094215  0.44534924  0.27419154  1  -1.095272  0.003409  -0.356934  -0.428273  0.002107  2.253932  0.003
O  O88  1  0.44532727  0.92096102  0.77420241  1  -1.096191  0.003405  -0.356701  -0.428238  0.002104  2.254574  0.003
O  O89  1  0.07112540  0.54991165  0.72045919  1  -1.070768  0.003629  -0.359337  -0.432024  0.002246  2.250254  0.003
O  O90  1  0.40636903  0.62507657  0.49266107  1  -1.171148  0.005579  -0.554369  -0.691508  0.002098  1.974902  -0.002
O  O91  1  0.36741965  0.58710242  0.00125359  1  -1.180829  0.006012  -0.552928  -0.688916  0.002288  1.981993  -0.002
O  O92  1  0.58706486  0.36746377  0.50129078  1  -1.180336  0.006011  -0.552814  -0.688622  0.002295  1.981894  -0.002
O  O93  1  0.62503586  0.40637154  0.99265106  1  -1.170731  0.005587  -0.55426  -0.691169  0.002107  1.975228  -0.002
O  O94  1  0.92493003  0.20569046  0.35746208  1  -1.283029  0.000415  -0.636813  -0.83418  0.000189  2.002959  0.0
O  O95  1  0.79790506  0.06357233  0.14450213  1  -1.291934  0.000347  -0.635332  -0.831444  0.000141  1.998103  0.0
O  O96  1  0.06356896  0.79787422  0.64449771  1  -1.291624  0.000344  -0.635234  -0.831365  0.000139  1.998115  0.0
O  O97  1  0.20566845  0.92489895  0.85745459  1  -1.304507  0.000416  -0.636871  -0.834266  0.000188  2.002868  0.0
O  O98  1  0.07534611  0.95743729  0.08041879  1  -1.225484  0.00041  -0.559077  -0.75904  0.000166  2.006832  0.0
O  O99  1  0.05728995  0.96903943  0.42134103  1  -1.282709  0.000449  -0.626356  -0.820742  0.000166  2.000962  0.0
O  O100  1  0.96910618  0.05725552  0.92134812  1  -1.282816  0.000452  -0.626205  -0.820602  0.000168  2.001093  0.0
O  O101  1  0.95740732  0.07526320  0.58041812  1  -1.226174  0.000414  -0.559259  -0.759314  0.000168  2.006364  0.0
