# generated using pymatgen
data_Cu2H9C6(IN)2
_symmetry_space_group_name_H-M   'P 1'
_cell_length_a   4.19805660
_cell_length_b   10.23920360
_cell_length_c   12.17151458
_cell_angle_alpha   109.37212504
_cell_angle_beta   94.83981724
_cell_angle_gamma   92.81871514
_symmetry_Int_Tables_number   1
_chemical_formula_structural   Cu2H9C6(IN)2
_chemical_formula_sum   'Cu4 H18 C12 I4 N4'
_cell_volume   490.14922385
_cell_formula_units_Z   2
loop_
 _symmetry_equiv_pos_site_id
 _symmetry_equiv_pos_as_xyz
  1  'x, y, z'
loop_
 _atom_site_type_symbol
 _atom_site_label
 _atom_site_symmetry_multiplicity
 _atom_site_fract_x
 _atom_site_fract_y
 _atom_site_fract_z
 _atom_site_occupancy
 _atom_site_hle17_bader_spin_density
 _atom_site_hle17_ddec_charge
 _atom_site_hle17_ddec_spin_density
 _atom_site_hle17_ddec_sum_bond_order
 _atom_site_hle17_magmom
 _atom_site_hse06_10hf_bader_spin_density
 _atom_site_hse06_10hf_ddec_charge
 _atom_site_hse06_10hf_ddec_spin_density
 _atom_site_hse06_10hf_ddec_sum_bond_order
 _atom_site_hse06_10hf_magmom
 _atom_site_hse06_bader_spin_density
 _atom_site_hse06_ddec_charge
 _atom_site_hse06_ddec_spin_density
 _atom_site_hse06_ddec_sum_bond_order
 _atom_site_hse06_magmom
 _atom_site_pbe_bader_spin_density
 _atom_site_pbe_cm5_charge
 _atom_site_pbe_ddec_charge
 _atom_site_pbe_ddec_spin_density
 _atom_site_pbe_ddec_sum_bond_order
 _atom_site_pbe_magmom
Cu  Cu0  1  0.53231843  0.11052073  0.84586885  1  0  0.280115  0  2.078764  0  0  0.203058  0  2.546223  0  0  0.217915  0  2.490421  0  0  0.251789  0.192974  0  2.585636  0
Cu  Cu1  1  0.46767440  0.88947706  0.15412774  1  0  0.280129  0  2.078756  0  0  0.203083  0  2.546211  0  0  0.217941  0  2.490407  0  0  0.2518  0.193002  0  2.58563  0
Cu  Cu2  1  0.98896857  0.05257855  0.15511556  1  0  0.185948  0  2.217659  0  0  0.124642  0  2.691037  0  0  0.143254  0  2.630424  0  0  0.135574  0.112323  0  2.733493  0
Cu  Cu3  1  0.01102657  0.94741920  0.84488519  1  0  0.185941  0  2.217659  0  0  0.124643  0  2.691045  0  0  0.143265  0  2.630431  0  0  0.135568  0.112328  0  2.733491  0
H  H4  1  0.80228631  0.14156720  0.61912072  1  0  0.129438  0  0.952559  0  0  0.146743  0  1.019486  0  0  0.148927  0  1.018541  0  0  0.092645  0.145097  0  1.020169  0
H  H5  1  0.19771910  0.85843468  0.38088400  1  0  0.129474  0  0.9525  0  0  0.146749  0  1.019466  0  0  0.148932  0  1.018521  0  0  0.092659  0.145104  0  1.020149  0
H  H6  1  0.16192000  0.05713921  0.61420041  1  0  0.120217  0  0.98987  0  0  0.140821  0  1.053439  0  0  0.142349  0  1.053061  0  0  0.084215  0.139617  0  1.053883  0
H  H7  1  0.83808572  0.94286378  0.38579888  1  0  0.120176  0  0.989866  0  0  0.140784  0  1.053443  0  0  0.14231  0  1.053067  0  0  0.084202  0.139581  0  1.053888  0
H  H8  1  0.08344815  0.15852627  0.52215123  1  0  0.117727  0  0.964439  0  0  0.134723  0  1.031971  0  0  0.136637  0  1.031832  0  0  0.084482  0.133228  0  1.03239  0
H  H9  1  0.91654542  0.84147566  0.47784821  1  0  0.117703  0  0.9645  0  0  0.134703  0  1.032017  0  0  0.136616  0  1.031876  0  0  0.084479  0.133204  0  1.032439  0
H  H10  1  0.72251795  0.43083347  0.93198401  1  0  0.097824  0  0.973225  0  0  0.105643  0  1.040966  0  0  0.107635  0  1.040827  0  0  0.101629  0.103854  0  1.041459  0
H  H11  1  0.27748710  0.56916634  0.06801928  1  0  0.09783  0  0.973258  0  0  0.105665  0  1.040968  0  0  0.107691  0  1.04079  0  0  0.101649  0.103865  0  1.041473  0
H  H12  1  0.38252012  0.60490779  0.84022180  1  0  0.108373  0  0.996105  0  0  0.116532  0  1.062993  0  0  0.11876  0  1.062414  0  0  0.098464  0.113611  0  1.065978  0
H  H13  1  0.61748292  0.39509410  0.15978203  1  0  0.108357  0  0.99614  0  0  0.116487  0  1.063058  0  0  0.118713  0  1.06248  0  0  0.098437  0.113567  0  1.066034  0
H  H14  1  0.88156963  0.55478294  0.69567818  1  0  0.074683  0  0.930124  0  0  0.087118  0  1.000817  0  0  0.088114  0  1.000213  0  0  0.102618  0.086298  0  1.001618  0
H  H15  1  0.11842386  0.44521895  0.30432453  1  0  0.074672  0  0.930213  0  0  0.0871  0  1.000917  0  0  0.088096  0  1.000311  0  0  0.102607  0.086281  0  1.001713  0
H  H16  1  0.74807984  0.38030262  0.61163235  1  0  0.076364  0  0.931415  0  0  0.093454  0  0.99171  0  0  0.093532  0  0.992996  0  0  0.108998  0.093198  0  0.99119  0
H  H17  1  0.25191728  0.61969304  0.38836869  1  0  0.076343  0  0.931451  0  0  0.093445  0  0.991734  0  0  0.093519  0  0.993019  0  0  0.10898  0.093188  0  0.991214  0
H  H18  1  0.33016266  0.54418605  0.57104513  1  0  0.06638  0  0.969681  0  0  0.085087  0  1.034773  0  0  0.085684  0  1.035597  0  0  0.082332  0.084483  0  1.034504  0
H  H19  1  0.66982120  0.45581486  0.42895125  1  0  0.066359  0  0.969619  0  0  0.085056  0  1.03475  0  0  0.085655  0  1.035577  0  0  0.082318  0.084451  0  1.034478  0
H  H20  1  0.18974198  0.37145925  0.48323274  1  0  0.064268  0  0.957688  0  0  0.082377  0  1.023679  0  0  0.082976  0  1.024121  0  0  0.079979  0.081734  0  1.023703  0
H  H21  1  0.81024263  0.62854580  0.51676566  1  0  0.064286  0  0.957584  0  0  0.082355  0  1.023646  0  0  0.082968  0  1.024077  0  0  0.079993  0.08171  0  1.023672  0
C  C22  1  0.05936653  0.15161157  0.60937297  1  0  -0.390694  0  3.723232  0  0  -0.471896  0  3.961014  0  0  -0.475407  0  3.966068  0  0  -0.244668  -0.469477  0  3.957858  0
C  C23  1  0.94064132  0.84839034  0.39062937  1  0  -0.39058  0  3.723244  0  0  -0.471797  0  3.961023  0  0  -0.475288  0  3.966091  0  0  -0.244674  -0.469392  0  3.957863  0
C  C24  1  0.22739034  0.27274542  0.70383297  1  0  0.356255  0  3.673279  0  0  0.339777  0  3.933889  0  0  0.35489  0  3.948307  0  0  0.209284  0.329636  0  3.924082  0
C  C25  1  0.77261305  0.72725760  0.29616380  1  0  0.35604  0  3.673605  0  0  0.33965  0  3.934038  0  0  0.354705  0  3.948532  0  0  0.209266  0.329538  0  3.92419  0
C  C26  1  0.54397570  0.40562768  0.85682248  1  0  0.000925  0  3.759026  0  0  -0.035584  0  4.032557  0  0  -0.033203  0  4.052031  0  0  -0.019375  -0.037557  0  4.018208  0
C  C27  1  0.45602550  0.59437638  0.14317370  1  0  0.000964  0  3.75892  0  0  -0.035559  0  4.032426  0  0  -0.033206  0  4.051876  0  0  -0.019366  -0.037523  0  4.018081  0
C  C28  1  0.37833520  0.49268696  0.81290874  1  0  -0.073048  0  3.706644  0  0  -0.113191  0  3.97189  0  0  -0.111857  0  3.990733  0  0  -0.013034  -0.114007  0  3.959931  0
C  C29  1  0.62166920  0.50730877  0.18708761  1  0  -0.073074  0  3.706522  0  0  -0.113225  0  3.971813  0  0  -0.111888  0  3.990657  0  0  -0.013045  -0.114041  0  3.959844  0
C  C30  1  0.96008626  0.45522818  0.64139878  1  0  0.01182  0  3.629868  0  0  -0.045587  0  3.881693  0  0  -0.041652  0  3.894103  0  0  -0.055622  -0.048546  0  3.874215  0
C  C31  1  0.03991629  0.54477064  0.35860005  1  0  0.011807  0  3.630028  0  0  -0.045618  0  3.881871  0  0  -0.041677  0  3.894278  0  0  -0.055629  -0.048583  0  3.874389  0
C  C32  1  0.11395141  0.47212869  0.53738303  1  0  -0.132956  0  3.692907  0  0  -0.17338  0  3.947722  0  0  -0.175329  0  3.961986  0  0  -0.17263  -0.171925  0  3.938105  0
C  C33  1  0.88604913  0.52787220  0.46261632  1  0  -0.132927  0  3.692773  0  0  -0.173356  0  3.947617  0  0  -0.175321  0  3.961882  0  0  -0.172633  -0.171897  0  3.937996  0
I  I34  1  0.03711579  0.19411639  0.00427906  1  0  -0.277257  0  1.988847  0  0  -0.216943  0  2.485914  0  0  -0.232149  0  2.437414  0  0  -0.129011  -0.20473  0  2.51907  0
I  I35  1  0.96287915  0.80588032  0.99572139  1  0  -0.277235  0  1.988851  0  0  -0.216942  0  2.485954  0  0  -0.232151  0  2.43746  0  0  -0.128996  -0.20473  0  2.519116  0
I  I36  1  0.45676881  0.85493199  0.70650023  1  0  -0.310232  0  1.794888  0  0  -0.256958  0  2.251996  0  0  -0.270298  0  2.206269  0  0  -0.15538  -0.247352  0  2.286939  0
I  I37  1  0.54322388  0.14506573  0.29350290  1  0  -0.310246  0  1.79487  0  0  -0.256974  0  2.251978  0  0  -0.270308  0  2.206244  0  0  -0.15539  -0.24738  0  2.286945  0
N  N38  1  0.44807031  0.26913691  0.78905183  1  0  -0.385682  0  3.320691  0  0  -0.316392  0  3.6131  0  0  -0.334931  0  3.624089  0  0  -0.3925  -0.303089  0  3.605087  0
N  N39  1  0.55194696  0.73086400  0.21094806  1  0  -0.385631  0  3.320997  0  0  -0.316358  0  3.613369  0  0  -0.334876  0  3.624385  0  0  -0.392523  -0.303063  0  3.605347  0
N  N40  1  0.17904153  0.40772019  0.71684706  1  0  -0.12049  0  3.545129  0  0  -0.030038  0  3.756084  0  0  -0.045848  0  3.782861  0  0  -0.249778  -0.019355  0  3.738078  0
N  N41  1  0.82097181  0.59227240  0.28315115  1  0  -0.120367  0  3.545042  0  0  -0.029897  0  3.75594  0  0  -0.045693  0  3.78273  0  0  -0.249714  -0.019222  0  3.737921  0
