# generated using pymatgen
data_ErH16C18N3O8
_symmetry_space_group_name_H-M   'P 1'
_cell_length_a   9.45259582
_cell_length_b   10.44972297
_cell_length_c   10.44965767
_cell_angle_alpha   83.18199000
_cell_angle_beta   84.30205263
_cell_angle_gamma   84.30130093
_symmetry_Int_Tables_number   1
_chemical_formula_structural   ErH16C18N3O8
_chemical_formula_sum   'Er2 H32 C36 N6 O16'
_cell_volume   1015.81463322
_cell_formula_units_Z   2
loop_
 _symmetry_equiv_pos_site_id
 _symmetry_equiv_pos_as_xyz
  1  'x, y, z'
loop_
 _atom_site_type_symbol
 _atom_site_label
 _atom_site_symmetry_multiplicity
 _atom_site_fract_x
 _atom_site_fract_y
 _atom_site_fract_z
 _atom_site_occupancy
 _atom_site_hle17_bader_spin_density
 _atom_site_hle17_ddec_charge
 _atom_site_hle17_ddec_spin_density
 _atom_site_hle17_ddec_sum_bond_order
 _atom_site_hle17_magmom
 _atom_site_hse06_10hf_bader_spin_density
 _atom_site_hse06_10hf_ddec_charge
 _atom_site_hse06_10hf_ddec_spin_density
 _atom_site_hse06_10hf_ddec_sum_bond_order
 _atom_site_hse06_10hf_magmom
 _atom_site_hse06_bader_spin_density
 _atom_site_hse06_ddec_charge
 _atom_site_hse06_ddec_spin_density
 _atom_site_hse06_ddec_sum_bond_order
 _atom_site_hse06_magmom
 _atom_site_pbe_bader_spin_density
 _atom_site_pbe_cm5_charge
 _atom_site_pbe_ddec_charge
 _atom_site_pbe_ddec_spin_density
 _atom_site_pbe_ddec_sum_bond_order
 _atom_site_pbe_magmom
Er  Er0  1  0.25000429  0.97424029  0.02575959  1  0  2.302537  0  1.587867  0  0  2.242663  0  1.904174  0  0  2.290334  0  1.862156  0  0  1.504781  2.121556  0  2.094469  0
Er  Er1  1  0.74999465  0.02575107  0.97423970  1  0  2.302529  0  1.587946  0  0  2.242666  0  1.904243  0  0  2.290328  0  1.862235  0  0  1.504788  2.121591  0  2.094501  0
H  H2  1  0.47206959  0.89114375  0.20345534  1  0  0.437154  0  0.858502  0  0  0.407851  0  0.919573  0  0  0.418494  0  0.903911  0  0  0.298663  0.399463  0  0.931767  0
H  H3  1  0.02793612  0.79654489  0.10885283  1  0  0.437129  0  0.858507  0  0  0.407865  0  0.919524  0  0  0.418505  0  0.903864  0  0  0.298684  0.399475  0  0.931721  0
H  H4  1  0.52793097  0.10886310  0.79654008  1  0  0.437218  0  0.858404  0  0  0.407938  0  0.919425  0  0  0.418585  0  0.903757  0  0  0.298734  0.399551  0  0.931617  0
H  H5  1  0.97206620  0.20345518  0.89114704  1  0  0.43708  0  0.858585  0  0  0.407811  0  0.919614  0  0  0.418454  0  0.903951  0  0  0.298638  0.399422  0  0.93181  0
H  H6  1  0.32161290  0.84841921  0.28251562  1  0  0.397934  0  0.921305  0  0  0.354849  0  1.005156  0  0  0.366768  0  0.988199  0  0  0.286198  0.346161  0  1.017238  0
H  H7  1  0.17839929  0.71748827  0.15158024  1  0  0.398099  0  0.92108  0  0  0.355021  0  1.004922  0  0  0.366938  0  0.987964  0  0  0.286288  0.346332  0  1.017008  0
H  H8  1  0.67838343  0.15158762  0.71748593  1  0  0.398034  0  0.921159  0  0  0.354944  0  1.005028  0  0  0.366868  0  0.988062  0  0  0.286264  0.346254  0  1.017114  0
H  H9  1  0.82159760  0.28251276  0.84841715  1  0  0.398147  0  0.92101  0  0  0.355067  0  1.004845  0  0  0.366988  0  0.987885  0  0  0.286282  0.346379  0  1.016931  0
H  H10  1  0.40281806  0.58702042  0.84419040  1  0  0.113581  0  0.94346  0  0  0.122323  0  1.004051  0  0  0.125593  0  1.003364  0  0  0.109479  0.11983  0  1.004943  0
H  H11  1  0.09716003  0.15581845  0.41299438  1  0  0.113688  0  0.943229  0  0  0.122424  0  1.003804  0  0  0.125699  0  1.003105  0  0  0.109508  0.119928  0  1.004704  0
H  H12  1  0.59716814  0.41298153  0.15581648  1  0  0.113598  0  0.943353  0  0  0.122351  0  1.003912  0  0  0.125624  0  1.003218  0  0  0.109494  0.119858  0  1.004806  0
H  H13  1  0.90284316  0.84419419  0.58700778  1  0  0.113721  0  0.943091  0  0  0.12245  0  1.003695  0  0  0.125731  0  1.002988  0  0  0.109534  0.119958  0  1.004588  0
H  H14  1  0.53700330  0.37172800  0.80343496  1  0  0.082491  0  0.940649  0  0  0.090345  0  1.004216  0  0  0.092952  0  1.002869  0  0  0.114682  0.087806  0  1.006311  0
H  H15  1  0.96296837  0.19657289  0.62827765  1  0  0.082499  0  0.940767  0  0  0.090356  0  1.004319  0  0  0.092955  0  1.002989  0  0  0.114715  0.087816  0  1.006417  0
H  H16  1  0.46298624  0.62827205  0.19656035  1  0  0.082535  0  0.940744  0  0  0.090349  0  1.004355  0  0  0.092953  0  1.003014  0  0  0.114716  0.087812  0  1.006446  0
H  H17  1  0.03703490  0.80343879  0.37172270  1  0  0.082518  0  0.940718  0  0  0.09034  0  1.004338  0  0  0.092936  0  1.002997  0  0  0.114748  0.087804  0  1.006427  0
H  H18  1  0.92092432  0.50295667  0.86094625  1  0  0.063456  0  0.950311  0  0  0.074425  0  1.010545  0  0  0.07682  0  1.008794  0  0  0.109567  0.072187  0  1.012686  0
H  H19  1  0.57906518  0.13905451  0.49703342  1  0  0.063673  0  0.950218  0  0  0.074602  0  1.010481  0  0  0.076996  0  1.008734  0  0  0.109642  0.072361  0  1.012627  0
H  H20  1  0.07907202  0.49703950  0.13905654  1  0  0.063697  0  0.95024  0  0  0.074627  0  1.010509  0  0  0.077023  0  1.008755  0  0  0.109641  0.072389  0  1.012651  0
H  H21  1  0.42094169  0.86094266  0.50296829  1  0  0.063717  0  0.950446  0  0  0.074695  0  1.010637  0  0  0.077085  0  1.008892  0  0  0.109714  0.072448  0  1.012789  0
H  H22  1  0.80505074  0.72351202  0.89922606  1  0  0.12925  0  0.981086  0  0  0.133793  0  1.046242  0  0  0.138018  0  1.0439  0  0  0.113631  0.130633  0  1.048011  0
H  H23  1  0.69494660  0.10076974  0.27648745  1  0  0.129234  0  0.981169  0  0  0.133753  0  1.046362  0  0  0.137978  0  1.044023  0  0  0.113596  0.130595  0  1.048127  0
H  H24  1  0.19494628  0.27648802  0.10077813  1  0  0.129232  0  0.981127  0  0  0.133775  0  1.046285  0  0  0.138003  0  1.043943  0  0  0.11362  0.130618  0  1.048052  0
H  H25  1  0.30506377  0.89922452  0.72352001  1  0  0.129262  0  0.981087  0  0  0.133808  0  1.046248  0  0  0.138037  0  1.043898  0  0  0.113614  0.130647  0  1.048015  0
H  H26  1  0.35789912  0.17017550  0.56994031  1  0  0.10146  0  0.95749  0  0  0.109808  0  1.021155  0  0  0.113406  0  1.019452  0  0  0.105423  0.107437  0  1.022101  0
H  H27  1  0.14208532  0.43006297  0.82982636  1  0  0.101424  0  0.95744  0  0  0.109781  0  1.021095  0  0  0.113377  0  1.019396  0  0  0.105444  0.10741  0  1.022042  0
H  H28  1  0.64209818  0.82982166  0.43005845  1  0  0.101501  0  0.95745  0  0  0.109841  0  1.021123  0  0  0.113439  0  1.019421  0  0  0.105447  0.10747  0  1.022069  0
H  H29  1  0.85791097  0.56994388  0.17016371  1  0  0.101444  0  0.957371  0  0  0.109776  0  1.021064  0  0  0.113353  0  1.019385  0  0  0.105438  0.10741  0  1.022007  0
H  H30  1  0.35528824  0.35689881  0.39373729  1  0  0.061258  0  0.968838  0  0  0.066889  0  1.035913  0  0  0.068525  0  1.036424  0  0  0.103467  0.06606  0  1.034966  0
H  H31  1  0.14471878  0.60627032  0.64310477  1  0  0.06116  0  0.968853  0  0  0.066816  0  1.035919  0  0  0.068449  0  1.036437  0  0  0.103447  0.065991  0  1.034969  0
H  H32  1  0.64472520  0.64309645  0.60626308  1  0  0.0612  0  0.968807  0  0  0.06685  0  1.035872  0  0  0.06849  0  1.036381  0  0  0.103429  0.066023  0  1.034922  0
H  H33  1  0.85529385  0.39373270  0.35688424  1  0  0.061173  0  0.96884  0  0  0.066815  0  1.035925  0  0  0.06846  0  1.036431  0  0  0.103466  0.06599  0  1.034975  0
C  C34  1  0.52010962  0.79747559  0.91375250  1  0  0.716479  0  3.851671  0  0  0.673405  0  4.142381  0  0  0.708397  0  4.130006  0  0  0.234574  0.648162  0  4.145275  0
C  C35  1  0.97987128  0.08625544  0.20252882  1  0  0.716284  0  3.851568  0  0  0.67324  0  4.142315  0  0  0.70823  0  4.129944  0  0  0.23456  0.647985  0  4.145208  0
C  C36  1  0.47988229  0.20252249  0.08625718  1  0  0.716363  0  3.851875  0  0  0.67338  0  4.142587  0  0  0.708364  0  4.130213  0  0  0.234582  0.648122  0  4.145462  0
C  C37  1  0.02012360  0.91374460  0.79747462  1  0  0.716408  0  3.851481  0  0  0.673419  0  4.14221  0  0  0.708396  0  4.129851  0  0  0.234619  0.648147  0  4.145122  0
C  C38  1  0.59443158  0.67097313  0.87658603  1  0  -0.022196  0  3.714022  0  0  -0.001143  0  3.940485  0  0  -0.005221  0  3.961442  0  0  0.001573  0.000531  0  3.928712  0
C  C39  1  0.90555105  0.12341020  0.32904102  1  0  -0.022037  0  3.714108  0  0  -0.001139  0  3.940823  0  0  -0.005202  0  3.961775  0  0  0.001641  0.000586  0  3.928983  0
C  C40  1  0.40555413  0.32903365  0.12342033  1  0  -0.022152  0  3.714064  0  0  -0.00138  0  3.940935  0  0  -0.005445  0  3.961893  0  0  0.001517  0.000351  0  3.929089  0
C  C41  1  0.09445679  0.87658793  0.67096431  1  0  -0.021904  0  3.713766  0  0  -0.001172  0  3.940677  0  0  -0.005227  0  3.96163  0  0  0.0016  0.000566  0  3.928836  0
C  C42  1  0.51825243  0.57181596  0.84667731  1  0  -0.130454  0  3.718657  0  0  -0.152591  0  3.96887  0  0  -0.157114  0  3.990621  0  0  -0.078293  -0.149921  0  3.955575  0
C  C43  1  0.98173375  0.15332201  0.42819405  1  0  -0.130608  0  3.718651  0  0  -0.152689  0  3.968922  0  0  -0.157205  0  3.990657  0  0  -0.078361  -0.150036  0  3.955616  0
C  C44  1  0.48173917  0.42818504  0.15332535  1  0  -0.13045  0  3.718861  0  0  -0.152513  0  3.969153  0  0  -0.157037  0  3.990901  0  0  -0.078309  -0.149859  0  3.955846  0
C  C45  1  0.01827340  0.84668290  0.57180865  1  0  -0.130701  0  3.718498  0  0  -0.152707  0  3.968805  0  0  -0.157222  0  3.990538  0  0  -0.078378  -0.150055  0  3.955499  0
C  C46  1  0.59180203  0.45278175  0.82474109  1  0  0.130279  0  3.687523  0  0  0.098593  0  3.950515  0  0  0.103217  0  3.96737  0  0  0.053475  0.095357  0  3.94008  0
C  C47  1  0.90817970  0.17526735  0.54722174  1  0  0.130177  0  3.68793  0  0  0.098532  0  3.950868  0  0  0.103149  0  3.967737  0  0  0.05338  0.095296  0  3.940437  0
C  C48  1  0.40818869  0.54721732  0.17525901  1  0  0.130187  0  3.687976  0  0  0.09854  0  3.950968  0  0  0.103161  0  3.967831  0  0  0.053417  0.095302  0  3.940547  0
C  C49  1  0.09182802  0.82474241  0.45277842  1  0  0.130042  0  3.687974  0  0  0.098391  0  3.95101  0  0  0.103017  0  3.967864  0  0  0.053257  0.095152  0  3.940582  0
C  C50  1  0.80615696  0.52568616  0.85673849  1  0  0.105381  0  3.746885  0  0  0.080338  0  3.997098  0  0  0.083887  0  4.015994  0  0  0.043407  0.078063  0  3.984642  0
C  C51  1  0.69382737  0.14326716  0.47430770  1  0  0.105061  0  3.747088  0  0  0.080082  0  3.997291  0  0  0.083636  0  4.01618  0  0  0.043291  0.077805  0  3.984836  0
C  C52  1  0.19383269  0.47431291  0.14325980  1  0  0.104935  0  3.747154  0  0  0.079959  0  3.997341  0  0  0.083508  0  4.016232  0  0  0.043236  0.077681  0  3.984898  0
C  C53  1  0.30618066  0.85672905  0.52569210  1  0  0.104877  0  3.747099  0  0  0.079892  0  3.997301  0  0  0.083441  0  4.016194  0  0  0.043185  0.077616  0  3.984852  0
C  C54  1  0.74255342  0.64794093  0.87819339  1  0  -0.12458  0  3.709435  0  0  -0.147484  0  3.956913  0  0  -0.151718  0  3.97774  0  0  -0.078836  -0.144421  0  3.943034  0
C  C55  1  0.75743662  0.12180447  0.35206359  1  0  -0.124574  0  3.709885  0  0  -0.147454  0  3.957468  0  0  -0.1517  0  3.978303  0  0  -0.078837  -0.144407  0  3.943574  0
C  C56  1  0.25743606  0.35206005  0.12181522  1  0  -0.124487  0  3.709539  0  0  -0.147318  0  3.957105  0  0  -0.151565  0  3.977946  0  0  -0.078792  -0.144277  0  3.943219  0
C  C57  1  0.24257480  0.87818981  0.64793995  1  0  -0.124679  0  3.709564  0  0  -0.147546  0  3.957206  0  0  -0.151786  0  3.978028  0  0  -0.078901  -0.144498  0  3.943312  0
C  C58  1  0.24999418  0.17954983  0.82045540  1  0  0.649864  0  3.901699  0  0  0.599707  0  4.199688  0  0  0.633165  0  4.19146  0  0  0.207602  0.578083  0  4.19704  0
C  C59  1  0.75000292  0.82044926  0.17954315  1  0  0.649861  0  3.901413  0  0  0.599708  0  4.199395  0  0  0.633157  0  4.191169  0  0  0.207647  0.578075  0  4.196758  0
C  C60  1  0.24998775  0.28720017  0.71280185  1  0  -0.012293  0  3.750714  0  0  0.008956  0  3.979299  0  0  0.005415  0  4.00097  0  0  -0.003415  0.010547  0  3.966167  0
C  C61  1  0.75000557  0.71279408  0.28719379  1  0  -0.012306  0  3.750978  0  0  0.008945  0  3.979562  0  0  0.005405  0  4.001224  0  0  -0.0034  0.01054  0  3.966431  0
C  C62  1  0.31094317  0.26639375  0.58877900  1  0  -0.130859  0  3.722162  0  0  -0.15132  0  3.964132  0  0  -0.156298  0  3.985406  0  0  -0.081275  -0.148058  0  3.950169  0
C  C63  1  0.18903868  0.41122124  0.73360922  1  0  -0.13071  0  3.72189  0  0  -0.151173  0  3.963888  0  0  -0.15615  0  3.985169  0  0  -0.081261  -0.147911  0  3.949926  0
C  C64  1  0.68905604  0.73360535  0.41121649  1  0  -0.130885  0  3.722105  0  0  -0.151351  0  3.964102  0  0  -0.156324  0  3.985375  0  0  -0.081296  -0.148088  0  3.950136  0
C  C65  1  0.81096053  0.58877786  0.26638627  1  0  -0.130774  0  3.721967  0  0  -0.151222  0  3.963956  0  0  -0.156178  0  3.985243  0  0  -0.081245  -0.147963  0  3.949996  0
C  C66  1  0.30820336  0.37007577  0.49155429  1  0  0.110637  0  3.755459  0  0  0.092047  0  4.010763  0  0  0.096304  0  4.028687  0  0  0.040689  0.089195  0  3.998239  0
C  C67  1  0.19179694  0.50844815  0.62992955  1  0  0.110733  0  3.755228  0  0  0.092109  0  4.010577  0  0  0.096367  0  4.028505  0  0  0.040686  0.089255  0  3.998052  0
C  C68  1  0.69180436  0.62992335  0.50844232  1  0  0.110677  0  3.755467  0  0  0.092069  0  4.010775  0  0  0.096321  0  4.028695  0  0  0.040742  0.089218  0  3.998243  0
C  C69  1  0.80821300  0.49155002  0.37006410  1  0  0.110851  0  3.755015  0  0  0.092231  0  4.010343  0  0  0.09648  0  4.028263  0  0  0.040708  0.089375  0  3.997818  0
N  N70  1  0.73315207  0.42895332  0.83225724  1  0  -0.279511  0  3.164386  0  0  -0.221062  0  3.414146  0  0  -0.231976  0  3.428103  0  0  -0.294194  -0.213648  0  3.405466  0
N  N71  1  0.76683434  0.16774317  0.57104195  1  0  -0.279302  0  3.164478  0  0  -0.220845  0  3.414188  0  0  -0.231754  0  3.428139  0  0  -0.294074  -0.213429  0  3.405499  0
N  N72  1  0.26684165  0.57103706  0.16774073  1  0  -0.279326  0  3.164785  0  0  -0.220874  0  3.41448  0  0  -0.231782  0  3.428434  0  0  -0.294066  -0.213458  0  3.405804  0
N  N73  1  0.23317445  0.83225595  0.42895648  1  0  -0.278986  0  3.164339  0  0  -0.220564  0  3.414094  0  0  -0.231467  0  3.428055  0  0  -0.293897  -0.213147  0  3.405407  0
N  N74  1  0.25000059  0.48955273  0.51045261  1  0  -0.291008  0  3.042036  0  0  -0.265058  0  3.307364  0  0  -0.27314  0  3.322035  0  0  -0.320969  -0.259114  0  3.297179  0
N  N75  1  0.75000905  0.51044834  0.48954074  1  0  -0.291069  0  3.042051  0  0  -0.265115  0  3.307389  0  0  -0.273191  0  3.322053  0  0  -0.321057  -0.259166  0  3.297196  0
O  O76  1  0.38459911  0.80761494  0.92682070  1  0  -0.712148  0  2.021231  0  0  -0.67806  0  2.270081  0  0  -0.701992  0  2.258434  0  0  -0.381498  -0.649396  0  2.281371  0
O  O77  1  0.11538101  0.07318308  0.19238333  1  0  -0.712165  0  2.021077  0  0  -0.678061  0  2.26992  0  0  -0.701989  0  2.258264  0  0  -0.381528  -0.649403  0  2.281235  0
O  O78  1  0.61539495  0.19237249  0.07319480  1  0  -0.712145  0  2.02134  0  0  -0.678058  0  2.270149  0  0  -0.701979  0  2.258497  0  0  -0.381472  -0.649424  0  2.281497  0
O  O79  1  0.88460993  0.92681404  0.80762272  1  0  -0.712238  0  2.021134  0  0  -0.678135  0  2.269952  0  0  -0.70205  0  2.258284  0  0  -0.381544  -0.649479  0  2.281284  0
O  O80  1  0.34416134  0.08356632  0.81479606  1  0  -0.693877  0  2.058272  0  0  -0.645887  0  2.291138  0  0  -0.67108  0  2.282403  0  0  -0.343483  -0.619829  0  2.297127  0
O  O81  1  0.15583205  0.18520673  0.91643909  1  0  -0.69389  0  2.058328  0  0  -0.645872  0  2.291198  0  0  -0.671067  0  2.282472  0  0  -0.343508  -0.619818  0  2.297197  0
O  O82  1  0.65583874  0.91643472  0.18519721  1  0  -0.693903  0  2.058288  0  0  -0.645866  0  2.291115  0  0  -0.67106  0  2.282391  0  0  -0.343518  -0.619809  0  2.297115  0
O  O83  1  0.84416367  0.81479528  0.08355351  1  0  -0.693881  0  2.058029  0  0  -0.64588  0  2.29092  0  0  -0.671082  0  2.28219  0  0  -0.343522  -0.619832  0  2.296925  0
O  O84  1  0.37576367  0.86644948  0.19367029  1  0  -0.920973  0  1.921283  0  0  -0.877307  0  2.124562  0  0  -0.897671  0  2.092515  0  0  -0.65273  -0.851217  0  2.154313  0
O  O85  1  0.12423794  0.80632537  0.13355914  1  0  -0.921021  0  1.921118  0  0  -0.877394  0  2.124338  0  0  -0.897749  0  2.092295  0  0  -0.65281  -0.851303  0  2.154091  0
O  O86  1  0.62423343  0.13356025  0.80632990  1  0  -0.921073  0  1.921134  0  0  -0.877449  0  2.124426  0  0  -0.89781  0  2.092367  0  0  -0.652861  -0.851359  0  2.154189  0
O  O87  1  0.87576139  0.19367275  0.86644315  1  0  -0.92103  0  1.921012  0  0  -0.877397  0  2.124231  0  0  -0.897767  0  2.092199  0  0  -0.652768  -0.851307  0  2.153985  0
O  O88  1  0.59640087  0.88506742  0.93333944  1  0  -0.759487  0  2.122233  0  0  -0.723118  0  2.384272  0  0  -0.747365  0  2.371213  0  0  -0.398537  -0.690096  0  2.393582  0
O  O89  1  0.90359884  0.06665269  0.11493443  1  0  -0.759316  0  2.122079  0  0  -0.72298  0  2.384162  0  0  -0.747258  0  2.371168  0  0  -0.398508  -0.689966  0  2.393486  0
O  O90  1  0.40359574  0.11493651  0.06665860  1  0  -0.759367  0  2.122268  0  0  -0.723026  0  2.38433  0  0  -0.747285  0  2.371304  0  0  -0.398534  -0.690002  0  2.393643  0
O  O91  1  0.09640270  0.93334448  0.88506490  1  0  -0.759361  0  2.122197  0  0  -0.722997  0  2.384218  0  0  -0.747274  0  2.371227  0  0  -0.398493  -0.689979  0  2.393548  0
