# generated using pymatgen
data_CuH6C9SN3
_symmetry_space_group_name_H-M   'P 1'
_cell_length_a   3.68801707
_cell_length_b   10.92123515
_cell_length_c   11.23011046
_cell_angle_alpha   101.68662091
_cell_angle_beta   90.00447747
_cell_angle_gamma   100.03813987
_symmetry_Int_Tables_number   1
_chemical_formula_structural   CuH6C9SN3
_chemical_formula_sum   'Cu2 H12 C18 S2 N6'
_cell_volume   435.87203130
_cell_formula_units_Z   2
loop_
 _symmetry_equiv_pos_site_id
 _symmetry_equiv_pos_as_xyz
  1  'x, y, z'
loop_
 _atom_site_type_symbol
 _atom_site_label
 _atom_site_symmetry_multiplicity
 _atom_site_fract_x
 _atom_site_fract_y
 _atom_site_fract_z
 _atom_site_occupancy
 _atom_site_pbe_bader_spin_density
 _atom_site_pbe_cm5_charge
 _atom_site_pbe_ddec_charge
 _atom_site_pbe_ddec_spin_density
 _atom_site_pbe_ddec_sum_bond_order
 _atom_site_pbe_magmom
Cu  Cu0  1  0.09563201  0.71826009  0.36204834  1  0  0.47874  0.34803  0  2.774879  0
Cu  Cu1  1  0.62637864  0.71798406  0.86201402  1  0  0.478828  0.347121  0  2.778366  0
H  H2  1  0.00627622  0.87064436  0.17394721  1  0  0.119813  0.066662  0  1.023588  0
H  H3  1  0.86793137  0.87141848  0.67393240  1  0  0.119666  0.06694  0  1.022871  0
H  H4  1  0.21001234  0.31296991  0.24985498  1  0  0.104006  0.114663  0  1.029211  0
H  H5  1  0.10123275  0.31387735  0.75032007  1  0  0.104512  0.11501  0  1.028753  0
H  H6  1  0.44094317  0.48028419  0.43163676  1  0  0.09834  0.107764  0  1.02266  0
H  H7  1  0.03299243  0.48018811  0.93181807  1  0  0.097936  0.106795  0  1.023351  0
H  H8  1  0.62074281  0.42349216  0.62315934  1  0  0.089864  0.095445  0  1.054388  0
H  H9  1  0.79647692  0.42204110  0.12302523  1  0  0.090057  0.095614  0  1.053545  0
H  H10  1  0.56077366  0.19498131  0.63657635  1  0  0.101372  0.099318  0  1.060808  0
H  H11  1  0.63162010  0.19311696  0.13621822  1  0  0.101829  0.100491  0  1.061686  0
H  H12  1  0.37473466  0.96504801  0.53610860  1  0  0.121757  0.095977  0  0.993178  0
H  H13  1  0.59506397  0.96367540  0.03605426  1  0  0.121385  0.094645  0  0.992986  0
C  C14  1  0.09349559  0.66129872  0.61999271  1  0  0.148435  0.277217  0  4.189217  0
C  C15  1  0.56872090  0.66083535  0.11986595  1  0  0.148204  0.277453  0  4.189525  0
C  C16  1  0.10184559  0.94617710  0.25290499  1  0  0.159988  0.212457  0  3.993879  0
C  C17  1  0.84734599  0.94656822  0.75292103  1  0  0.159812  0.211816  0  3.993741  0
C  C18  1  0.25232470  0.15823747  0.34012713  1  0  0.112804  0.208768  0  4.005197  0
C  C19  1  0.90568698  0.15832199  0.84025369  1  0  0.114406  0.210493  0  4.005071  0
C  C20  1  0.28631230  0.28785994  0.33429529  1  0  -0.085748  -0.163649  0  3.92562  0
C  C21  1  0.99940337  0.28814683  0.83455105  1  0  -0.087442  -0.166254  0  3.928002  0
C  C22  1  0.41599539  0.38033776  0.43552414  1  0  -0.071231  -0.028706  0  3.930858  0
C  C23  1  0.95993679  0.38007900  0.93565117  1  0  -0.070603  -0.026245  0  3.931093  0
C  C24  1  0.51740158  0.34808045  0.54519277  1  0  -0.085485  -0.0743  0  3.963138  0
C  C25  1  0.82610281  0.34705716  0.04512426  1  0  -0.084965  -0.074642  0  3.962947  0
C  C26  1  0.48679255  0.22260489  0.55333558  1  0  -0.078465  -0.103157  0  3.964466  0
C  C27  1  0.73363547  0.22137195  0.05319961  1  0  -0.078857  -0.104718  0  3.966641  0
C  C28  1  0.35270191  0.12593501  0.45136132  1  0  -0.006827  -0.011486  0  4.0062  0
C  C29  1  0.77331310  0.12528093  0.95132782  1  0  -0.006611  -0.011801  0  4.007384  0
C  C30  1  0.30797074  0.99562439  0.45329973  1  0  0.074407  0.104455  0  3.868498  0
C  C31  1  0.69083362  0.99484466  0.95325675  1  0  0.074533  0.107575  0  3.865794  0
S  S32  1  0.07841684  0.62181465  0.75412118  1  0  -0.180658  -0.314751  0  3.277404  0
S  S33  1  0.54338929  0.62166397  0.25413497  1  0  -0.180788  -0.315756  0  3.274232  0
N  N34  1  0.09729150  0.68601660  0.52210114  1  0  -0.429012  -0.437455  0  3.442717  0
N  N35  1  0.59052002  0.68548190  0.02195839  1  0  -0.428647  -0.437155  0  3.441432  0
N  N36  1  0.18282820  0.90569942  0.35631906  1  0  -0.358468  -0.26455  0  3.634233  0
N  N37  1  0.72773231  0.90545155  0.85633247  1  0  -0.359255  -0.266127  0  3.633993  0
N  N38  1  0.12776754  0.06443127  0.24065567  1  0  -0.313957  -0.332207  0  3.308095  0
N  N39  1  0.93755204  0.06504073  0.74074360  1  0  -0.313673  -0.33175  0  3.306841  0
