# generated using pymatgen
data_Cu2H15(C5N)4
_symmetry_space_group_name_H-M   'P 1'
_cell_length_a   30.86975433
_cell_length_b   34.16365075
_cell_length_c   34.84882886
_cell_angle_alpha   89.45320808
_cell_angle_beta   88.89861973
_cell_angle_gamma   89.81903570
_symmetry_Int_Tables_number   1
_chemical_formula_structural   Cu2H15(C5N)4
_chemical_formula_sum   'Cu12 H90 C120 N24'
_cell_volume   36743.76806830
_cell_formula_units_Z   6
loop_
 _symmetry_equiv_pos_site_id
 _symmetry_equiv_pos_as_xyz
  1  'x, y, z'
loop_
 _atom_site_type_symbol
 _atom_site_label
 _atom_site_symmetry_multiplicity
 _atom_site_fract_x
 _atom_site_fract_y
 _atom_site_fract_z
 _atom_site_occupancy
 _atom_site_pbe_bader_charge
 _atom_site_pbe_bader_spin_density
 _atom_site_pbe_cm5_charge
 _atom_site_pbe_ddec_charge
 _atom_site_pbe_ddec_spin_density
 _atom_site_pbe_ddec_sum_bond_order
 _atom_site_pbe_magmom
Cu  Cu0  1  0.90001018  0.80639918  0.80434186  1  0.542997  0  0.483479  0.204448  0  2.115127  0
Cu  Cu1  1  0.82636250  0.86668221  0.78790961  1  0.542053  0  0.487082  0.205799  0  2.131233  0
Cu  Cu2  1  0.80946227  0.79980505  0.84957654  1  0.545911  0  0.488232  0.211458  0  2.104786  0
Cu  Cu3  1  0.10965151  0.78841358  0.20431003  1  0.538995  0  0.48472  0.202984  0  2.124223  0
Cu  Cu4  1  0.18989697  0.84609078  0.19678858  1  0.546632  0  0.487412  0.210487  0  2.104873  0
Cu  Cu5  1  0.17595714  0.77830130  0.13590117  1  0.54123  0  0.485757  0.206103  0  2.11926  0
Cu  Cu6  1  0.15012933  0.22384514  0.78138580  1  0.543322  0  0.486646  0.205194  0  2.130715  0
Cu  Cu7  1  0.22179495  0.15730045  0.78876782  1  0.545445  0  0.485814  0.210562  0  2.092107  0
Cu  Cu8  1  0.20491796  0.22129903  0.85512837  1  0.541823  0  0.485709  0.207413  0  2.11308  0
Cu  Cu9  1  0.84931016  0.21015367  0.22100675  1  0.540532  0  0.487209  0.206059  0  2.13234  0
Cu  Cu10  1  0.79651503  0.13183348  0.22318743  1  0.543378  0  0.484851  0.206496  0  2.107582  0
Cu  Cu11  1  0.77863375  0.19756469  0.15846877  1  0.547222  0  0.486881  0.211791  0  2.099047  0
H  H12  1  0.97443549  0.83991701  0.74747227  1  0.09769  0  0.121145  0.112979  0  0.98634  0
H  H13  1  0.86445363  0.91066652  0.71391717  1  0.104618  0  0.120845  0.111391  0  0.9906  0
H  H14  1  0.82547821  0.72281668  0.89923496  1  0.102053  0  0.121239  0.112406  0  0.988662  0
H  H15  1  0.95392262  0.74363974  0.85119791  1  0.111148  0  0.120765  0.112135  0  0.987348  0
H  H16  1  0.76318417  0.93192979  0.82003482  1  0.105937  0  0.120764  0.112886  0  0.987386  0
H  H17  1  0.73136842  0.83585058  0.89748899  1  0.090469  0  0.120459  0.110714  0  0.990371  0
H  H18  1  0.05427735  0.83198534  0.26818045  1  0.083472  0  0.120887  0.112945  0  0.987091  0
H  H19  1  0.17036090  0.90297345  0.26687944  1  0.112875  0  0.12093  0.111604  0  0.989582  0
H  H20  1  0.13990871  0.70155558  0.09674204  1  0.115476  0  0.120722  0.111561  0  0.989524  0
H  H21  1  0.04164093  0.72194529  0.18477034  1  0.096524  0  0.121167  0.113393  0  0.98679  0
H  H22  1  0.26247657  0.89596035  0.15431134  1  0.100717  0  0.120529  0.111247  0  0.990426  0
H  H23  1  0.23340153  0.81133563  0.06674706  1  0.099847  0  0.120217  0.112214  0  0.987594  0
H  H24  1  0.09944440  0.19391171  0.71095783  1  0.086571  0  0.120495  0.112209  0  0.987085  0
H  H25  1  0.19866551  0.10427164  0.71708019  1  0.070613  0  0.12077  0.111973  0  0.989963  0
H  H26  1  0.15815699  0.28656329  0.90583112  1  0.087448  0  0.12046  0.111459  0  0.990086  0
H  H27  1  0.07715509  0.28454155  0.80572443  1  0.077053  0  0.120589  0.112949  0  0.986508  0
H  H28  1  0.28537850  0.09962571  0.83161380  1  0.099048  0  0.120065  0.110751  0  0.990795  0
H  H29  1  0.25567079  0.18183266  0.92229948  1  0.106828  0  0.120399  0.112315  0  0.988143  0
H  H30  1  0.91683002  0.19344445  0.28600318  1  0.065638  0  0.120559  0.112509  0  0.987516  0
H  H31  1  0.84040834  0.08741847  0.29335746  1  0.114222  0  0.120594  0.111616  0  0.989865  0
H  H32  1  0.80322349  0.26542594  0.09872712  1  0.124336  0  0.120857  0.111834  0  0.989777  0
H  H33  1  0.90313448  0.27850212  0.18322661  1  0.081018  0  0.120607  0.112413  0  0.986727  0
H  H34  1  0.74981892  0.05989364  0.18504127  1  0.09583  0  0.120484  0.113152  0  0.988005  0
H  H35  1  0.71268040  0.15311398  0.10713874  1  0.07743  0  0.119946  0.110902  0  0.990625  0
H  H36  1  0.52526761  0.04402621  0.03317844  1  0.057667  0  0.098576  0.103911  0  1.003958  0
H  H37  1  0.52911252  0.93815189  0.96747580  1  0.052616  0  0.098839  0.104408  0  1.003503  0
H  H38  1  0.47289161  0.02039267  0.94370626  1  0.050114  0  0.098643  0.103999  0  1.003506  0
H  H39  1  0.46538545  0.96163085  0.05326561  1  0.070444  0  0.098973  0.104585  0  1.003754  0
H  H40  1  0.64821528  0.99191536  0.00186840  1  0.069896  0  0.097239  0.099621  0  1.01896  0
H  H41  1  0.34825156  0.99198807  0.99424711  1  0.019618  0  0.097008  0.099439  0  1.018975  0
H  H42  1  0.09658158  0.03507986  0.52004337  1  0.048244  0  0.098138  0.102682  0  1.007342  0
H  H43  1  0.97161270  0.97975212  0.52806115  1  0.081865  0  0.097539  0.100257  0  1.010624  0
H  H44  1  0.09201711  0.98284898  0.46568090  1  0.065753  0  0.098017  0.102076  0  1.007879  0
H  H45  1  0.96576591  0.03504260  0.48042611  1  0.03928  0  0.097829  0.1014  0  1.00955  0
H  H46  1  0.04097042  0.00572407  0.63079700  1  0.032377  0  0.096609  0.09831  0  1.023055  0
H  H47  1  0.01625337  0.01224822  0.36683705  1  0.020326  0  0.096455  0.097796  0  1.022887  0
H  H48  1  0.02911279  0.50956804  0.03407659  1  0.050797  0  0.097878  0.101178  0  1.009791  0
H  H49  1  0.90995203  0.52032197  0.97266187  1  0.050338  0  0.098088  0.10179  0  1.008226  0
H  H50  1  0.90307508  0.46082829  0.02054068  1  0.058321  0  0.098292  0.103002  0  1.006702  0
H  H51  1  0.03424613  0.46522487  0.97687105  1  0.007383  0  0.098068  0.101358  0  1.00987  0
H  H52  1  0.97298505  0.62333994  0.01456838  1  0.052006  0  0.096742  0.097127  0  1.026095  0
H  H53  1  0.96972256  0.35414011  0.99023299  1  0.01829  0  0.096694  0.099697  0  1.017529  0
H  H54  1  0.91303681  0.92963930  0.65396865  1  0.036566  0  0.098318  0.098396  0  0.989247  0
H  H55  1  0.01172867  0.94714878  0.64709913  1  0.035735  0  0.098348  0.094965  0  0.996799  0
H  H56  1  0.99421737  0.90111687  0.69624082  1  0.065935  0  0.098848  0.097811  0  0.992919  0
H  H57  1  0.93682578  0.96781451  0.59336344  1  0.046051  0  0.096639  0.09802  0  0.996655  0
H  H58  1  0.13635420  0.93111934  0.33394533  1  0.042159  0  0.098687  0.100166  0  0.987399  0
H  H59  1  0.04001007  0.95020069  0.35419764  1  0.023616  0  0.097568  0.092539  0  1.000252  0
H  H60  1  0.04733104  0.89999248  0.31026527  1  0.057476  0  0.09849  0.096611  0  0.993518  0
H  H61  1  0.12278640  0.97394227  0.39584318  1  0.068237  0  0.097586  0.100807  0  0.995381  0
H  H62  1  0.16363107  0.08175951  0.64715615  1  0.047009  0  0.098633  0.100413  0  0.987406  0
H  H63  1  0.06475987  0.07332229  0.63364421  1  0.028181  0  0.097721  0.093367  0  0.997109  0
H  H64  1  0.08093528  0.12591306  0.67234721  1  0.060729  0  0.098715  0.096602  0  0.992031  0
H  H65  1  0.14105673  0.03913344  0.58666210  1  0.077711  0  0.097984  0.101915  0  0.995534  0
H  H66  1  0.88399599  0.07748967  0.36019263  1  0.068015  0  0.098232  0.098769  0  0.988899  0
H  H67  1  0.98469354  0.07726299  0.36308256  1  0.072176  0  0.098456  0.094966  0  0.994049  0
H  H68  1  0.95618258  0.12834848  0.32363731  1  0.057391  0  0.099127  0.09846  0  0.991331  0
H  H69  1  0.91726347  0.03978412  0.41812298  1  0.062745  0  0.097704  0.100195  0  0.994419  0
H  H70  1  0.86181862  0.65603388  0.92749052  1  0.057293  0  0.098739  0.100496  0  0.986782  0
H  H71  1  0.95562821  0.64157835  0.95554689  1  0.077715  0  0.097337  0.092493  0  1.001828  0
H  H72  1  0.95199171  0.69175754  0.91162840  1  0.013031  0  0.098656  0.096354  0  0.993963  0
H  H73  1  0.87508511  0.58928998  0.96532727  1  0.058216  0  0.097456  0.100514  0  0.996804  0
H  H74  1  0.84114019  0.33165560  0.06673666  1  0.050751  0  0.098597  0.10006  0  0.987256  0
H  H75  1  0.94007039  0.34795921  0.05787190  1  0.05319  0  0.097623  0.093389  0  0.996177  0
H  H76  1  0.92262772  0.31191145  0.11277441  1  0.03913  0  0.098713  0.09696  0  0.992673  0
H  H77  1  0.86367898  0.39108341  0.02077406  1  0.045543  0  0.097978  0.101479  0  0.994906  0
H  H78  1  0.09692225  0.63455009  0.08676665  1  0.041135  0  0.098423  0.098927  0  0.988455  0
H  H79  1  0.99741446  0.62865136  0.07576534  1  0.050908  0  0.098304  0.094194  0  0.996754  0
H  H80  1  0.01648209  0.67375944  0.12354998  1  0.065901  0  0.098865  0.097978  0  0.991807  0
H  H81  1  0.07108354  0.57415753  0.04830357  1  0.051917  0  0.097555  0.100186  0  0.995161  0
H  H82  1  0.10837200  0.34750063  0.92526881  1  0.046457  0  0.097778  0.097231  0  0.989495  0
H  H83  1  0.00748606  0.35035237  0.92744078  1  0.039717  0  0.098844  0.09678  0  0.992337  0
H  H84  1  0.03759477  0.31515621  0.87328489  1  0.056424  0  0.098937  0.098791  0  0.991681  0
H  H85  1  0.07534332  0.40075844  0.96736514  1  0.040292  0  0.097256  0.09839  0  0.995662  0
H  H86  1  0.66656789  0.88108186  0.91931288  1  0.052223  0  0.097819  0.097669  0  0.989402  0
H  H87  1  0.66430043  0.97017300  0.93734397  1  0.015851  0  0.098856  0.096327  0  0.993035  0
H  H88  1  0.71458514  0.95295639  0.88588274  1  0.010214  0  0.098963  0.098622  0  0.992109  0
H  H89  1  0.60153617  0.90321228  0.95849393  1  0.018694  0  0.097481  0.098813  0  0.99544  0
H  H90  1  0.34337177  0.07231858  0.87995502  1  0.066479  0  0.097857  0.097832  0  0.98945  0
H  H91  1  0.33826685  0.05761368  0.96826159  1  0.060296  0  0.09881  0.096115  0  0.992962  0
H  H92  1  0.29443889  0.11217361  0.94687330  1  0.078219  0  0.098784  0.098371  0  0.991433  0
H  H93  1  0.40347517  0.03001410  0.90622601  1  0.064165  0  0.097231  0.098026  0  0.996364  0
H  H94  1  0.65477863  0.10366175  0.08531925  1  0.046237  0  0.097339  0.095973  0  0.990712  0
H  H95  1  0.66188556  0.01540760  0.06452213  1  0.0816  0  0.098948  0.096993  0  0.992456  0
H  H96  1  0.70929092  0.03525065  0.11673562  1  0.057053  0  0.099013  0.099545  0  0.992032  0
H  H97  1  0.59459123  0.07916586  0.04581970  1  0.012251  0  0.096865  0.097371  0  0.99727  0
H  H98  1  0.32746795  0.91404469  0.10862682  1  0.026689  0  0.097477  0.096702  0  0.990914  0
H  H99  1  0.33099654  0.92941702  0.02042459  1  0.058635  0  0.098631  0.096519  0  0.992872  0
H  H100  1  0.27960889  0.87852435  0.04052427  1  0.057011  0  0.098999  0.098986  0  0.992054  0
H  H101  1  0.39225431  0.95185503  0.08529324  1  0.049347  0  0.097131  0.09801  0  0.996106  0
C  C102  1  0.94314354  0.85396139  0.74390568  1  0.416105  0  0.007366  -0.056644  0  3.949043  0
C  C103  1  0.93124033  0.88379376  0.71797481  1  0.015502  0  -0.039453  0.014912  0  4.133907  0
C  C104  1  0.88689159  0.88977332  0.72626696  1  0.41133  0  0.008744  -0.050264  0  3.938072  0
C  C105  1  0.85404407  0.73242052  0.88317176  1  0.390275  0  0.007783  -0.051904  0  3.935951  0
C  C106  1  0.89729485  0.71952800  0.88557173  1  -0.00298  0  -0.040249  0.014231  0  4.136815  0
C  C107  1  0.91969330  0.74363568  0.85895009  1  0.399625  0  0.008081  -0.055412  0  3.95329  0
C  C108  1  0.75996585  0.90427877  0.83543008  1  0.367453  0  0.007154  -0.056141  0  3.951347  0
C  C109  1  0.73433082  0.89509963  0.86810070  1  0.027714  0  -0.039514  0.014577  0  4.131904  0
C  C110  1  0.74306525  0.85511140  0.87464879  1  0.4038  0  0.007818  -0.050241  0  3.936315  0
C  C111  1  0.08579414  0.84527550  0.26309786  1  0.411174  0  0.006775  -0.057725  0  3.953596  0
C  C112  1  0.10398424  0.87817884  0.28060168  1  0.049072  0  -0.03973  0.014337  0  4.136188  0
C  C113  1  0.14532946  0.88120533  0.26303978  1  0.36993  0  0.008409  -0.050158  0  3.93503  0
C  C114  1  0.12055906  0.71095950  0.12132015  1  0.377729  0  0.008958  -0.050825  0  3.938496  0
C  C115  1  0.07946889  0.69800390  0.13417096  1  0.009046  0  -0.039925  0.014233  0  4.134163  0
C  C116  1  0.07001302  0.72197430  0.16587333  1  0.441664  0  0.006015  -0.058608  0  3.95382  0
C  C117  1  0.25167482  0.87143387  0.13744449  1  0.407179  0  0.007583  -0.052694  0  3.940281  0
C  C118  1  0.26034037  0.86273723  0.09862314  1  -0.002472  0  -0.039806  0.015642  0  4.132136  0
C  C119  1  0.23616601  0.82856817  0.09259169  1  0.410504  0  0.006318  -0.057075  0  3.951148  0
C  C120  1  0.12721386  0.17553163  0.71731612  1  0.404497  0  0.005901  -0.057928  0  3.955707  0
C  C121  1  0.13997090  0.13987848  0.70061686  1  0.007592  0  -0.039603  0.014364  0  4.133124  0
C  C122  1  0.17830718  0.13008252  0.71982955  1  0.440604  0  0.007891  -0.051807  0  3.936442  0
C  C123  1  0.14379764  0.28267396  0.87794271  1  0.41891  0  0.007483  -0.052451  0  3.938983  0
C  C124  1  0.10389030  0.29651942  0.86423028  1  0.018795  0  -0.039173  0.015895  0  4.129786  0
C  C125  1  0.10206714  0.28097387  0.82705233  1  0.396089  0  0.005694  -0.059048  0  3.952181  0
C  C126  1  0.27502736  0.12399148  0.84935246  1  0.386725  0  0.008025  -0.051438  0  3.9355  0
C  C127  1  0.28109592  0.13022195  0.88878718  1  -0.008823  0  -0.039983  0.014631  0  4.132479  0
C  C128  1  0.25919620  0.16571033  0.89572285  1  0.39702  0  0.005566  -0.058588  0  3.95419  0
C  C129  1  0.89332126  0.17011512  0.28327302  1  0.433802  0  0.005289  -0.058419  0  3.955184  0
C  C130  1  0.89131688  0.13361240  0.30221614  1  0.035303  0  -0.039836  0.014199  0  4.133527  0
C  C131  1  0.85375741  0.11629380  0.28768282  1  0.369896  0  0.007516  -0.053032  0  3.938485  0
C  C132  1  0.82368297  0.26469641  0.12369256  1  0.397032  0  0.008144  -0.050616  0  3.934743  0
C  C133  1  0.86292635  0.28429556  0.13011387  1  -0.011506  0  -0.039545  0.015252  0  4.132795  0
C  C134  1  0.87504262  0.27077804  0.16663910  1  0.404558  0  0.006458  -0.057087  0  3.954527  0
C  C135  1  0.74446879  0.08723912  0.16971018  1  0.400543  0  0.004977  -0.061164  0  3.95384  0
C  C136  1  0.72077883  0.09422125  0.13621520  1  0.001515  0  -0.038898  0.017328  0  4.130996  0
C  C137  1  0.72483519  0.13487953  0.13024070  1  0.436512  0  0.006733  -0.053672  0  3.939348  0
C  C138  1  0.54397466  0.02100108  0.01894072  1  0.004527  0  -0.094068  -0.193088  0  3.931393  0
C  C139  1  0.52223440  0.99107084  0.00020289  1  0.007526  0  -0.010541  0.080408  0  4.047209  0
C  C140  1  0.54613741  0.96131543  0.98234548  1  -0.122834  0  -0.094259  -0.193482  0  3.933223  0
C  C141  1  0.59175415  0.96189111  0.98169282  1  0.053704  0  -0.016121  0.121609  0  4.081801  0
C  C142  1  0.61289429  0.99164586  0.00152251  1  -0.054621  0  -0.095441  -0.193317  0  3.911422  0
C  C143  1  0.58951794  0.02103562  0.02091165  1  -0.038184  0  -0.016092  0.121313  0  4.082115  0
C  C144  1  0.47407956  0.99109536  0.99870649  1  -0.023073  0  -0.010919  0.079487  0  4.047304  0
C  C145  1  0.45338773  0.00740156  0.96694954  1  -0.078008  0  -0.093411  -0.191804  0  3.929997  0
C  C146  1  0.40786892  0.00934169  0.96564338  1  0.019714  0  -0.015565  0.122218  0  4.08109  0
C  C147  1  0.38353096  0.99162639  0.99545125  1  -0.002428  0  -0.095556  -0.19455  0  3.91559  0
C  C148  1  0.40367329  0.97347838  0.02679443  1  -0.034941  0  -0.015686  0.122468  0  4.082446  0
C  C149  1  0.44918171  0.97486648  0.02875193  1  -0.108302  0  -0.095195  -0.194618  0  3.932703  0
C  C150  1  0.07067363  0.02188757  0.53751150  1  0.00242  0  -0.094399  -0.19096  0  3.926651  0
C  C151  1  0.03371263  0.00758990  0.51963826  1  0.027601  0  -0.011035  0.07816  0  4.045674  0
C  C152  1  0.99974808  0.99194772  0.54216812  1  -0.107754  0  -0.094527  -0.190911  0  3.932344  0
C  C153  1  0.00266729  0.98926540  0.58227461  1  -0.033377  0  -0.016748  0.121361  0  4.08715  0
C  C154  1  0.03892841  0.00585401  0.59960099  1  -0.026413  0  -0.096338  -0.195447  0  3.91955  0
C  C155  1  0.07274831  0.02279298  0.57778315  1  -0.039925  0  -0.01548  0.122645  0  4.074676  0
C  C156  1  0.02962679  0.00925147  0.47742560  1  -0.016751  0  -0.011153  0.079101  0  4.042426  0
C  C157  1  0.06300027  0.99560428  0.45314362  1  -0.121873  0  -0.094121  -0.191324  0  3.926557  0
C  C158  1  0.05770526  0.99471530  0.41317267  1  0.012529  0  -0.015849  0.122341  0  4.079941  0
C  C159  1  0.02011874  0.01150855  0.39786517  1  -0.041631  0  -0.095801  -0.194241  0  3.920324  0
C  C160  1  0.98688642  0.02656595  0.42151779  1  0.009493  0  -0.016725  0.120187  0  4.085012  0
C  C161  1  0.99137228  0.02377907  0.46148038  1  -0.024913  0  -0.09465  -0.191066  0  3.931825  0
C  C162  1  0.00375651  0.52805749  0.02204429  1  -0.084375  0  -0.09541  -0.191883  0  3.931726  0
C  C163  1  0.96912745  0.51051919  0.00333770  1  0.024584  0  -0.011436  0.078405  0  4.047409  0
C  C164  1  0.93591982  0.53396929  0.98858704  1  0.000217  0  -0.094233  -0.191554  0  3.92811  0
C  C165  1  0.93793632  0.57499757  0.99094988  1  -0.009167  0  -0.016522  0.122382  0  4.082776  0
C  C166  1  0.97173075  0.59164033  0.01160777  1  -0.050539  0  -0.095768  -0.192746  0  3.917394  0
C  C167  1  0.00462589  0.56869399  0.02771930  1  -0.016515  0  -0.01704  0.120577  0  4.089312  0
C  C168  1  0.96854070  0.46755443  0.99880241  1  -0.02446  0  -0.010974  0.080502  0  4.048806  0
C  C169  1  0.93152513  0.44582814  0.00868151  1  -0.071358  0  -0.0944  -0.191938  0  3.929379  0
C  C170  1  0.93235648  0.40471565  0.00746658  1  0.05518  0  -0.015218  0.122656  0  4.074277  0
C  C171  1  0.96931590  0.38598880  0.99222037  1  -0.002395  0  -0.096783  -0.198137  0  3.920717  0
C  C172  1  0.00601068  0.40743410  0.98020866  1  0.016561  0  -0.016434  0.12068  0  4.086362  0
C  C173  1  0.00579547  0.44812344  0.98541405  1  -0.064016  0  -0.095258  -0.192627  0  3.937409  0
C  C174  1  0.95947619  0.90423254  0.69116653  1  -0.040869  0  -0.09565  -0.12403  0  4.044662  0
C  C175  1  0.94734134  0.92710097  0.66107460  1  -0.072982  0  -0.105881  -0.104569  0  4.088026  0
C  C176  1  0.97810932  0.94829048  0.63762252  1  0.008367  0  -0.100958  -0.088649  0  4.094548  0
C  C177  1  0.96959196  0.96842915  0.60485459  1  -0.096602  0  -0.098982  -0.14952  0  3.991413  0
C  C178  1  0.08266117  0.90278363  0.30861678  1  -0.071215  0  -0.094733  -0.121584  0  4.045367  0
C  C179  1  0.10106762  0.92843375  0.33297997  1  0.010373  0  -0.10548  -0.105574  0  4.082698  0
C  C180  1  0.07501161  0.95177073  0.35862481  1  -0.119738  0  -0.10079  -0.08705  0  4.096768  0
C  C181  1  0.08851842  0.97372464  0.38833207  1  0.021557  0  -0.099757  -0.152773  0  3.984382  0
C  C182  1  0.11539662  0.11822382  0.67313976  1  -0.111755  0  -0.094674  -0.120078  0  4.043881  0
C  C183  1  0.12921083  0.08940202  0.64924119  1  0.015083  0  -0.105853  -0.106543  0  4.079665  0
C  C184  1  0.09901778  0.06810062  0.62648760  1  0.009129  0  -0.101376  -0.089656  0  4.098085  0
C  C185  1  0.10775234  0.04326904  0.59721675  1  -0.1085  0  -0.099131  -0.152634  0  3.98107  0
C  C186  1  0.92324375  0.11693483  0.32741552  1  -0.104809  0  -0.09485  -0.122001  0  4.042446  0
C  C187  1  0.91685017  0.08805165  0.35392355  1  -0.02263  0  -0.106455  -0.106279  0  4.086967  0
C  C188  1  0.95211486  0.07000882  0.37393647  1  -0.05235  0  -0.101115  -0.090022  0  4.09667  0
C  C189  1  0.94897520  0.04540376  0.40459357  1  -0.077953  0  -0.097889  -0.148405  0  3.987579  0
C  C190  1  0.91668025  0.69000199  0.90961604  1  0.000586  0  -0.09478  -0.121302  0  4.046717  0
C  C191  1  0.89680645  0.66046486  0.92949872  1  -0.062451  0  -0.105565  -0.105472  0  4.07981  0
C  C192  1  0.92141201  0.63386934  0.95268860  1  -0.122748  0  -0.100911  -0.087972  0  4.096867  0
C  C193  1  0.90802956  0.59994846  0.96960562  1  -0.016796  0  -0.099669  -0.152818  0  3.986094  0
C  C194  1  0.88838098  0.30978849  0.10538136  1  0.060702  0  -0.094864  -0.122218  0  4.046248  0
C  C195  1  0.87535187  0.33082643  0.07440538  1  -0.12304  0  -0.105508  -0.104849  0  4.07832  0
C  C196  1  0.90586299  0.35346043  0.05178271  1  -0.102152  0  -0.100682  -0.088324  0  4.096704  0
C  C197  1  0.89717133  0.38207502  0.02584251  1  -0.010477  0  -0.098498  -0.151535  0  3.98096  0
C  C198  1  0.05108410  0.66991065  0.11703907  1  -0.109969  0  -0.094827  -0.122449  0  4.042697  0
C  C199  1  0.06261456  0.64078408  0.09258093  1  0.002423  0  -0.106963  -0.106788  0  4.088877  0
C  C200  1  0.03098942  0.61849930  0.07257880  1  0.008799  0  -0.101426  -0.088898  0  4.098753  0
C  C201  1  0.03856740  0.58701582  0.04998387  1  -0.152708  0  -0.098637  -0.150618  0  3.99163  0
C  C202  1  0.07042705  0.31846834  0.88414007  1  -0.075619  0  -0.09595  -0.125136  0  4.042596  0
C  C203  1  0.07568276  0.34171876  0.91507721  1  0.007131  0  -0.105555  -0.103615  0  4.088581  0
C  C204  1  0.03998644  0.35997637  0.93513639  1  -0.064966  0  -0.100921  -0.091099  0  4.093698  0
C  C205  1  0.04333586  0.38875018  0.96141136  1  -0.03155  0  -0.097322  -0.145806  0  3.990975  0
C  C206  1  0.70769278  0.92178814  0.89023464  1  0.035666  0  -0.096158  -0.124916  0  4.043739  0
C  C207  1  0.67569159  0.91188014  0.91577793  1  -0.083027  0  -0.10568  -0.103744  0  4.088067  0
C  C208  1  0.65217035  0.94006728  0.93841609  1  0.044765  0  -0.101216  -0.091468  0  4.094349  0
C  C209  1  0.61570844  0.93253049  0.95950300  1  -0.085961  0  -0.097558  -0.147768  0  3.991736  0
C  C210  1  0.30288948  0.10621449  0.91682213  1  -0.062529  0  -0.095906  -0.123885  0  4.04167  0
C  C211  1  0.33260604  0.07768399  0.90957264  1  -0.070722  0  -0.105832  -0.10479  0  4.087579  0
C  C212  1  0.35214800  0.05451002  0.93926853  1  -0.087825  0  -0.101107  -0.090954  0  4.092602  0
C  C213  1  0.38733879  0.03105286  0.93446905  1  -0.023022  0  -0.09782  -0.147233  0  3.990005  0
C  C214  1  0.69894587  0.06572668  0.11313175  1  -0.005441  0  -0.096693  -0.126987  0  4.040583  0
C  C215  1  0.66707651  0.07365038  0.08782479  1  -0.074874  0  -0.104918  -0.102009  0  4.088347  0
C  C216  1  0.64717934  0.04464125  0.06440078  1  -0.127706  0  -0.101395  -0.090983  0  4.088305  0
C  C217  1  0.61086764  0.05069516  0.04376607  1  0.029353  0  -0.097222  -0.14718  0  3.992814  0
C  C218  1  0.28651700  0.88399830  0.07069980  1  -0.103955  0  -0.096243  -0.125992  0  4.042515  0
C  C219  1  0.31852765  0.90969299  0.07870635  1  0.028994  0  -0.105545  -0.103431  0  4.090515  0
C  C220  1  0.34253654  0.93129918  0.04988486  1  0.025224  0  -0.10055  -0.090171  0  4.088826  0
C  C221  1  0.37886937  0.95229969  0.05640739  1  -0.105763  0  -0.097978  -0.148002  0  3.99205  0
N  N222  1  0.87377688  0.86558389  0.75491294  1  -0.776991  0  -0.338991  -0.142146  0  3.764238  0
N  N223  1  0.90867095  0.84308753  0.76572271  1  -0.789524  0  -0.338679  -0.141613  0  3.769315  0
N  N224  1  0.89205734  0.76862412  0.84199005  1  -0.784425  0  -0.338778  -0.1413  0  3.774358  0
N  N225  1  0.85123022  0.76184018  0.85725490  1  -0.758024  0  -0.335801  -0.141736  0  3.756951  0
N  N226  1  0.77171250  0.84183844  0.84810402  1  -0.774522  0  -0.337346  -0.143422  0  3.758346  0
N  N227  1  0.78195130  0.87235874  0.82351473  1  -0.778338  0  -0.341437  -0.144293  0  3.777777  0
N  N228  1  0.15097685  0.85243442  0.23717855  1  -0.788428  0  -0.336289  -0.142878  0  3.759089  0
N  N229  1  0.11404977  0.82991648  0.23743711  1  -0.784565  0  -0.339019  -0.139938  0  3.775558  0
N  N230  1  0.10280708  0.74708238  0.17139390  1  -0.779338  0  -0.339334  -0.139834  0  3.774758  0
N  N231  1  0.13408058  0.74044481  0.14348748  1  -0.7813  0  -0.338585  -0.142333  0  3.762342  0
N  N232  1  0.21516061  0.81772655  0.12523076  1  -0.783393  0  -0.339222  -0.143596  0  3.778638  0
N  N233  1  0.22453623  0.84458859  0.15303935  1  -0.782773  0  -0.337227  -0.141594  0  3.764829  0
N  N234  1  0.18721007  0.15762869  0.74601393  1  -0.754815  0  -0.334702  -0.141091  0  3.75213  0
N  N235  1  0.15557189  0.18605761  0.74418906  1  -0.788792  0  -0.34097  -0.142975  0  3.774466  0
N  N236  1  0.13790658  0.25961582  0.81936256  1  -0.792378  0  -0.341718  -0.142753  0  3.772444  0
N  N237  1  0.16370179  0.26039366  0.85113788  1  -0.770768  0  -0.337836  -0.142826  0  3.755754  0
N  N238  1  0.24178833  0.17952208  0.86309973  1  -0.775932  0  -0.33814  -0.141811  0  3.773609  0
N  N239  1  0.25134549  0.15339501  0.83429469  1  -0.749816  0  -0.335481  -0.141707  0  3.760217  0
N  N240  1  0.83529108  0.14051300  0.26192237  1  -0.778699  0  -0.337142  -0.141214  0  3.757376  0
N  N241  1  0.85967205  0.17414609  0.25947610  1  -0.774109  0  -0.340947  -0.143139  0  3.775872  0
N  N242  1  0.84551948  0.24523158  0.18072199  1  -0.78441  0  -0.341602  -0.14433  0  3.775316  0
N  N243  1  0.81369004  0.24121081  0.15390548  1  -0.763611  0  -0.336191  -0.142919  0  3.751735  0
N  N244  1  0.74906469  0.15060940  0.15789262  1  -0.777368  0  -0.336722  -0.143166  0  3.758661  0
N  N245  1  0.76098108  0.12101509  0.18266721  1  -0.785098  0  -0.33741  -0.14016  0  3.771529  0
