# generated using pymatgen
data_AgH20C18N5O3
_symmetry_space_group_name_H-M   'P 1'
_cell_length_a   8.14379282
_cell_length_b   8.14378542
_cell_length_c   16.37520279
_cell_angle_alpha   75.67906787
_cell_angle_beta   75.67906317
_cell_angle_gamma   66.93830319
_symmetry_Int_Tables_number   1
_chemical_formula_structural   AgH20C18N5O3
_chemical_formula_sum   'Ag2 H40 C36 N10 O6'
_cell_volume   954.29422909
_cell_formula_units_Z   2
loop_
 _symmetry_equiv_pos_site_id
 _symmetry_equiv_pos_as_xyz
  1  'x, y, z'
loop_
 _atom_site_type_symbol
 _atom_site_label
 _atom_site_symmetry_multiplicity
 _atom_site_fract_x
 _atom_site_fract_y
 _atom_site_fract_z
 _atom_site_occupancy
 _atom_site_hle17_bader_spin_density
 _atom_site_hle17_ddec_charge
 _atom_site_hle17_ddec_spin_density
 _atom_site_hle17_ddec_sum_bond_order
 _atom_site_hle17_magmom
 _atom_site_hse06_10hf_bader_spin_density
 _atom_site_hse06_10hf_ddec_charge
 _atom_site_hse06_10hf_ddec_spin_density
 _atom_site_hse06_10hf_ddec_sum_bond_order
 _atom_site_hse06_10hf_magmom
 _atom_site_hse06_bader_spin_density
 _atom_site_hse06_ddec_charge
 _atom_site_hse06_ddec_spin_density
 _atom_site_hse06_ddec_sum_bond_order
 _atom_site_hse06_magmom
 _atom_site_pbe_bader_spin_density
 _atom_site_pbe_cm5_charge
 _atom_site_pbe_ddec_charge
 _atom_site_pbe_ddec_spin_density
 _atom_site_pbe_ddec_sum_bond_order
 _atom_site_pbe_magmom
Ag  Ag0  1  0.90109553  0.19722354  0.65167854  1  0  0.473533  0  1.489943  0  0  0.321298  0  1.936274  0  0  0.351534  0  1.891535  0  0  0.463049  0.30101  0  1.966872  0
Ag  Ag1  1  0.80277565  0.09890411  0.34832137  1  0  0.473572  0  1.489907  0  0  0.321355  0  1.936251  0  0  0.351593  0  1.89151  0  0  0.463075  0.301069  0  1.966863  0
H  H2  1  0.00452841  0.39988788  0.75709336  1  0  0.084289  0  0.945139  0  0  0.089952  0  1.013711  0  0  0.09307  0  1.010702  0  0  0.115369  0.087523  0  1.016104  0
H  H3  1  0.60011121  0.99547393  0.24290632  1  0  0.084294  0  0.945112  0  0  0.08996  0  1.013681  0  0  0.093079  0  1.010672  0  0  0.115361  0.087531  0  1.016071  0
H  H4  1  0.28121045  0.40859619  0.79621121  1  0  0.105811  0  0.967428  0  0  0.115487  0  1.025761  0  0  0.117855  0  1.027023  0  0  0.106327  0.113738  0  1.025137  0
H  H5  1  0.59140234  0.71879169  0.20378854  1  0  0.105841  0  0.967426  0  0  0.115491  0  1.025778  0  0  0.117859  0  1.02704  0  0  0.106334  0.113743  0  1.025148  0
H  H6  1  0.58524306  0.25774752  0.71501043  1  0  0.092595  0  0.997246  0  0  0.099152  0  1.073964  0  0  0.103315  0  1.06847  0  0  0.097078  0.095958  0  1.078143  0
H  H7  1  0.74225084  0.41475814  0.28498880  1  0  0.09258  0  0.997267  0  0  0.099124  0  1.074003  0  0  0.103286  0  1.068508  0  0  0.097067  0.09593  0  1.078185  0
H  H8  1  0.31859721  0.10032425  0.56650684  1  0  0.08092  0  0.948218  0  0  0.089422  0  1.016697  0  0  0.091948  0  1.013956  0  0  0.11709  0.08747  0  1.018833  0
H  H9  1  0.89967460  0.68140289  0.43349248  1  0  0.080925  0  0.948233  0  0  0.089402  0  1.016727  0  0  0.091935  0  1.013979  0  0  0.117077  0.087454  0  1.018864  0
H  H10  1  0.62451569  0.98562024  0.54172556  1  0  0.06993  0  0.931654  0  0  0.07823  0  1.006931  0  0  0.081273  0  1.001093  0  0  0.11674  0.075792  0  1.011495  0
H  H11  1  0.01437905  0.37548491  0.45827308  1  0  0.069953  0  0.931658  0  0  0.078253  0  1.006942  0  0  0.081297  0  1.001103  0  0  0.116745  0.075814  0  1.011502  0
H  H12  1  0.89582037  0.88718602  0.49074988  1  0  0.024396  0  0.956689  0  0  0.039465  0  1.030023  0  0  0.039757  0  1.027799  0  0  0.09756  0.039072  0  1.031765  0
H  H13  1  0.11281259  0.10418014  0.50924883  1  0  0.024367  0  0.956711  0  0  0.03944  0  1.030042  0  0  0.039732  0  1.027819  0  0  0.097547  0.039047  0  1.031782  0
H  H14  1  0.12046639  0.82499915  0.62809127  1  0  0.067899  0  0.953912  0  0  0.083013  0  1.023615  0  0  0.084144  0  1.02307  0  0  0.086277  0.082038  0  1.02417  0
H  H15  1  0.17500150  0.87953440  0.37190721  1  0  0.067872  0  0.953904  0  0  0.083016  0  1.023569  0  0  0.084151  0  1.023021  0  0  0.086295  0.082039  0  1.02413  0
H  H16  1  0.98862300  0.69773523  0.62631905  1  0  0.082163  0  0.932506  0  0  0.098558  0  0.992511  0  0  0.098638  0  0.994443  0  0  0.090876  0.098441  0  0.991183  0
H  H17  1  0.30226516  0.01137813  0.37367996  1  0  0.082158  0  0.932513  0  0  0.098547  0  0.992522  0  0  0.098628  0  0.994454  0  0  0.090871  0.098431  0  0.991194  0
H  H18  1  0.18772414  0.59262248  0.49223705  1  0  0.064263  0  0.934618  0  0  0.081802  0  0.99846  0  0  0.082459  0  0.998389  0  0  0.084256  0.081197  0  0.998677  0
H  H19  1  0.40737782  0.81227702  0.50776263  1  0  0.064287  0  0.934599  0  0  0.08183  0  0.998443  0  0  0.082487  0  0.998372  0  0  0.084271  0.081229  0  0.998658  0
H  H20  1  0.32026423  0.54474161  0.57124901  1  0  0.065103  0  0.956263  0  0  0.083878  0  1.014926  0  0  0.083199  0  1.018248  0  0  0.08555  0.084336  0  1.012645  0
H  H21  1  0.45525913  0.67973486  0.42875024  1  0  0.065102  0  0.95627  0  0  0.083885  0  1.014927  0  0  0.083205  0  1.018248  0  0  0.085555  0.084343  0  1.012652  0
H  H22  1  0.68106275  0.94777386  0.80412228  1  0  0.069886  0  0.934686  0  0  0.080154  0  0.996385  0  0  0.08224  0  0.994766  0  0  0.112541  0.078603  0  0.997608  0
H  H23  1  0.05222467  0.31894175  0.19587719  1  0  0.06987  0  0.934732  0  0  0.080187  0  0.996374  0  0  0.082228  0  0.994809  0  0  0.112552  0.078633  0  0.997596  0
H  H24  1  0.72640086  0.70368180  0.93311170  1  0  0.106838  0  0.988257  0  0  0.106108  0  1.065604  0  0  0.110817  0  1.062393  0  0  0.103219  0.102712  0  1.068079  0
H  H25  1  0.29631577  0.27360242  0.06688801  1  0  0.106821  0  0.98828  0  0  0.106111  0  1.065616  0  0  0.11082  0  1.062403  0  0  0.103212  0.102714  0  1.068094  0
H  H26  1  0.04218037  0.54551835  0.96927471  1  0  0.10046  0  0.949794  0  0  0.108987  0  1.013271  0  0  0.112538  0  1.010083  0  0  0.108621  0.106363  0  1.015634  0
H  H27  1  0.45447640  0.95782398  0.03072342  1  0  0.100433  0  0.949794  0  0  0.108961  0  1.013276  0  0  0.112512  0  1.010087  0  0  0.108617  0.106341  0  1.015634  0
H  H28  1  0.21840819  0.90711381  0.75847721  1  0  0.081588  0  0.951988  0  0  0.087773  0  1.020992  0  0  0.090014  0  1.019721  0  0  0.112333  0.086102  0  1.022013  0
H  H29  1  0.09288428  0.78159372  0.24152267  1  0  0.081607  0  0.951968  0  0  0.087778  0  1.020996  0  0  0.09002  0  1.019725  0  0  0.112337  0.08611  0  1.022003  0
H  H30  1  0.43800287  0.69100475  0.84093010  1  0  0.067555  0  0.945772  0  0  0.072979  0  1.019585  0  0  0.077247  0  1.014008  0  0  0.105868  0.069809  0  1.023668  0
H  H31  1  0.30899189  0.56200117  0.15906966  1  0  0.067616  0  0.945755  0  0  0.073032  0  1.019556  0  0  0.0773  0  1.013978  0  0  0.105866  0.069856  0  1.02364  0
H  H32  1  0.65048703  0.50579625  0.91031135  1  0  0.030522  0  0.935488  0  0  0.045099  0  0.99982  0  0  0.045557  0  0.999185  0  0  0.099075  0.044654  0  1.000444  0
H  H33  1  0.49420270  0.34951314  0.08968979  1  0  0.03052  0  0.935418  0  0  0.045094  0  0.99977  0  0  0.045552  0  0.999134  0  0  0.099094  0.04465  0  1.000395  0
H  H34  1  0.66844070  0.23762991  0.86415306  1  0  0.078662  0  0.948805  0  0  0.095455  0  1.013665  0  0  0.095584  0  1.014651  0  0  0.090412  0.095305  0  1.013046  0
H  H35  1  0.76236761  0.33156223  0.13584851  1  0  0.078646  0  0.948912  0  0  0.095467  0  1.013714  0  0  0.095597  0  1.014699  0  0  0.090433  0.095314  0  1.013097  0
H  H36  1  0.58551576  0.14632371  0.96880642  1  0  0.057436  0  0.957203  0  0  0.077216  0  1.020637  0  0  0.077227  0  1.021444  0  0  0.084955  0.077167  0  1.020108  0
H  H37  1  0.85367503  0.41448535  0.03119461  1  0  0.057442  0  0.957194  0  0  0.077208  0  1.020625  0  0  0.07722  0  1.021433  0  0  0.084959  0.077158  0  1.02009  0
H  H38  1  0.92019703  0.00420954  0.93947148  1  0  0.054185  0  0.988612  0  0  0.072119  0  1.051324  0  0  0.071068  0  1.055287  0  0  0.081382  0.072836  0  1.048618  0
H  H39  1  0.99578829  0.07980260  0.06053164  1  0  0.054276  0  0.988606  0  0  0.072184  0  1.051318  0  0  0.071133  0  1.055277  0  0  0.081387  0.0729  0  1.048612  0
H  H40  1  0.94354841  0.21840339  0.91167267  1  0  0.054611  0  0.929507  0  0  0.076486  0  0.986779  0  0  0.076644  0  0.987574  0  0  0.083823  0.076311  0  0.986298  0
H  H41  1  0.78159492  0.05645161  0.08833036  1  0  0.054676  0  0.929409  0  0  0.076526  0  0.986688  0  0  0.076678  0  0.98749  0  0  0.083852  0.07635  0  0.986207  0
C  C42  1  0.14061326  0.33471697  0.72369819  1  0  0.129277  0  3.681626  0  0  0.0958  0  3.936289  0  0  0.103702  0  3.95296  0  0  0.050842  0.090603  0  3.925219  0
C  C43  1  0.66528195  0.85938753  0.27630229  1  0  0.129253  0  3.681519  0  0  0.095775  0  3.936179  0  0  0.103676  0  3.95285  0  0  0.050832  0.090582  0  3.925103  0
C  C44  1  0.29430746  0.33911392  0.74479094  1  0  -0.113905  0  3.730015  0  0  -0.121121  0  3.973401  0  0  -0.12883  0  3.995578  0  0  -0.080376  -0.116326  0  3.958802  0
C  C45  1  0.66088380  0.70569353  0.25520843  1  0  -0.113945  0  3.730015  0  0  -0.121136  0  3.973404  0  0  -0.128844  0  3.995578  0  0  -0.080374  -0.116339  0  3.958798  0
C  C46  1  0.46401443  0.25333625  0.69964758  1  0  -0.031237  0  3.669933  0  0  -0.058184  0  3.912181  0  0  -0.054265  0  3.929002  0  0  -0.059236  -0.060647  0  3.901142  0
C  C47  1  0.74666073  0.53598623  0.30035190  1  0  -0.031249  0  3.66993  0  0  -0.058206  0  3.912166  0  0  -0.054283  0  3.928978  0  0  -0.059237  -0.060667  0  3.901129  0
C  C48  1  0.47574101  0.16466274  0.63408656  1  0  0.003767  0  3.771322  0  0  0.029171  0  4.001313  0  0  0.021816  0  4.024943  0  0  0.00095  0.033799  0  3.985719  0
C  C49  1  0.83533325  0.52425971  0.36591364  1  0  0.003838  0  3.77128  0  0  0.029292  0  4.001197  0  0  0.021939  0  4.024825  0  0  0.000948  0.033916  0  3.985611  0
C  C50  1  0.31375200  0.16778776  0.61732707  1  0  0.108406  0  3.656797  0  0  0.070369  0  3.90462  0  0  0.077191  0  3.922307  0  0  0.063172  0.06586  0  3.892928  0
C  C51  1  0.83221183  0.68624697  0.38267170  1  0  0.108415  0  3.656824  0  0  0.070405  0  3.904607  0  0  0.07722  0  3.922292  0  0  0.063209  0.065893  0  3.892921  0
C  C52  1  0.64295740  0.06261930  0.58308573  1  0  0.166525  0  3.664738  0  0  0.119337  0  3.921902  0  0  0.132936  0  3.934663  0  0  0.090001  0.109849  0  3.913911  0
C  C53  1  0.93737812  0.35704379  0.41691361  1  0  0.166477  0  3.664633  0  0  0.119266  0  3.921813  0  0  0.132864  0  3.934574  0  0  0.090037  0.109784  0  3.913814  0
C  C54  1  0.95233835  0.93734203  0.53043948  1  0  0.097928  0  3.642148  0  0  0.079554  0  3.87721  0  0  0.0824  0  3.895047  0  0  0.002783  0.077839  0  3.864878  0
C  C55  1  0.06265696  0.04766298  0.46955969  1  0  0.098007  0  3.642055  0  0  0.079603  0  3.877144  0  0  0.08245  0  3.894981  0  0  0.002785  0.077887  0  3.864811  0
C  C56  1  0.07227782  0.77480383  0.58539146  1  0  -0.151301  0  3.660792  0  0  -0.193538  0  3.916154  0  0  -0.195842  0  3.931278  0  0  -0.166305  -0.191682  0  3.905605  0
C  C57  1  0.22519602  0.92772263  0.41460777  1  0  -0.151291  0  3.660735  0  0  -0.193518  0  3.916087  0  0  -0.195825  0  3.93121  0  0  -0.166319  -0.191663  0  3.905543  0
C  C58  1  0.23382595  0.65604321  0.53004254  1  0  -0.099578  0  3.682934  0  0  -0.134387  0  3.934656  0  0  -0.135596  0  3.950382  0  0  -0.168932  -0.133408  0  3.923666  0
C  C59  1  0.34395782  0.76617412  0.46995596  1  0  -0.099612  0  3.682934  0  0  -0.134459  0  3.934678  0  0  -0.135667  0  3.950405  0  0  -0.168958  -0.133481  0  3.923695  0
C  C60  1  0.81383021  0.88038648  0.82373081  1  0  0.137104  0  3.703788  0  0  0.108437  0  3.955352  0  0  0.11506  0  3.973487  0  0  0.053457  0.104235  0  3.942903  0
C  C61  1  0.11961063  0.18617382  0.17626887  1  0  0.137115  0  3.70391  0  0  0.108431  0  3.955447  0  0  0.115087  0  3.973597  0  0  0.05346  0.104237  0  3.942992  0
C  C62  1  0.84038433  0.74098556  0.89434729  1  0  -0.129017  0  3.740352  0  0  -0.136182  0  3.990307  0  0  -0.143531  0  4.010858  0  0  -0.084887  -0.131492  0  3.976542  0
C  C63  1  0.25901007  0.15962080  0.10565121  1  0  -0.128984  0  3.740364  0  0  -0.136184  0  3.99032  0  0  -0.14353  0  4.010857  0  0  -0.084864  -0.131495  0  3.976557  0
C  C64  1  0.01309770  0.65548595  0.91513713  1  0  -0.040842  0  3.69232  0  0  -0.065906  0  3.931703  0  0  -0.062534  0  3.948709  0  0  -0.062263  -0.067723  0  3.920047  0
C  C65  1  0.34450992  0.98690761  0.08486138  1  0  -0.04078  0  3.6924  0  0  -0.065861  0  3.931781  0  0  -0.062489  0  3.94879  0  0  -0.062241  -0.067685  0  3.920126  0
C  C66  1  0.15422661  0.71285602  0.86559245  1  0  -0.009649  0  3.810856  0  0  0.014886  0  4.041148  0  0  0.009382  0  4.064696  0  0  -0.007869  0.018281  0  4.025268  0
C  C67  1  0.28714281  0.84577688  0.13440591  1  0  -0.009601  0  3.810941  0  0  0.014969  0  4.041131  0  0  0.009466  0  4.064678  0  0  -0.00783  0.018371  0  4.025241  0
C  C68  1  0.11219317  0.85773267  0.79784905  1  0  0.081973  0  3.689037  0  0  0.048689  0  3.937922  0  0  0.053547  0  3.956687  0  0  0.051717  0.045665  0  3.925148  0
C  C69  1  0.14226355  0.88781119  0.20215014  1  0  0.081968  0  3.689  0  0  0.04867  0  3.937867  0  0  0.053529  0  3.956632  0  0  0.051721  0.04565  0  3.925092  0
C  C70  1  0.34060592  0.62985298  0.88275457  1  0  0.11578  0  3.724876  0  0  0.080348  0  3.987227  0  0  0.088583  0  4.001228  0  0  0.071815  0.074924  0  3.977826  0
C  C71  1  0.37014436  0.65939508  0.11724486  1  0  0.115563  0  3.725042  0  0  0.080176  0  3.987292  0  0  0.088412  0  4.001292  0  0  0.071768  0.074755  0  3.977887  0
C  C72  1  0.57508701  0.42120952  0.95327285  1  0  0.099633  0  3.647188  0  0  0.086719  0  3.887163  0  0  0.089043  0  3.90333  0  0  0.0063  0.085295  0  3.876005  0
C  C73  1  0.57879027  0.42491425  0.04672866  1  0  0.099819  0  3.646983  0  0  0.086876  0  3.886979  0  0  0.089202  0  3.903145  0  0  0.006339  0.085447  0  3.875823  0
C  C74  1  0.66716991  0.22927678  0.93226286  1  0  -0.147247  0  3.670793  0  0  -0.192282  0  3.927404  0  0  -0.193897  0  3.942308  0  0  -0.164567  -0.190948  0  3.916972  0
C  C75  1  0.77072163  0.33283121  0.06773882  1  0  -0.147219  0  3.670904  0  0  -0.192226  0  3.927416  0  0  -0.193842  0  3.942319  0  0  -0.164543  -0.19088  0  3.916968  0
C  C76  1  0.85846101  0.14268271  0.95327027  1  0  -0.10098  0  3.701778  0  0  -0.137809  0  3.956796  0  0  -0.138734  0  3.97224  0  0  -0.171152  -0.137032  0  3.946031  0
C  C77  1  0.85731486  0.14153867  0.04673228  1  0  -0.101335  0  3.701875  0  0  -0.138102  0  3.956854  0  0  -0.139018  0  3.972291  0  0  -0.171244  -0.137327  0  3.946086  0
N  N78  1  0.15007174  0.25018144  0.66052189  1  0  -0.29599  0  3.290321  0  0  -0.219839  0  3.577264  0  0  -0.237431  0  3.592166  0  0  -0.336604  -0.208107  0  3.567141  0
N  N79  1  0.74981768  0.84992871  0.33947860  1  0  -0.296036  0  3.290312  0  0  -0.2199  0  3.577253  0  0  -0.237492  0  3.592156  0  0  -0.336639  -0.208169  0  3.567134  0
N  N80  1  0.80300979  0.05518991  0.58398843  1  0  -0.314276  0  3.215793  0  0  -0.232819  0  3.500747  0  0  -0.254486  0  3.518888  0  0  -0.339065  -0.218526  0  3.48852  0
N  N81  1  0.94481049  0.19698965  0.41601013  1  0  -0.314268  0  3.215649  0  0  -0.232829  0  3.50066  0  0  -0.254497  0  3.5188  0  0  -0.339086  -0.218537  0  3.488434  0
N  N82  1  0.66012170  0.59715120  0.66632749  1  0  0.692557  0  4.151126  0  0  0.72854  0  4.435098  0  0  0.756987  0  4.441853  0  0  0.089541  0.709285  0  4.429844  0
N  N83  1  0.40284909  0.33987941  0.33367338  1  0  0.692267  0  4.151288  0  0  0.728272  0  4.435241  0  0  0.756718  0  4.441998  0  0  0.08949  0.709015  0  4.429986  0
N  N84  1  0.94609553  0.94024189  0.77714601  1  0  -0.307546  0  3.229296  0  0  -0.245389  0  3.512189  0  0  -0.260671  0  3.527744  0  0  -0.325076  -0.234962  0  3.501344  0
N  N85  1  0.05975408  0.05390965  0.22285306  1  0  -0.307579  0  3.229374  0  0  -0.245439  0  3.512294  0  0  -0.260717  0  3.527831  0  0  -0.325132  -0.23502  0  3.501458  0
N  N86  1  0.38751510  0.49184418  0.94125686  1  0  -0.32978  0  3.028132  0  0  -0.291907  0  3.306468  0  0  -0.306258  0  3.323828  0  0  -0.319048  -0.282114  0  3.294461  0
N  N87  1  0.50815386  0.61248787  0.05874346  1  0  -0.329744  0  3.028089  0  0  -0.291896  0  3.306419  0  0  -0.306248  0  3.323778  0  0  -0.31905  -0.282104  0  3.294412  0
O  O88  1  0.70748763  0.46496325  0.72812404  1  0  -0.508947  0  1.77211  0  0  -0.48269  0  2.002395  0  0  -0.501181  0  1.993659  0  0  -0.220597  -0.469397  0  2.007976  0
O  O89  1  0.53503611  0.29251434  0.27187498  1  0  -0.508841  0  1.772087  0  0  -0.482611  0  2.00239  0  0  -0.501101  0  1.993653  0  0  -0.220599  -0.46932  0  2.007975  0
O  O90  1  0.54811648  0.74855725  0.68319800  1  0  -0.480059  0  1.728732  0  0  -0.477117  0  1.94392  0  0  -0.492739  0  1.939125  0  0  -0.206292  -0.46559  0  1.946769  0
O  O91  1  0.25144133  0.45188819  0.31680388  1  0  -0.479948  0  1.728779  0  0  -0.477004  0  1.943948  0  0  -0.49263  0  1.939163  0  0  -0.206263  -0.465475  0  1.946794  0
O  O92  1  0.72672834  0.57269836  0.58990082  1  0  -0.48524  0  1.713842  0  0  -0.475306  0  1.932627  0  0  -0.490776  0  1.925501  0  0  -0.210727  -0.464117  0  1.937186  0
O  O93  1  0.42730478  0.27327301  0.41009966  1  0  -0.485148  0  1.713874  0  0  -0.475224  0  1.932656  0  0  -0.490696  0  1.925533  0  0  -0.210703  -0.464036  0  1.937212  0
