# generated using pymatgen
data_CuH19C22S2N7O4
_symmetry_space_group_name_H-M   'P 1'
_cell_length_a   10.64699549
_cell_length_b   11.30987172
_cell_length_c   13.22056316
_cell_angle_alpha   90.20337621
_cell_angle_beta   98.61471614
_cell_angle_gamma   109.56273380
_symmetry_Int_Tables_number   1
_chemical_formula_structural   CuH19C22S2N7O4
_chemical_formula_sum   'Cu2 H38 C44 S4 N14 O8'
_cell_volume   1480.68342401
_cell_formula_units_Z   2
loop_
 _symmetry_equiv_pos_site_id
 _symmetry_equiv_pos_as_xyz
  1  'x, y, z'
loop_
 _atom_site_type_symbol
 _atom_site_label
 _atom_site_symmetry_multiplicity
 _atom_site_fract_x
 _atom_site_fract_y
 _atom_site_fract_z
 _atom_site_occupancy
 _atom_site_pbe_bader_charge
 _atom_site_pbe_bader_spin_density
 _atom_site_pbe_cm5_charge
 _atom_site_pbe_ddec_charge
 _atom_site_pbe_ddec_spin_density
 _atom_site_pbe_ddec_sum_bond_order
 _atom_site_pbe_magmom
Cu  Cu0  1  0.99998827  0.49999121  0.99999653  1  1.037718  -0.540882  0.771766  0.728208  -0.732049  2.450598  -0.54
Cu  Cu1  1  0.49999062  0.50002090  0.99999654  1  1.032748  0.55944  0.770474  0.729224  0.747122  2.472245  0.559
H  H2  1  0.88858874  0.17556632  0.69685968  1  0.437992  -0.000139  0.331551  0.289523  -7.4e-05  0.902913  0.0
H  H3  1  0.11141330  0.82443108  0.30314694  1  0.437823  -0.000139  0.331585  0.289568  -7.4e-05  0.902927  0.0
H  H4  1  0.94048471  0.30146599  0.84370160  1  0.146617  -0.002751  0.114003  0.098689  -0.001357  1.021604  -0.002
H  H5  1  0.05952676  0.69853363  0.15629642  1  0.145965  -0.002753  0.113946  0.098681  -0.001358  1.021542  -0.002
H  H6  1  0.01718262  0.68380231  0.83450636  1  0.119558  -0.002209  0.113442  0.093102  -0.000967  1.014271  -0.001
H  H7  1  0.98283262  0.31619724  0.16549136  1  0.11954  -0.002207  0.11342  0.093104  -0.000966  1.014326  -0.001
H  H8  1  0.98552036  0.67191703  0.64144041  1  0.124749  -0.00152  0.112779  0.125325  -0.000798  1.000001  -0.001
H  H9  1  0.01449419  0.32808078  0.35855488  1  0.124723  -0.00152  0.112708  0.125368  -0.000798  0.999929  -0.001
H  H10  1  0.92074357  0.46170694  0.54803521  1  0.08888  -4.3e-05  0.11141  0.122145  -1.2e-05  1.033467  0.0
H  H11  1  0.07924666  0.53828468  0.45196215  1  0.088826  -4.3e-05  0.111474  0.122215  -1.2e-05  1.033457  0.0
H  H12  1  0.73492639  0.88439356  0.25858759  1  0.458619  0.000109  0.331768  0.289165  5.6e-05  0.909139  0.0
H  H13  1  0.26508819  0.11561863  0.74142120  1  0.458591  0.000109  0.331776  0.289233  5.6e-05  0.909171  0.0
H  H14  1  0.63862650  0.73327613  0.12729432  1  0.122897  0.002644  0.119128  0.10143  0.001194  1.012323  0.002
H  H15  1  0.36136947  0.26673468  0.87271367  1  0.123318  0.002642  0.119197  0.101586  0.001193  1.012216  0.002
H  H16  1  0.61117906  0.36358044  0.16751659  1  0.132163  0.002504  0.120958  0.103912  0.001203  0.992705  0.002
H  H17  1  0.38878654  0.63642574  0.83247159  1  0.132439  0.002504  0.120944  0.103851  0.001203  0.992941  0.002
H  H18  1  0.74128740  0.41673335  0.34529717  1  0.107265  0.001625  0.112359  0.122864  0.000842  0.998723  0.001
H  H19  1  0.25870124  0.58326385  0.65468812  1  0.107371  0.001625  0.112349  0.122804  0.000842  0.99874  0.001
H  H20  1  0.81547349  0.63959754  0.41873092  1  0.133336  6.7e-05  0.112831  0.131303  3.1e-05  1.013305  0.0
H  H21  1  0.18454662  0.36040233  0.58125983  1  0.133053  6.7e-05  0.11283  0.131346  3.1e-05  1.013373  0.0
H  H22  1  0.70830555  0.01879651  0.53896698  1  0.092304  -1.4e-05  0.104724  0.126101  -7e-06  0.998928  0.0
H  H23  1  0.29169325  0.98119754  0.46103380  1  0.092317  -1.4e-05  0.104689  0.126049  -7e-06  0.99899  0.0
H  H24  1  0.87427843  0.02171578  0.58331741  1  0.057517  2e-06  0.102038  0.111978  4e-06  0.99427  0.0
H  H25  1  0.12571999  0.97827489  0.41669151  1  0.05754  2e-06  0.102018  0.111998  4e-06  0.994262  0.0
H  H26  1  0.75448917  0.04571968  0.36137623  1  0.066393  -1e-06  0.105438  0.119498  -3e-06  0.978147  0.0
H  H27  1  0.24552818  0.95428516  0.63862728  1  0.066132  -1e-06  0.105458  0.119461  -3e-06  0.978239  0.0
H  H28  1  0.92925500  0.07797325  0.40341373  1  0.083009  -8e-06  0.108708  0.130024  -7e-06  0.985604  0.0
H  H29  1  0.07075746  0.92201929  0.59660531  1  0.082652  -7e-06  0.108679  0.129939  -7e-06  0.985561  0.0
H  H30  1  0.46265298  0.89143916  0.38467360  1  0.092217  3e-06  0.109144  0.124012  1e-06  1.03549  0.0
H  H31  1  0.53735682  0.10856103  0.61533106  1  0.092119  3e-06  0.109151  0.124003  1e-06  1.035484  0.0
H  H32  1  0.39830747  0.77613320  0.21178362  1  0.097107  7.8e-05  0.097279  0.101423  9.1e-05  1.024689  0.0
H  H33  1  0.60169203  0.22386738  0.78821904  1  0.097041  7.8e-05  0.097276  0.101411  9.1e-05  1.024708  0.0
H  H34  1  0.34768637  0.54513856  0.19883658  1  0.109918  -0.000123  0.100706  0.106998  -0.000107  1.031798  0.0
H  H35  1  0.65230796  0.45485858  0.80116227  1  0.109921  -0.000122  0.100718  0.107005  -0.000107  1.031833  0.0
H  H36  1  0.35571184  0.42679101  0.35566568  1  0.104894  -0.000128  0.105248  0.110436  -0.000124  1.008067  0.0
H  H37  1  0.64428169  0.57320412  0.64433526  1  0.104953  -0.000128  0.105259  0.110501  -0.000124  1.008072  0.0
H  H38  1  0.41836457  0.54251008  0.52860786  1  0.099494  -3e-06  0.107775  0.108487  3e-06  1.051353  0.0
H  H39  1  0.58163157  0.45748686  0.47139348  1  0.09961  -3e-06  0.107757  0.108462  3e-06  1.051362  0.0
C  C40  1  0.34379849  0.68021652  0.01552036  1  0.475671  0.003446  0.146553  0.284087  0.004306  4.340262  0.008
C  C41  1  0.65619644  0.31981558  0.98448312  1  0.476369  0.003446  0.14678  0.284186  0.004311  4.339995  0.008
C  C42  1  0.81492966  0.65245778  0.95479191  1  0.506018  -0.005846  0.136727  0.273332  -0.0069  4.358078  -0.01
C  C43  1  0.18504757  0.34752505  0.04519894  1  0.504984  -0.005864  0.136666  0.273152  -0.006903  4.357991  -0.01
C  C44  1  0.92508183  0.36482074  0.68793579  1  0.3163  -0.005463  0.103142  0.204317  -0.003893  4.044266  -0.005
C  C45  1  0.07492844  0.63517108  0.31206553  1  0.316107  -0.005463  0.103193  0.204488  -0.003893  4.044581  -0.005
C  C46  1  0.94756335  0.38050565  0.79508458  1  0.491308  0.001768  0.042747  -0.017014  0.000252  3.922073  0.001
C  C47  1  0.05243995  0.61949015  0.20491683  1  0.49215  0.001768  0.042741  -0.017105  0.000251  3.922213  0.001
C  C48  1  0.99080730  0.59539969  0.79009104  1  0.503271  0.00121  0.041815  0.071944  -7.5e-05  3.941623  0.001
C  C49  1  0.00921466  0.40459763  0.20990891  1  0.503354  0.001212  0.041886  0.071842  -7.4e-05  3.941864  0.001
C  C50  1  0.97192949  0.58739146  0.68370702  1  -0.098259  -0.006319  -0.077301  -0.095804  -0.004398  3.977063  -0.005
C  C51  1  0.02807274  0.41260642  0.31629207  1  -0.098264  -0.006316  -0.077305  -0.095828  -0.004396  3.977363  -0.005
C  C52  1  0.93792761  0.47140837  0.63108785  1  0.112435  0.003786  -0.073814  -0.130564  0.002595  3.919115  0.002
C  C53  1  0.06207121  0.52858572  0.36891218  1  0.11244  0.003786  -0.073851  -0.130671  0.002595  3.919627  0.002
C  C54  1  0.73295607  0.70405513  0.27913102  1  0.329598  0.00582  0.100378  0.206404  0.004016  4.032107  0.005
C  C55  1  0.26703528  0.29594886  0.72086625  1  0.329585  0.005821  0.100367  0.206544  0.004016  4.032002  0.005
C  C56  1  0.66413316  0.66671099  0.17898671  1  0.526631  -0.001317  0.045801  -0.01161  0.000153  3.910544  -0.001
C  C57  1  0.33586115  0.33330046  0.82101201  1  0.526327  -0.001316  0.045719  -0.011993  0.000154  3.910263  -0.001
C  C58  1  0.64873279  0.45929517  0.20095331  1  0.515214  -0.001279  0.048233  0.09005  -7.6e-05  3.900592  -0.001
C  C59  1  0.35124442  0.54071152  0.79903706  1  0.515339  -0.001283  0.048263  0.090053  -7.7e-05  3.900846  -0.001
C  C60  1  0.71983881  0.48992847  0.30004207  1  -0.042107  0.006335  -0.080238  -0.101693  0.00438  3.987183  0.005
C  C61  1  0.28016062  0.51006957  0.69994078  1  -0.043825  0.006334  -0.080291  -0.101659  0.00438  3.987455  0.005
C  C62  1  0.76219826  0.61306425  0.34091668  1  -0.002683  -0.003914  -0.076746  -0.139193  -0.002695  3.927437  -0.002
C  C63  1  0.23781047  0.38693804  0.65907052  1  -0.000859  -0.003914  -0.076673  -0.139285  -0.002696  3.927825  -0.002
C  C64  1  0.85418988  0.20105365  0.54391732  1  1.417434  -0.000253  0.24593  0.537  -0.000249  4.064163  0.0
C  C65  1  0.14580856  0.79893232  0.45609064  1  1.417304  -0.000253  0.246038  0.537253  -0.000249  4.06398  0.0
C  C66  1  0.81403888  0.06004715  0.52650756  1  -0.04176  -0.000193  -0.160555  -0.280329  -0.000135  3.950976  0.0
C  C67  1  0.18596345  0.93994620  0.47350270  1  -0.041589  -0.000193  -0.160489  -0.280401  -0.000135  3.950892  0.0
C  C68  1  0.82753866  0.02286922  0.41881519  1  -0.043836  0.000208  -0.159095  -0.28374  0.000142  3.953345  0.0
C  C69  1  0.17247324  0.97712666  0.58119635  1  -0.043511  0.000208  -0.159094  -0.283496  0.000142  3.953288  0.0
C  C70  1  0.81374860  0.88509732  0.40912948  1  1.391321  0.000307  0.243527  0.532175  0.000277  4.060181  0.0
C  C71  1  0.18626170  0.11489934  0.59087054  1  1.391433  0.000307  0.243577  0.532168  0.000278  4.060378  0.0
C  C72  1  0.44462860  0.72158493  0.46419866  1  0.151957  -1.1e-05  0.071229  0.06299  2e-06  3.951044  0.0
C  C73  1  0.55537114  0.27841388  0.53580168  1  0.151949  -1.1e-05  0.071176  0.062967  2e-06  3.951176  0.0
C  C74  1  0.43936326  0.79018112  0.37691624  1  0.053845  -1.3e-05  -0.087844  -0.137266  -5e-06  3.966454  0.0
C  C75  1  0.56064193  0.20981942  0.62308484  1  0.053932  -1.3e-05  -0.087868  -0.137342  -5e-06  3.966573  0.0
C  C76  1  0.40427128  0.72538739  0.28131990  1  -0.03944  -1.5e-05  -0.090851  -0.076943  7e-06  3.981968  0.0
C  C77  1  0.59573312  0.27461598  0.71868197  1  -0.039465  -1.5e-05  -0.090796  -0.076841  7e-06  3.981857  0.0
C  C78  1  0.37470471  0.59509739  0.27382186  1  -0.093815  -7.9e-05  -0.075237  -0.046488  -0.000115  3.923729  0.0
C  C79  1  0.62529975  0.40490612  0.72617775  1  -0.093734  -7.8e-05  -0.075293  -0.046559  -0.000115  3.923847  0.0
C  C80  1  0.37941891  0.52831623  0.36216686  1  -0.046078  -8.9e-05  -0.082456  -0.069157  -0.000101  3.965759  0.0
C  C81  1  0.62058725  0.47168437  0.63783282  1  -0.046474  -8.9e-05  -0.082489  -0.069211  -0.000101  3.965894  0.0
C  C82  1  0.41456781  0.59162021  0.45832092  1  0.039188  1.6e-05  -0.080966  -0.12441  3.6e-05  3.961152  0.0
C  C83  1  0.58543381  0.40837855  0.54167965  1  0.039514  1.6e-05  -0.080899  -0.124382  3.6e-05  3.96119  0.0
S  S84  1  0.24171099  0.75888280  0.00476757  1  0.118597  0.027632  -0.174156  -0.343151  0.017517  2.250703  0.017
S  S85  1  0.75829236  0.24116571  0.99522932  1  0.118866  0.027655  -0.174263  -0.343225  0.01753  2.25105  0.017
S  S86  1  0.70343951  0.70868838  0.89988951  1  0.143099  -0.040794  -0.166668  -0.318654  -0.026138  2.263939  -0.023
S  S87  1  0.29653330  0.29130004  0.10011998  1  0.143337  -0.040806  -0.166731  -0.318636  -0.026146  2.263866  -0.023
N  N88  1  0.42192582  0.62504717  0.02657212  1  -1.272637  0.068618  -0.441874  -0.522587  0.04677  3.433396  0.055
N  N89  1  0.57804926  0.37496372  0.97342803  1  -1.273574  0.068627  -0.441938  -0.522546  0.046772  3.432581  0.055
N  N90  1  0.89787171  0.61284710  0.99781407  1  -1.315275  -0.067486  -0.4468  -0.520909  -0.045522  3.376127  -0.053
N  N91  1  0.10210593  0.38713677  0.00217536  1  -1.314457  -0.067472  -0.446657  -0.520716  -0.045521  3.375883  -0.053
N  N92  1  0.97830143  0.49252645  0.84390300  1  -1.217372  -0.097515  -0.334905  -0.189413  -0.067707  3.650878  -0.085
N  N93  1  0.02170686  0.50747713  0.15609404  1  -1.217491  -0.097508  -0.334841  -0.189269  -0.067701  3.650816  -0.085
N  N94  1  0.89216328  0.24274938  0.64546428  1  -1.229708  -0.001227  -0.396613  -0.384386  -0.000701  3.586152  -0.001
N  N95  1  0.10783790  0.75724349  0.35453901  1  -1.229402  -0.001227  -0.396769  -0.384728  -0.000701  3.586085  -0.001
N  N96  1  0.62221401  0.54736560  0.14208071  1  -1.194493  0.102307  -0.327198  -0.188086  0.070255  3.622466  0.089
N  N97  1  0.37777598  0.45265169  0.85791773  1  -1.195051  0.102307  -0.327304  -0.187992  0.070251  3.622308  0.089
N  N98  1  0.76500699  0.83031710  0.31151726  1  -1.259529  0.001246  -0.398488  -0.389161  0.000692  3.580494  0.001
N  N99  1  0.23500916  0.16968712  0.68848153  1  -1.259375  0.001246  -0.398468  -0.389239  0.000692  3.580595  0.001
N  N100  1  0.48312356  0.78768438  0.56564173  1  0.376056  -3.9e-05  0.053576  0.511775  -1.2e-05  4.206539  0.0
N  N101  1  0.51687484  0.21231343  0.43435992  1  0.375855  -3.9e-05  0.053655  0.511976  -1.2e-05  4.206509  0.0
O  O102  1  0.85023122  0.27189792  0.47348068  1  -1.159921  -0.000397  -0.285521  -0.480605  -0.000257  2.135411  0.0
O  O103  1  0.14977685  0.72809316  0.52651807  1  -1.160058  -0.000397  -0.28558  -0.480628  -0.000257  2.135698  0.0
O  O104  1  0.84753674  0.82830625  0.48220774  1  -1.150158  0.000357  -0.28879  -0.472725  0.000226  2.095372  0.0
O  O105  1  0.15247463  0.17168833  0.51779459  1  -1.150078  0.000357  -0.288816  -0.472724  0.000226  2.095477  0.0
O  O106  1  0.51600618  0.73201983  0.64024037  1  -0.466379  -0.000155  -0.125849  -0.33609  -0.000142  1.973153  0.0
O  O107  1  0.48398810  0.26797242  0.35976054  1  -0.466081  -0.000155  -0.12587  -0.336149  -0.000142  1.973134  0.0
O  O108  1  0.48157546  0.89714656  0.57162478  1  -0.504626  -3.7e-05  -0.140093  -0.359205  -1.8e-05  2.004725  0.0
O  O109  1  0.51842887  0.10285182  0.42838065  1  -0.504756  -3.7e-05  -0.140141  -0.359325  -1.8e-05  2.004698  0.0
