# generated using pymatgen
data_AlH12C21S6NO24
_symmetry_space_group_name_H-M   'P 1'
_cell_length_a   4.54502129
_cell_length_b   13.66667589
_cell_length_c   13.66727311
_cell_angle_alpha   120.00998763
_cell_angle_beta   90.01798003
_cell_angle_gamma   90.02153964
_symmetry_Int_Tables_number   1
_chemical_formula_structural   AlH12C21S6NO24
_chemical_formula_sum   'Al1 H12 C21 S6 N1 O24'
_cell_volume   735.13567856
_cell_formula_units_Z   1
loop_
 _symmetry_equiv_pos_site_id
 _symmetry_equiv_pos_as_xyz
  1  'x, y, z'
loop_
 _atom_site_type_symbol
 _atom_site_label
 _atom_site_symmetry_multiplicity
 _atom_site_fract_x
 _atom_site_fract_y
 _atom_site_fract_z
 _atom_site_occupancy
 _atom_site_pbe_bader_charge
 _atom_site_pbe_bader_spin_density
 _atom_site_pbe_cm5_charge
 _atom_site_pbe_ddec_charge
 _atom_site_pbe_ddec_spin_density
 _atom_site_pbe_ddec_sum_bond_order
 _atom_site_pbe_magmom
Al  Al0  1  0.99923333  0.49997767  0.49998887  1  2.541208  0  0.51429  1.729008  0  2.278917  0
H  H1  1  0.24163697  0.02951291  0.89689708  1  0.111951  0  0.115715  0.129043  0  1.010706  0
H  H2  1  0.75917530  0.02944847  0.63257486  1  0.108894  0  0.115667  0.128749  0  1.011178  0
H  H3  1  0.76025556  0.10342269  0.97062863  1  0.110696  0  0.115487  0.129245  0  1.010701  0
H  H4  1  0.24171517  0.36737993  0.97042670  1  0.110036  0  0.115663  0.128783  0  1.011175  0
H  H5  1  0.76110725  0.36714679  0.89649118  1  0.110243  0  0.115641  0.129071  0  1.011202  0
H  H6  1  0.23993724  0.10334666  0.63291622  1  0.110907  0  0.115745  0.12924  0  1.010503  0
H  H7  1  0.38793676  0.84966845  0.42158297  1  0.659583  0  0.323425  0.402815  0  0.918845  0
H  H8  1  0.61218321  0.84944712  0.92776236  1  0.692801  0  0.323523  0.402869  0  0.918638  0
H  H9  1  0.38859537  0.07185578  0.15021638  1  0.66067  0  0.323711  0.402935  0  0.917863  0
H  H10  1  0.61202265  0.57832388  0.15035198  1  0.660235  0  0.323409  0.402627  0  0.918915  0
H  H11  1  0.39039107  0.57841002  0.92860748  1  0.667067  0  0.323653  0.403659  0  0.916552  0
H  H12  1  0.60964660  0.07166476  0.42176387  1  0.666792  0  0.323574  0.403371  0  0.916982  0
C  C13  1  0.49946609  0.41333919  0.32677674  1  1.726787  0  0.275018  0.678265  0  4.093518  0
C  C14  1  0.49924776  0.41340607  0.58663868  1  1.678011  0  0.274892  0.677908  0  4.093121  0
C  C15  1  0.49941334  0.67321128  0.58655679  1  1.684085  0  0.275006  0.678258  0  4.092833  0
C  C16  1  0.36416191  0.86834809  0.75789260  1  -0.244997  0  -0.006986  -0.093096  0  3.941478  0
C  C17  1  0.35532397  0.98599021  0.81594049  1  0.108831  0  -0.080555  -0.167579  0  3.953424  0
C  C18  1  0.50051287  0.04716722  0.77358424  1  0.359954  0  0.095743  0.190816  0  4.024853  0
C  C19  1  0.64530529  0.98594128  0.67000272  1  0.021861  0  -0.080537  -0.167008  0  3.953054  0
C  C20  1  0.63577510  0.86830227  0.61033767  1  -0.142319  0  -0.007132  -0.093142  0  3.941741  0
C  C21  1  0.49973442  0.80343473  0.65165111  1  0.129629  0  0.016681  -0.018668  0  3.825523  0
C  C22  1  0.64593714  0.18424737  0.01409724  1  0.105094  0  -0.080276  -0.167478  0  3.953145  0
C  C23  1  0.63616311  0.24216545  0.13172031  1  -0.245279  0  -0.007035  -0.09291  0  3.941393  0
C  C24  1  0.49983071  0.34827453  0.19656753  1  0.087923  0  0.016713  -0.018898  0  3.826041  0
C  C25  1  0.36421531  0.38958816  0.13163016  1  -0.14065  0  -0.007093  -0.093122  0  3.941654  0
C  C26  1  0.35540759  0.32997810  0.01398384  1  0.017556  0  -0.080676  -0.167311  0  3.953326  0
C  C27  1  0.50076058  0.22650434  0.95284009  1  0.365461  0  0.095832  0.1908  0  4.024342  0
C  C28  1  0.64636785  0.32985028  0.81570648  1  0.020915  0  -0.080678  -0.167747  0  3.954186  0
C  C29  1  0.63653471  0.38956602  0.75780852  1  -0.166581  0  -0.006861  -0.092603  0  3.941674  0
C  C30  1  0.49965122  0.34833549  0.65176659  1  0.134969  0  0.016745  -0.019066  0  3.826292  0
C  C31  1  0.36331414  0.24217757  0.61055136  1  -0.164457  0  -0.007232  -0.092459  0  3.939906  0
C  C32  1  0.35438572  0.18419383  0.67020083  1  0.017972  0  -0.080423  -0.167516  0  3.952584  0
C  C33  1  0.50056657  0.22642080  0.77355228  1  0.362191  0  0.0955  0.190216  0  4.024343  0
S  S34  1  0.79076222  0.80709498  0.47214854  1  3.116471  0  0.561672  1.182071  0  5.95325  0
S  S35  1  0.20887317  0.80710436  0.83480834  1  3.122576  0  0.561846  1.182432  0  5.952946  0
S  S36  1  0.79118427  0.16518643  0.19297418  1  3.121192  0  0.561715  1.182119  0  5.951434  0
S  S37  1  0.20899080  0.52773459  0.19282244  1  3.115546  0  0.561593  1.181967  0  5.952691  0
S  S38  1  0.79196770  0.52779305  0.83485972  1  3.126146  0  0.561189  1.181439  0  5.952186  0
S  S39  1  0.20764463  0.16515221  0.47236966  1  3.133375  0  0.561587  1.181494  0  5.951279  0
N  N40  1  0.50087149  0.16668604  0.83332285  1  -1.294192  0  -0.247785  -0.14188  0  3.64593  0
O  O41  1  0.73788328  0.62779837  0.59044939  1  -1.237856  0  -0.226954  -0.58358  0  2.397851  0
O  O42  1  0.73809801  0.46266578  0.37226973  1  -1.23943  0  -0.227072  -0.584253  0  2.398409  0
O  O43  1  0.73772908  0.40961247  0.53737562  1  -1.236142  0  -0.226667  -0.583306  0  2.397992  0
O  O44  1  0.26076421  0.62775778  0.53728179  1  -1.239818  0  -0.226266  -0.582762  0  2.397731  0
O  O45  1  0.26059002  0.46256089  0.59043323  1  -1.23389  0  -0.22639  -0.582569  0  2.398044  0
O  O46  1  0.26089932  0.40945475  0.37212739  1  -1.238164  0  -0.22628  -0.582214  0  2.397774  0
O  O47  1  0.07990246  0.85739552  0.48459426  1  -1.332062  0  -0.310802  -0.563218  0  2.285344  0
O  O48  1  0.75295335  0.68780937  0.41572026  1  -1.246536  0  -0.263769  -0.47923  0  2.357206  0
O  O49  1  0.60487430  0.86156723  0.41466211  1  -1.235349  0  -0.350301  -0.517712  0  2.243312  0
O  O50  1  0.92008081  0.85755904  0.87284082  1  -1.334151  0  -0.310786  -0.563325  0  2.284757  0
O  O51  1  0.24577583  0.68780358  0.77174427  1  -1.250786  0  -0.263651  -0.479414  0  2.358506  0
O  O52  1  0.39529137  0.86131543  0.94667100  1  -1.265543  0  -0.350615  -0.517508  0  2.24219  0
O  O53  1  0.08049959  0.12753026  0.14292889  1  -1.333167  0  -0.31087  -0.563078  0  2.284265  0
O  O54  1  0.75274506  0.22797268  0.31221965  1  -1.250061  0  -0.2637  -0.479245  0  2.357313  0
O  O55  1  0.60548439  0.05309075  0.13819799  1  -1.234142  0  -0.350198  -0.517484  0  2.241563  0
O  O56  1  0.91996608  0.51525682  0.14241385  1  -1.330748  0  -0.310674  -0.563156  0  2.284671  0
O  O57  1  0.24644639  0.58410454  0.31211250  1  -1.246617  0  -0.263805  -0.479188  0  2.357814  0
O  O58  1  0.39508684  0.58530428  0.13848898  1  -1.236601  0  -0.350333  -0.517383  0  2.243059  0
O  O59  1  0.08180802  0.51538839  0.87215675  1  -1.332292  0  -0.31071  -0.562989  0  2.284722  0
O  O60  1  0.75224738  0.58449211  0.77236979  1  -1.250555  0  -0.263586  -0.479375  0  2.356859  0
O  O61  1  0.60734658  0.58490627  0.94716697  1  -1.237776  0  -0.349963  -0.51773  0  2.240821  0
O  O62  1  0.91810122  0.12764379  0.48484237  1  -1.332153  0  -0.310844  -0.563393  0  2.28378  0
O  O63  1  0.24643621  0.22777279  0.41577263  1  -1.256052  0  -0.26365  -0.47922  0  2.357285  0
O  O64  1  0.39270525  0.05296609  0.41508669  1  -1.239262  0  -0.350082  -0.517384  0  2.240751  0
