# generated using pymatgen
data_Zn2H12C25N2O13
_symmetry_space_group_name_H-M   'P 1'
_cell_length_a   9.32149375
_cell_length_b   9.83724620
_cell_length_c   11.00538272
_cell_angle_alpha   95.59174512
_cell_angle_beta   83.47670126
_cell_angle_gamma   94.72783821
_symmetry_Int_Tables_number   1
_chemical_formula_structural   Zn2H12C25N2O13
_chemical_formula_sum   'Zn2 H12 C25 N2 O13'
_cell_volume   995.26352551
_cell_formula_units_Z   1
loop_
 _symmetry_equiv_pos_site_id
 _symmetry_equiv_pos_as_xyz
  1  'x, y, z'
loop_
 _atom_site_type_symbol
 _atom_site_label
 _atom_site_symmetry_multiplicity
 _atom_site_fract_x
 _atom_site_fract_y
 _atom_site_fract_z
 _atom_site_occupancy
 _atom_site_pbe_bader_charge
 _atom_site_pbe_bader_spin_density
 _atom_site_pbe_cm5_charge
 _atom_site_pbe_ddec_charge
 _atom_site_pbe_ddec_spin_density
 _atom_site_pbe_ddec_sum_bond_order
 _atom_site_pbe_magmom
Zn  Zn0  1  0.48408729  0.36139109  0.48890161  1  1.288649  0  0.674819  0.830754  0  2.392745  0
Zn  Zn1  1  0.51130574  0.65453060  0.51529992  1  1.307016  0  0.679394  0.829879  0  2.411267  0
H  H2  1  0.79310627  0.20254826  0.58650649  1  0.136896  0  0.123367  0.136759  0  0.952404  0
H  H3  1  0.31268686  0.20602910  0.88658396  1  0.105726  0  0.119296  0.117303  0  0.942459  0
H  H4  1  0.24100221  0.19922741  0.40186527  1  0.144155  0  0.114956  0.071447  0  1.018096  0
H  H5  1  0.95612802  0.23410623  0.39812293  1  0.108584  0  0.109167  0.047436  0  0.982882  0
H  H6  1  0.80733066  0.95658316  0.61819913  1  0.116131  0  0.121446  0.154252  0  0.951196  0
H  H7  1  0.28678123  0.84313355  0.48470418  1  0.212301  0  0.136895  0.128412  0  1.002575  0
H  H8  1  0.56402395  0.70757106  0.89685724  1  0.096124  0  0.108338  0.117354  0  0.99267  0
H  H9  1  0.84593247  0.91558545  0.45621107  1  0.143063  0  0.11987  0.158829  0  0.960189  0
H  H10  1  0.56157596  0.71389500  0.12299218  1  0.114016  0  0.110078  0.120633  0  0.992375  0
H  H11  1  0.60215639  0.17671429  0.16657585  1  0.117092  0  0.114149  0.075487  0  0.984865  0
H  H12  1  0.22499669  0.09520423  0.11819162  1  0.084315  0  0.112203  0.0516  0  0.952272  0
H  H13  1  0.46213926  0.01077421  0.84388963  1  0.078751  0  0.104957  0.037611  0  0.954142  0
C  C14  1  0.50076333  0.49248025  0.73417407  1  1.585168  0  0.219395  0.603248  0  4.167121  0
C  C15  1  0.60832141  0.09473576  0.49895002  1  0.570563  0  0.151921  0.186879  0  3.859079  0
C  C16  1  0.76743408  0.13188646  0.50734090  1  -0.026665  0  -0.069419  -0.13908  0  3.79369  0
C  C17  1  0.78086416  0.53015654  0.48883487  1  1.686826  0  0.228809  0.662344  0  4.229886  0
C  C18  1  0.77790643  0.97341557  0.52743558  1  -0.031249  0  -0.126041  -0.250938  0  3.762795  0
C  C19  1  0.49978860  0.49789277  0.26650724  1  1.588337  0  0.223005  0.607024  0  4.161251  0
C  C20  1  0.21484888  0.51660122  0.51945332  1  1.675878  0  0.229745  0.673235  0  4.226488  0
C  C21  1  0.93419493  0.52565988  0.49807283  1  0.164955  0  -0.024816  -0.121833  0  3.93859  0
C  C22  1  0.06153812  0.52059437  0.51002986  1  -0.379772  0  -0.026144  -0.12287  0  3.933611  0
C  C23  1  0.47713155  0.37362693  0.93063988  1  -0.0508  0  -0.000562  0.044531  0  3.899123  0
C  C24  1  0.50701085  0.49166201  0.86876214  1  -0.003219  0  -0.00605  -0.058  0  3.945398  0
C  C25  1  0.53878357  0.61692620  0.06940867  1  0.044416  0  -0.071264  -0.08095  0  3.929389  0
C  C26  1  0.53958859  0.61348356  0.94218446  1  -0.043202  0  -0.072534  -0.082605  0  3.93852  0
C  C27  1  0.51444827  0.13037763  0.11211583  1  0.958778  0  0.107471  0.277036  0  3.867209  0
C  C28  1  0.26577343  0.20530984  0.12326674  1  0.967636  0  0.114669  0.275094  0  3.907808  0
C  C29  1  0.51379659  0.11725274  0.84360862  1  0.957311  0  0.108119  0.312385  0  3.930396  0
C  C30  1  0.23459252  0.09656612  0.43634433  1  0.935419  0  0.11003  0.240375  0  3.918568  0
C  C31  1  0.84988461  0.17668307  0.38843436  1  0.971256  0  0.115069  0.329948  0  3.899608  0
C  C32  1  0.50601850  0.49752658  0.13088269  1  -0.05681  0  -0.00328  -0.045605  0  3.951741  0
C  C33  1  0.47679930  0.37744327  0.05714057  1  0.052829  0  -0.004678  0.006074  0  3.928226  0
C  C34  1  0.42163699  0.22976645  0.06474413  1  -0.011992  0  -0.002848  -0.047405  0  3.784051  0
C  C35  1  0.42301415  0.22420004  0.91485919  1  -0.0678  0  -0.057192  -0.126308  0  3.78301  0
C  C36  1  0.61817594  0.95663657  0.51482600  1  0.589401  0  0.162154  0.225059  0  3.838029  0
C  C37  1  0.38189620  0.91500372  0.48938784  1  0.468141  0  0.081775  0.054951  0  3.78983  0
C  C38  1  0.37284971  0.05253152  0.47064325  1  0.459817  0  0.11843  0.108267  0  3.919592  0
N  N39  1  0.50607378  0.86394549  0.51254717  1  -1.215664  0  -0.284236  -0.182997  0  3.431835  0
N  N40  1  0.48866820  0.14725772  0.47638998  1  -1.205651  0  -0.274616  -0.211508  0  3.410969  0
O  O41  1  0.47442034  0.37676551  0.67470103  1  -1.153752  0  -0.316347  -0.539506  0  2.320475  0
O  O42  1  0.19167189  0.29600630  0.17064379  1  -1.06353  0  -0.23466  -0.308081  0  2.131902  0
O  O43  1  0.63354916  0.14034516  0.78921836  1  -1.087496  0  -0.248059  -0.345287  0  2.147486  0
O  O44  1  0.12164835  0.02347043  0.44473158  1  -1.067574  0  -0.235789  -0.321392  0  2.135103  0
O  O45  1  0.80462567  0.14916865  0.28860528  1  -1.090228  0  -0.261339  -0.360323  0  2.130196  0
O  O46  1  0.52152105  0.60797116  0.68943166  1  -1.164611  0  -0.314614  -0.546901  0  2.338517  0
O  O47  1  0.70753614  0.41487043  0.48333945  1  -1.15263  0  -0.295197  -0.538631  0  2.306372  0
O  O48  1  0.73378714  0.64768668  0.48893511  1  -1.134968  0  -0.30026  -0.51738  0  2.254464  0
O  O49  1  0.49177566  0.38003214  0.30794922  1  -1.15732  0  -0.313232  -0.551167  0  2.361982  0
O  O50  1  0.50259523  0.61254689  0.33031294  1  -1.165772  0  -0.310047  -0.540266  0  2.327762  0
O  O51  1  0.26449551  0.39882204  0.50645797  1  -1.15187  0  -0.304715  -0.546708  0  2.303418  0
O  O52  1  0.28573844  0.63117336  0.53871297  1  -1.155832  0  -0.302037  -0.537338  0  2.285278  0
O  O53  1  0.48998189  0.00621681  0.09435335  1  -1.091141  0  -0.259557  -0.361127  0  2.120723  0
