# generated using pymatgen
data_CaH28(C19O4)2
_symmetry_space_group_name_H-M   'P 1'
_cell_length_a   5.18830399
_cell_length_b   10.60216570
_cell_length_c   15.25639469
_cell_angle_alpha   82.44098603
_cell_angle_beta   85.13196899
_cell_angle_gamma   82.49434152
_symmetry_Int_Tables_number   1
_chemical_formula_structural   CaH28(C19O4)2
_chemical_formula_sum   'Ca1 H28 C38 O8'
_cell_volume   822.83384987
_cell_formula_units_Z   1
loop_
 _symmetry_equiv_pos_site_id
 _symmetry_equiv_pos_as_xyz
  1  'x, y, z'
loop_
 _atom_site_type_symbol
 _atom_site_label
 _atom_site_symmetry_multiplicity
 _atom_site_fract_x
 _atom_site_fract_y
 _atom_site_fract_z
 _atom_site_occupancy
 _atom_site_pbe_bader_spin_density
 _atom_site_pbe_cm5_charge
 _atom_site_pbe_ddec_charge
 _atom_site_pbe_ddec_spin_density
 _atom_site_pbe_ddec_sum_bond_order
 _atom_site_pbe_magmom
Ca  Ca0  1  0.00000056  0.00000084  0.99999969  1  0  0.918484  1.388469  0  1.554542  0
H  H1  1  0.96304089  0.73675439  0.47744657  1  0  0.102099  0.105205  0  1.017862  0
H  H2  1  0.03696169  0.26324616  0.52255284  1  0  0.102103  0.105219  0  1.017856  0
H  H3  1  0.52282600  0.25230297  0.59967205  1  0  0.097916  0.101247  0  1.01543  0
H  H4  1  0.47717102  0.74769662  0.40032694  1  0  0.097925  0.10126  0  1.015373  0
H  H5  1  0.68313303  0.14005379  0.74328249  1  0  0.107274  0.108863  0  0.999921  0
H  H6  1  0.31686933  0.85994772  0.25671618  1  0  0.107272  0.108889  0  0.999895  0
H  H7  1  0.01385882  0.32185248  0.88416608  1  0  0.110654  0.108142  0  1.013816  0
H  H8  1  0.98614302  0.67815095  0.11583506  1  0  0.110629  0.108096  0  1.01373  0
H  H9  1  0.86398739  0.44049007  0.74274703  1  0  0.101037  0.103185  0  1.022679  0
H  H10  1  0.13601834  0.55951335  0.25725269  1  0  0.101033  0.103159  0  1.022712  0
H  H11  1  0.51860336  0.51565982  0.65594887  1  0  0.100154  0.100999  0  1.033573  0
H  H12  1  0.48139753  0.48433977  0.34405002  1  0  0.100166  0.100995  0  1.033573  0
H  H13  1  0.63653506  0.62918416  0.77639804  1  0  0.107241  0.107658  0  1.019414  0
H  H14  1  0.36346557  0.37081639  0.22360208  1  0  0.107242  0.10764  0  1.019421  0
H  H15  1  0.95004863  0.89972293  0.74331501  1  0  0.110488  0.110397  0  1.002316  0
H  H16  1  0.04994861  0.10027570  0.25668537  1  0  0.110483  0.110399  0  1.00232  0
H  H17  1  0.82967207  0.78736059  0.62212701  1  0  0.098087  0.098537  0  1.036683  0
H  H18  1  0.17032903  0.21263804  0.37787327  1  0  0.098077  0.098512  0  1.036703  0
H  H19  1  0.60873473  0.82511485  0.93653873  1  0  0.311208  0.362802  0  0.97949  0
H  H20  1  0.39126228  0.17488475  0.06346091  1  0  0.311227  0.362871  0  0.979388  0
H  H21  1  0.38839557  0.01661608  0.59599810  1  0  0.088792  0.120945  0  1.032401  0
H  H22  1  0.61160239  0.98337968  0.40400121  1  0  0.0888  0.120968  0  1.032458  0
H  H23  1  0.33230188  0.88909678  0.53015156  1  0  0.086897  0.118103  0  1.044245  0
H  H24  1  0.66769414  0.11089898  0.46984780  1  0  0.086879  0.118095  0  1.044218  0
H  H25  1  0.73135097  0.43825899  0.05524415  1  0  0.089154  0.11964  0  1.027946  0
H  H26  1  0.26864478  0.56173773  0.94475710  1  0  0.089145  0.119662  0  1.027849  0
H  H27  1  0.73391484  0.57314743  0.96412294  1  0  0.09106  0.125432  0  1.034675  0
H  H28  1  0.26607921  0.42684833  0.03587844  1  0  0.091046  0.125433  0  1.034624  0
C  C29  1  0.97528902  0.63235683  0.48837372  1  0  -0.08708  -0.17314  0  3.969157  0
C  C30  1  0.02471161  0.36764372  0.51162639  1  0  -0.087095  -0.173159  0  3.969151  0
C  C31  1  0.07667028  0.56699447  0.56636425  1  0  -0.004117  0.026759  0  3.9712  0
C  C32  1  0.92333012  0.43300704  0.43363579  1  0  -0.004128  0.02677  0  3.971278  0
C  C33  1  0.09896471  0.43116227  0.57836628  1  0  -0.002471  0.030394  0  3.968255  0
C  C34  1  0.90103349  0.56884020  0.42163505  1  0  -0.002509  0.030372  0  3.96834  0
C  C35  1  0.18455584  0.35515120  0.66187120  1  0  -0.005982  0.072957  0  4.015035  0
C  C36  1  0.81544118  0.64484840  0.33812779  1  0  -0.005952  0.073005  0  4.014979  0
C  C37  1  0.41077965  0.26649640  0.66217809  1  0  -0.09481  -0.147408  0  3.993826  0
C  C38  1  0.58922100  0.73350415  0.33782137  1  0  -0.09481  -0.147418  0  3.993785  0
C  C39  1  0.50046822  0.20386682  0.74192260  1  0  -0.080538  -0.082096  0  3.980878  0
C  C40  1  0.49953388  0.79613565  0.25807731  1  0  -0.080574  -0.082154  0  3.980869  0
C  C41  1  0.35971863  0.22494446  0.82237864  1  0  -0.013148  -0.049834  0  3.975633  0
C  C42  1  0.64028369  0.77505705  0.17762200  1  0  -0.013088  -0.049779  0  3.97555  0
C  C43  1  0.12625004  0.30794917  0.82190519  1  0  -0.071804  -0.069022  0  3.963713  0
C  C44  1  0.87374864  0.69205138  0.17809564  1  0  -0.071771  -0.068925  0  3.963433  0
C  C45  1  0.04209218  0.37355951  0.74252327  1  0  -0.087348  -0.129065  0  3.971109  0
C  C46  1  0.95791129  0.62643720  0.25747844  1  0  -0.087342  -0.129078  0  3.970995  0
C  C47  1  0.46392572  0.16362923  0.90817356  1  0  0.237683  0.612454  0  4.189333  0
C  C48  1  0.53607809  0.83637420  0.09182556  1  0  0.23764  0.61229  0  4.189352  0
C  C49  1  0.16073046  0.64054391  0.63258125  1  0  -0.000329  0.079282  0  3.985634  0
C  C50  1  0.83926825  0.35945665  0.36741826  1  0  -0.00031  0.079267  0  3.985579  0
C  C51  1  0.39235606  0.59919816  0.67522524  1  0  -0.088254  -0.129495  0  3.973218  0
C  C52  1  0.60764652  0.40080239  0.32477417  1  0  -0.088272  -0.129473  0  3.973158  0
C  C53  1  0.45995564  0.66259209  0.74227991  1  0  -0.081327  -0.086363  0  3.988354  0
C  C54  1  0.54004524  0.33740751  0.25771964  1  0  -0.081298  -0.086294  0  3.988256  0
C  C55  1  0.29834231  0.77007008  0.76801876  1  0  -0.020017  -0.062776  0  3.996997  0
C  C56  1  0.70165470  0.22992952  0.23198088  1  0  -0.019988  -0.062778  0  3.996978  0
C  C57  1  0.07413210  0.81614599  0.72289798  1  0  -0.075188  -0.071452  0  3.965008  0
C  C58  1  0.92586683  0.18385360  0.27710227  1  0  -0.07521  -0.071484  0  3.965026  0
C  C59  1  0.00768934  0.75274983  0.65538233  1  0  -0.089119  -0.138036  0  3.976048  0
C  C60  1  0.99231176  0.24724880  0.34461795  1  0  -0.089118  -0.13801  0  3.97599  0
C  C61  1  0.35538840  0.83187751  0.84463650  1  0  0.251181  0.607068  0  4.121169  0
C  C62  1  0.64460860  0.16812208  0.15536381  1  0  0.251173  0.607024  0  4.121199  0
C  C63  1  0.42523662  0.97470376  0.53376872  1  0  -0.184301  -0.23926  0  3.941522  0
C  C64  1  0.57475939  0.02529200  0.46623130  1  0  -0.184207  -0.239244  0  3.941534  0
C  C65  1  0.62542000  0.50288115  0.00508657  1  0  -0.184206  -0.23813  0  3.932352  0
C  C66  1  0.37458175  0.49711460  0.99491658  1  0  -0.184177  -0.238178  0  3.932217  0
O  O67  1  0.29925165  0.15445263  0.97701908  1  0  -0.365237  -0.63871  0  2.281689  0
O  O68  1  0.70074853  0.84554983  0.02298022  1  0  -0.365234  -0.638617  0  2.281612  0
O  O69  1  0.70349946  0.12575834  0.91009551  1  0  -0.359888  -0.606225  0  2.236992  0
O  O70  1  0.29650432  0.87424508  0.08990558  1  0  -0.359876  -0.606157  0  2.237035  0
O  O71  1  0.19551526  0.91593292  0.87536868  1  0  -0.349177  -0.578808  0  2.24098  0
O  O72  1  0.80448131  0.08406860  0.12462949  1  0  -0.349169  -0.578771  0  2.240985  0
O  O73  1  0.58213762  0.78954166  0.87718039  1  0  -0.30588  -0.474545  0  2.34333  0
O  O74  1  0.41785790  0.21045602  0.12282078  1  0  -0.3059  -0.474579  0  2.343283  0
