# generated using pymatgen
data_CoH16C16(NO2)2
_symmetry_space_group_name_H-M   'P 1'
_cell_length_a   4.86255178
_cell_length_b   9.47080547
_cell_length_c   15.36685602
_cell_angle_alpha   102.51092425
_cell_angle_beta   90.01287584
_cell_angle_gamma   90.00387920
_symmetry_Int_Tables_number   1
_chemical_formula_structural   CoH16C16(NO2)2
_chemical_formula_sum   'Co2 H32 C32 N4 O8'
_cell_volume   690.87473562
_cell_formula_units_Z   2
loop_
 _symmetry_equiv_pos_site_id
 _symmetry_equiv_pos_as_xyz
  1  'x, y, z'
loop_
 _atom_site_type_symbol
 _atom_site_label
 _atom_site_symmetry_multiplicity
 _atom_site_fract_x
 _atom_site_fract_y
 _atom_site_fract_z
 _atom_site_occupancy
 _atom_site_hle17_ddec_charge
 _atom_site_hle17_ddec_spin_density
 _atom_site_hle17_ddec_sum_bond_order
 _atom_site_hle17_magmom
 _atom_site_hse06_10hf_ddec_charge
 _atom_site_hse06_10hf_ddec_spin_density
 _atom_site_hse06_10hf_ddec_sum_bond_order
 _atom_site_hse06_10hf_magmom
 _atom_site_hse06_ddec_charge
 _atom_site_hse06_ddec_spin_density
 _atom_site_hse06_ddec_sum_bond_order
 _atom_site_hse06_magmom
 _atom_site_pbe_cm5_charge
 _atom_site_pbe_ddec_charge
 _atom_site_pbe_ddec_spin_density
 _atom_site_pbe_ddec_sum_bond_order
 _atom_site_pbe_magmom
Co  Co0  1  0.99999253  0.49999802  0.49999866  1  0.749755  -1.155802  2.296914  -1.022  0.734598  -1.047099  2.738845  -0.954  0.812593  -1.05  2.655827  -0.967  0.593027  0.685441  -1.03762  2.794682  -0.936
Co  Co1  1  0.49999440  0.99999942  0.50000083  1  0.750346  1.155946  2.297694  1.022  0.736094  1.047336  2.738967  0.954  0.813878  1.050235  2.65616  0.967  0.594019  0.686962  1.037842  2.794977  0.936
H  H2  1  0.71824017  0.17462637  0.36892638  1  0.083458  -0.000149  0.950335  0.0  0.090583  -5.4e-05  1.01629  0.0  0.093199  -5.2e-05  1.014101  0.0  0.120609  0.088104  -6e-05  1.018984  0.0
H  H3  1  0.78238287  0.67437740  0.36973445  1  0.082367  0.000155  0.951689  0.0  0.090424  5.7e-05  1.017007  0.0  0.093058  5.4e-05  1.014792  0.0  0.120699  0.087919  6.3e-05  1.019741  0.0
H  H4  1  0.28174935  0.82537243  0.63106776  1  0.083441  -0.000146  0.950455  0.0  0.090548  -5.4e-05  1.016418  0.0  0.093163  -5.3e-05  1.014228  0.0  0.1206  0.088067  -6e-05  1.019111  0.0
H  H5  1  0.21760048  0.32562172  0.63026754  1  0.082297  0.000153  0.951764  0.0  0.090342  5.7e-05  1.017053  0.0  0.092976  5.4e-05  1.01484  0.0  0.120681  0.087818  6.3e-05  1.019809  0.0
H  H6  1  0.24581417  0.40511858  0.28221435  1  0.106743  5.8e-05  0.975316  0.0  0.115258  9.1e-05  1.040159  0.0  0.119178  9.8e-05  1.037718  0.0  0.100628  0.112307  7.5e-05  1.042129  0.0
H  H7  1  0.25425035  0.90372246  0.28227017  1  0.10686  -6.5e-05  0.974547  0.0  0.115541  -9e-05  1.039083  0.0  0.119347  -9.7e-05  1.036769  0.0  0.100675  0.112678  -7.4e-05  1.040953  0.0
H  H8  1  0.75416507  0.59488816  0.71778985  1  0.10673  6.9e-05  0.975443  0.0  0.115274  9.1e-05  1.040231  0.0  0.119195  9.8e-05  1.037792  0.0  0.100645  0.112316  7.5e-05  1.042223  0.0
H  H9  1  0.74571654  0.09628078  0.71772710  1  0.106878  -6.7e-05  0.974569  0.0  0.115546  -9e-05  1.039139  0.0  0.119355  -9.7e-05  1.036818  0.0  0.100658  0.112682  -7.4e-05  1.041007  0.0
H  H10  1  0.34627822  0.37661429  0.12179876  1  0.080635  3e-06  0.974665  0.0  0.091666  -2e-06  1.036343  0.0  0.093583  -1e-06  1.037057  0.0  0.0949  0.090199  -2e-06  1.036122  0.0
H  H11  1  0.15539044  0.87412863  0.12159932  1  0.079806  -4e-06  0.975226  0.0  0.091108  2e-06  1.036349  0.0  0.093012  2e-06  1.037104  0.0  0.095182  0.08963  2e-06  1.036145  0.0
H  H12  1  0.65370718  0.62339433  0.87819850  1  0.080621  3e-06  0.974884  0.0  0.091655  -2e-06  1.036531  0.0  0.093568  -1e-06  1.037254  0.0  0.094864  0.090189  -2e-06  1.036308  0.0
H  H13  1  0.84461347  0.12586274  0.87839719  1  0.079834  -4e-06  0.975088  0.0  0.09114  2e-06  1.03622  0.0  0.093047  2e-06  1.036971  0.0  0.095137  0.089661  2e-06  1.036017  0.0
H  H14  1  0.08976241  0.19516837  0.00903397  1  0.077681  -1.7e-05  0.985329  0.0  0.08645  -1e-06  1.054242  0.0  0.088869  -1e-06  1.053674  0.0  0.094094  0.084735  0.0  1.05469  0.0
H  H15  1  0.41295718  0.69215173  0.00953952  1  0.077701  1.7e-05  0.985001  0.0  0.087005  1e-06  1.053247  0.0  0.089421  1e-06  1.052772  0.0  0.094342  0.085262  -0.0  1.053689  0.0
H  H16  1  0.91024562  0.80482965  0.99096724  1  0.077665  -1.7e-05  0.985157  0.0  0.0864  -1e-06  1.054137  0.0  0.088815  -1e-06  1.053575  0.0  0.094086  0.084696  0.0  1.054574  0.0
H  H17  1  0.58708581  0.30785353  0.99045473  1  0.077721  1.7e-05  0.985027  0.0  0.087088  1e-06  1.053212  0.0  0.089473  1e-06  1.052767  0.0  0.094357  0.085345  -0.0  1.053654  0.0
H  H18  1  0.72802209  0.04279791  0.05906451  1  0.081956  6e-06  0.957711  0.0  0.09454  -2e-06  1.017032  0.0  0.096947  -1e-06  1.016567  0.0  0.097644  0.092709  -0.0  1.017658  0.0
H  H19  1  0.77682123  0.54152688  0.06037879  1  0.082299  -6e-06  0.957434  0.0  0.094106  2e-06  1.017627  0.0  0.096559  2e-06  1.01711  0.0  0.097659  0.092281  1e-06  1.018228  0.0
H  H20  1  0.27199210  0.95720000  0.94093408  1  0.081945  5e-06  0.957684  0.0  0.094505  -2e-06  1.017027  0.0  0.096915  -1e-06  1.016563  0.0  0.097608  0.092683  -0.0  1.017643  0.0
H  H21  1  0.22321971  0.45849276  0.93962498  1  0.082352  -5e-06  0.957463  0.0  0.094148  2e-06  1.017682  0.0  0.096596  2e-06  1.017169  0.0  0.097709  0.092328  1e-06  1.018281  0.0
H  H22  1  0.62847159  0.07111089  0.21993515  1  0.088965  -1.9e-05  0.974448  0.0  0.098533  -8e-06  1.040358  0.0  0.100965  -9e-06  1.040429  0.0  0.096881  0.096588  -6e-06  1.040806  0.0
H  H23  1  0.87397057  0.57103773  0.22149227  1  0.089546  2.7e-05  0.975654  0.0  0.098747  9e-06  1.042244  0.0  0.10111  1e-05  1.042349  0.0  0.096864  0.096873  7e-06  1.042624  0.0
H  H24  1  0.37153644  0.92888504  0.78006776  1  0.088968  -2.8e-05  0.974433  0.0  0.098601  -8e-06  1.04029  0.0  0.100965  -9e-06  1.040431  0.0  0.096887  0.096656  -6e-06  1.040741  0.0
H  H25  1  0.12603335  0.42897434  0.77851061  1  0.089577  2.5e-05  0.975639  0.0  0.098773  9e-06  1.042251  0.0  0.101139  1e-05  1.042349  0.0  0.096842  0.096902  7e-06  1.042619  0.0
H  H26  1  0.57096212  0.38866382  0.42791579  1  0.309614  0.000227  0.919851  0.001  0.295714  0.000196  0.983407  0.0  0.303031  0.000152  0.978826  0.0  0.297715  0.29069  0.000216  0.986611  0.0
H  H27  1  0.92873480  0.88813506  0.42898204  1  0.308966  -0.000227  0.919943  -0.001  0.295374  -0.000193  0.983215  0.0  0.302671  -0.000149  0.978635  0.0  0.297805  0.290355  -0.000213  0.986441  0.0
H  H28  1  0.42903356  0.61132971  0.57208098  1  0.30957  0.000226  0.919854  0.001  0.295679  0.000196  0.983416  0.0  0.302997  0.000152  0.978837  0.0  0.297693  0.290655  0.000216  0.986621  0.0
H  H29  1  0.07125678  0.11186312  0.57102309  1  0.308984  -0.000227  0.919871  -0.001  0.295342  -0.000193  0.983244  0.0  0.302645  -0.000149  0.978659  0.0  0.297809  0.290325  -0.000213  0.986462  0.0
H  H30  1  0.74051383  0.46045304  0.35575783  1  0.284731  0.000421  0.898716  0.001  0.278001  0.000221  0.958774  0.0  0.283615  0.000168  0.95579  0.0  0.298505  0.273679  0.000269  0.961771  0.0
H  H31  1  0.76263683  0.95969199  0.35615795  1  0.287559  -0.000423  0.896278  -0.001  0.280804  -0.000225  0.956275  0.0  0.286466  -0.000172  0.953183  0.0  0.299925  0.276453  -0.000273  0.959342  0.0
H  H32  1  0.25947980  0.53954927  0.64424323  1  0.284665  0.00042  0.898771  0.001  0.277942  0.000221  0.958844  0.0  0.283556  0.000167  0.955862  0.0  0.298491  0.273622  0.000269  0.961837  0.0
H  H33  1  0.23736503  0.04030500  0.64384444  1  0.28749  -0.000423  0.896354  -0.001  0.280757  -0.000225  0.956348  0.0  0.286424  -0.000172  0.953254  0.0  0.299896  0.276409  -0.000273  0.959408  0.0
C  C34  1  0.13271019  0.22450789  0.41017668  1  0.646014  0.004587  3.785713  0.005  0.596988  0.003465  4.095939  0.004  0.635309  0.002138  4.086852  0.003  0.218063  0.569115  0.005036  4.102053  0.006
C  C35  1  0.36785538  0.72415078  0.41071759  1  0.645134  -0.004589  3.788283  -0.005  0.596443  -0.003489  4.097758  -0.004  0.634805  -0.002155  4.088637  -0.003  0.217358  0.56852  -0.005068  4.10391  -0.006
C  C36  1  0.86727521  0.77548574  0.58982270  1  0.646009  0.004587  3.785896  0.005  0.596956  0.003466  4.096136  0.004  0.635282  0.002139  4.087054  0.003  0.218005  0.569076  0.005036  4.102257  0.006
C  C37  1  0.63213210  0.27586570  0.58928776  1  0.645059  -0.004587  3.788492  -0.005  0.596371  -0.003489  4.097927  -0.004  0.634734  -0.002155  4.088799  -0.003  0.217256  0.568451  -0.005066  4.104069  -0.006
C  C38  1  0.87408990  0.25406424  0.36019114  1  0.003691  0.002028  3.616149  0.003  -0.017604  0.001839  3.854698  0.002  -0.017379  0.001368  3.864706  0.002  0.001319  -0.017324  0.002416  3.848442  0.003
C  C39  1  0.62645367  0.75364780  0.36082606  1  0.00522  -0.002035  3.61496  -0.003  -0.017679  -0.001846  3.85546  -0.002  -0.017511  -0.001375  3.865485  -0.002  0.00146  -0.017355  -0.002424  3.849154  -0.003
C  C40  1  0.12590990  0.74593158  0.63980915  1  0.003668  0.002024  3.616256  0.003  -0.017634  0.001839  3.854835  0.002  -0.017406  0.00137  3.864847  0.002  0.001352  -0.017346  0.002417  3.848561  0.003
C  C41  1  0.37353790  0.24635010  0.63917253  1  0.005299  -0.002032  3.614977  -0.003  -0.017425  -0.001846  3.855196  -0.002  -0.017251  -0.001376  3.865221  -0.002  0.001537  -0.017091  -0.002424  3.848892  -0.003
C  C42  1  0.93344476  0.23801567  0.26198230  1  0.047459  -9.5e-05  3.74221  0.0  0.067942  8.3e-05  3.972884  0.0  0.067417  -3e-06  3.997154  0.0  -0.013704  0.068071  0.000227  3.956653  0.0
C  C43  1  0.56760509  0.73729157  0.26264085  1  0.049702  7.8e-05  3.744275  0.0  0.070108  -8.7e-05  3.975685  0.0  0.069596  -0.0  3.999893  0.0  -0.013276  0.070244  -0.000233  3.959463  0.0
C  C44  1  0.06656737  0.76197156  0.73801828  1  0.047399  -9.6e-05  3.742417  0.0  0.067972  8.3e-05  3.973  0.0  0.067442  -2e-06  3.997259  0.0  -0.013732  0.068101  0.000227  3.956768  0.0
C  C45  1  0.43238238  0.26271296  0.73736178  1  0.049575  9.5e-05  3.744411  0.0  0.070003  -8.7e-05  3.975738  0.0  0.069486  -0.0  3.999954  0.0  -0.01332  0.070142  -0.000233  3.959503  0.0
C  C46  1  0.13471823  0.32414397  0.23338552  1  -0.116826  0.000495  3.715334  0.001  -0.135793  0.000161  3.957268  0.0  -0.138421  0.000132  3.977069  0.0  -0.094906  -0.134077  0.000215  3.94432  0.0
C  C47  1  0.36623306  0.82286135  0.23367941  1  -0.118452  -0.000467  3.717575  -0.001  -0.137545  -0.000162  3.960131  0.0  -0.140079  -0.000133  3.979989  0.0  -0.095224  -0.135906  -0.000218  3.947116  0.0
C  C48  1  0.86530213  0.67584950  0.76660994  1  -0.117024  0.000476  3.715425  0.001  -0.136041  0.000161  3.957362  0.0  -0.13867  0.000133  3.977173  0.0  -0.094985  -0.134326  0.000215  3.944409  0.0
C  C49  1  0.63374000  0.17712807  0.76632208  1  -0.118391  -0.00048  3.717566  -0.001  -0.137482  -0.000162  3.960056  0.0  -0.140013  -0.000133  3.979913  0.0  -0.095163  -0.135842  -0.000218  3.947035  0.0
C  C50  1  0.18935988  0.30873155  0.14274478  1  -0.066535  -0.000295  3.787381  0.0  -0.075232  -5.4e-05  4.029546  0.0  -0.077301  -7e-05  4.05225  0.0  -0.092929  -0.07368  -4.2e-05  4.014155  0.0
C  C51  1  0.31238191  0.80666719  0.14293015  1  -0.063823  0.000279  3.7874  0.0  -0.072483  5.6e-05  4.029634  0.0  -0.074533  7.1e-05  4.052289  0.0  -0.092584  -0.070941  4.4e-05  4.014271  0.0
C  C52  1  0.81063581  0.69126230  0.85725984  1  -0.066448  -0.000296  3.787076  0.0  -0.075136  -5.4e-05  4.029222  0.0  -0.077205  -7e-05  4.051926  0.0  -0.09286  -0.073585  -4.2e-05  4.013836  0.0
C  C53  1  0.68761995  0.19334169  0.85707365  1  -0.063788  0.000299  3.787654  0.0  -0.072467  5.5e-05  4.029889  0.0  -0.074518  7.1e-05  4.05254  0.0  -0.092482  -0.070924  4.4e-05  4.014524  0.0
C  C54  1  0.04525680  0.20695308  0.07973813  1  -0.089137  0.000664  3.790478  0.001  -0.103257  0.000201  4.036818  0.0  -0.105571  0.000145  4.058949  0.0  -0.098169  -0.101483  0.000309  4.021509  0.0
C  C55  1  0.45730850  0.70462656  0.08031675  1  -0.089828  -0.000649  3.787902  -0.001  -0.10432  -0.000204  4.033793  0.0  -0.106704  -0.000147  4.055911  0.0  -0.09814  -0.102501  -0.000313  4.018512  0.0
C  C56  1  0.95477796  0.79303715  0.92025694  1  -0.089043  0.000661  3.790712  0.001  -0.10315  0.000201  4.037068  0.0  -0.105467  0.000145  4.059213  0.0  -0.098162  -0.101384  0.000309  4.021757  0.0
C  C57  1  0.54271597  0.29537556  0.91967974  1  -0.090022  -0.000666  3.78808  -0.001  -0.104568  -0.000203  4.033968  0.0  -0.106932  -0.000146  4.056108  0.0  -0.098248  -0.102746  -0.000313  4.018689  0.0
C  C58  1  0.84412066  0.12133438  0.10777111  1  -0.075118  -0.000341  3.794957  0.0  -0.085134  -5.9e-05  4.040579  0.0  -0.087219  -7.1e-05  4.062537  0.0  -0.095054  -0.083587  -5.3e-05  4.025537  0.0
C  C59  1  0.65920462  0.61982767  0.10876296  1  -0.073562  0.000328  3.797028  0.0  -0.082594  6.1e-05  4.041775  0.0  -0.084677  7.2e-05  4.063615  0.0  -0.093861  -0.081067  5.5e-05  4.026804  0.0
C  C60  1  0.15588943  0.87865520  0.89223430  1  -0.075187  -0.000336  3.795208  0.0  -0.085172  -5.9e-05  4.040832  0.0  -0.087261  -7.1e-05  4.062775  0.0  -0.095068  -0.083634  -5.2e-05  4.02579  0.0
C  C61  1  0.34079107  0.38018232  0.89124162  1  -0.073437  0.00034  3.796579  0.0  -0.082477  6e-05  4.041366  0.0  -0.084551  7.2e-05  4.063192  0.0  -0.093862  -0.080959  5.5e-05  4.026406  0.0
C  C62  1  0.78832138  0.13695910  0.19852367  1  -0.108647  0.000591  3.741463  0.001  -0.12888  0.000194  3.984879  0.0  -0.13144  0.000147  4.006798  0.0  -0.091492  -0.127103  0.00026  3.970305  0.0
C  C63  1  0.71409658  0.63631201  0.19961106  1  -0.112138  -0.000587  3.74767  -0.001  -0.132432  -0.000197  3.991594  0.0  -0.134944  -0.000148  4.013547  0.0  -0.092834  -0.130698  -0.000262  3.977009  0.0
C  C64  1  0.21170927  0.86303121  0.80147337  1  -0.108486  0.000603  3.741059  0.001  -0.128812  0.000193  3.984419  0.0  -0.131307  0.000145  4.006362  0.0  -0.091389  -0.127037  0.00026  3.969847  0.0
C  C65  1  0.28591968  0.36369879  0.80038711  1  -0.112244  -0.000602  3.747706  -0.001  -0.132558  -0.000196  3.991626  0.0  -0.135069  -0.000147  4.013578  0.0  -0.092851  -0.130821  -0.000262  3.977038  0.0
N  N66  1  0.76503605  0.40034900  0.40306119  1  -0.562283  0.009312  3.15157  0.013  -0.556193  0.005786  3.429391  0.009  -0.583271  0.005663  3.424728  0.009  -0.628282  -0.538115  0.005225  3.433271  0.008
N  N67  1  0.73556706  0.90003596  0.40357319  1  -0.564605  -0.009312  3.149573  -0.013  -0.558825  -0.005793  3.42783  -0.009  -0.585836  -0.005674  3.423105  -0.009  -0.629987  -0.540815  -0.00523  3.431783  -0.008
N  N68  1  0.23495758  0.59964672  0.59693649  1  -0.56209  0.009315  3.151406  0.013  -0.556059  0.005787  3.429287  0.009  -0.58314  0.005664  3.42463  0.009  -0.628268  -0.537982  0.005225  3.433161  0.008
N  N69  1  0.26442864  0.09996429  0.59643023  1  -0.564484  -0.009313  3.149561  -0.013  -0.558837  -0.005793  3.427983  -0.009  -0.585865  -0.005675  3.423271  -0.009  -0.629973  -0.540821  -0.00523  3.431929  -0.008
O  O70  1  0.22983249  0.33394036  0.46789642  1  -0.575207  0.00488  2.186256  0.008  -0.52677  0.003484  2.4598  0.007  -0.565663  0.0036  2.44744  0.007  -0.305458  -0.49986  0.002787  2.46817  0.005
O  O71  1  0.27092117  0.83348985  0.46850121  1  -0.575424  -0.004903  2.186754  -0.008  -0.526684  -0.003515  2.459163  -0.007  -0.565519  -0.003628  2.446697  -0.007  -0.305161  -0.499735  -0.002821  2.467525  -0.005
O  O72  1  0.77015908  0.66605647  0.53210204  1  -0.575211  0.004877  2.186619  0.008  -0.526737  0.003483  2.460137  0.007  -0.56558  0.003599  2.447666  0.007  -0.30538  -0.499832  0.002786  2.468517  0.005
O  O73  1  0.72907041  0.16650603  0.53150040  1  -0.575598  -0.004906  2.186394  -0.008  -0.526841  -0.003518  2.458789  -0.007  -0.56566  -0.003632  2.446283  -0.007  -0.305171  -0.499918  -0.002823  2.467219  -0.005
O  O74  1  0.24145494  0.10163005  0.39335816  1  -0.592572  0.020569  1.998012  0.031  -0.555138  0.019074  2.255298  0.028  -0.583149  0.015477  2.242611  0.022  -0.297876  -0.534702  0.023394  2.26375  0.034
O  O75  1  0.25861559  0.60140789  0.39366684  1  -0.592064  -0.020616  2.003093  -0.031  -0.554164  -0.019119  2.260142  -0.028  -0.582245  -0.015528  2.247507  -0.022  -0.296964  -0.533691  -0.023426  2.268537  -0.034
O  O76  1  0.75853663  0.89836678  0.60664030  1  -0.592561  0.020574  1.997916  0.031  -0.555088  0.019074  2.255188  0.028  -0.583107  0.015476  2.242501  0.022  -0.297867  -0.534652  0.023395  2.263639  0.034
O  O77  1  0.74135747  0.39859210  0.60633004  1  -0.59172  -0.020608  2.003541  -0.031  -0.55386  -0.019112  2.260548  -0.028  -0.581936  -0.015523  2.247903  -0.022  -0.296803  -0.533399  -0.023417  2.268956  -0.034
