# generated using pymatgen
data_ZnH26C23N3O4
_symmetry_space_group_name_H-M   'P 1'
_cell_length_a   8.34133479
_cell_length_b   17.90747546
_cell_length_c   17.80816648
_cell_angle_alpha   59.96647360
_cell_angle_beta   76.44963260
_cell_angle_gamma   76.52405411
_symmetry_Int_Tables_number   1
_chemical_formula_structural   ZnH26C23N3O4
_chemical_formula_sum   'Zn4 H104 C92 N12 O16'
_cell_volume   2217.50555470
_cell_formula_units_Z   4
loop_
 _symmetry_equiv_pos_site_id
 _symmetry_equiv_pos_as_xyz
  1  'x, y, z'
loop_
 _atom_site_type_symbol
 _atom_site_label
 _atom_site_symmetry_multiplicity
 _atom_site_fract_x
 _atom_site_fract_y
 _atom_site_fract_z
 _atom_site_occupancy
 _atom_site_pbe_bader_charge
 _atom_site_pbe_bader_spin_density
 _atom_site_pbe_cm5_charge
 _atom_site_pbe_ddec_charge
 _atom_site_pbe_ddec_spin_density
 _atom_site_pbe_ddec_sum_bond_order
 _atom_site_pbe_magmom
Zn  Zn0  1  0.07697820  0.24341240  0.20906072  1  1.289187  0  0.689242  0.865284  0  2.292465  0
Zn  Zn1  1  0.52980306  0.25663094  0.29066809  1  1.285265  0  0.689501  0.866032  0  2.292595  0
Zn  Zn2  1  0.92302477  0.75658677  0.79093991  1  1.289229  0  0.689265  0.865305  0  2.2925  0
Zn  Zn3  1  0.47019973  0.74336887  0.70933224  1  1.285287  0  0.689502  0.866035  0  2.29249  0
H  H4  1  0.75330510  0.39022749  0.12529022  1  0.186832  0  0.139623  0.119633  0  0.998145  0
H  H5  1  0.26862819  0.10997853  0.37426185  1  0.200571  0  0.139621  0.119868  0  0.999076  0
H  H6  1  0.24669875  0.60976844  0.87471076  1  0.186737  0  0.139605  0.119643  0  0.998174  0
H  H7  1  0.73137863  0.89002006  0.62573526  1  0.200506  0  0.13962  0.119918  0  0.999083  0
H  H8  1  0.20848774  0.42728730  0.15787544  1  0.220587  0  0.149072  0.135696  0  0.985408  0
H  H9  1  0.79348759  0.07275195  0.34229182  1  0.206562  0  0.149014  0.135522  0  0.985573  0
H  H10  1  0.79150961  0.57271899  0.84212345  1  0.220491  0  0.149095  0.13571  0  0.985382  0
H  H11  1  0.20651785  0.92724723  0.65770797  1  0.206619  0  0.148999  0.135566  0  0.985573  0
H  H12  1  0.99905273  0.64438140  0.99732332  1  0.155423  0  0.121204  0.120897  0  1.00902  0
H  H13  1  0.64041218  0.85572415  0.50274871  1  0.162961  0  0.121061  0.120742  0  1.00938  0
H  H14  1  0.00094071  0.35562106  0.00267394  1  0.155374  0  0.121221  0.120866  0  1.009143  0
H  H15  1  0.35959732  0.14427371  0.49725240  1  0.162936  0  0.121074  0.120737  0  1.009401  0
H  H16  1  0.18525186  0.59424087  0.04533963  1  0.053802  0  0.121998  0.108294  0  0.968199  0
H  H17  1  0.82449055  0.90588070  0.45486966  1  0.078348  0  0.122058  0.108358  0  0.967548  0
H  H18  1  0.81473793  0.40576147  0.95466314  1  0.053471  0  0.121981  0.108272  0  0.968152  0
H  H19  1  0.17551525  0.09411714  0.54513242  1  0.078458  0  0.122035  0.108301  0  0.967415  0
H  H20  1  0.73829403  0.68147096  0.08915482  1  0.081329  0  0.104179  0.104592  0  1.023708  0
H  H21  1  0.50886047  0.81864117  0.41102684  1  0.0816  0  0.104228  0.105051  0  1.023919  0
H  H22  1  0.26169874  0.31853401  0.91084579  1  0.081368  0  0.104196  0.104593  0  1.023749  0
H  H23  1  0.49115014  0.18134809  0.58898508  1  0.081982  0  0.104197  0.104985  0  1.023857  0
H  H24  1  0.64580460  0.75723726  0.17942370  1  0.068712  0  0.102049  0.101051  0  1.009391  0
H  H25  1  0.58228065  0.74288702  0.32072663  1  0.048537  0  0.101967  0.100926  0  1.008457  0
H  H26  1  0.35419858  0.24276574  0.82057840  1  0.068689  0  0.102048  0.101078  0  1.009421  0
H  H27  1  0.41771956  0.25710421  0.67928323  1  0.048416  0  0.101963  0.100894  0  1.008529  0
H  H28  1  0.13409482  0.68195981  0.25796070  1  0.057632  0  0.103913  0.100822  0  1.003565  0
H  H29  1  0.07385582  0.81820190  0.24203544  1  0.056211  0  0.10389  0.10072  0  1.003444  0
H  H30  1  0.86590798  0.31803546  0.74204073  1  0.057732  0  0.103905  0.100804  0  1.003612  0
H  H31  1  0.92614042  0.18180387  0.75795709  1  0.05642  0  0.103879  0.10068  0  1.003502  0
H  H32  1  0.22604889  0.60736984  0.16687953  1  0.089162  0  0.106771  0.111545  0  0.993361  0
H  H33  1  0.00015439  0.89285670  0.33307523  1  0.06808  0  0.106692  0.111741  0  0.992902  0
H  H34  1  0.77394822  0.39262815  0.83311558  1  0.089186  0  0.106792  0.111556  0  0.993368  0
H  H35  1  0.99984574  0.10714383  0.66692168  1  0.068161  0  0.1067  0.111756  0  0.99288  0
H  H36  1  0.11385195  0.05002728  0.08837021  1  0.032292  0  0.096793  0.116178  0  0.984013  0
H  H37  1  0.25300154  0.44999085  0.41141286  1  0.033834  0  0.096733  0.1159  0  0.984326  0
H  H38  1  0.88614772  0.94997958  0.91163264  1  0.032202  0  0.096749  0.116086  0  0.984233  0
H  H39  1  0.74699491  0.55000964  0.58858616  1  0.033846  0  0.096711  0.115865  0  0.984368  0
H  H40  1  0.09604366  0.16332046  0.01172264  1  0.063223  0  0.089559  0.105265  0  1.028906  0
H  H41  1  0.27213526  0.33669080  0.48804726  1  0.025573  0  0.089394  0.105194  0  1.028432  0
H  H42  1  0.90395591  0.83668664  0.98826831  1  0.063434  0  0.089528  0.105196  0  1.028976  0
H  H43  1  0.72786418  0.66330774  0.51195238  1  0.025572  0  0.089413  0.105209  0  1.028387  0
H  H44  1  0.87553242  0.97245445  0.14496060  1  0.020134  0  0.083024  0.080149  0  1.020005  0
H  H45  1  0.99388667  0.52747893  0.35489084  1  0.026042  0  0.083054  0.080074  0  1.020694  0
H  H46  1  0.12447002  0.02755124  0.85503634  1  0.020132  0  0.083009  0.0801  0  1.019974  0
H  H47  1  0.00611474  0.47252149  0.64511160  1  0.026088  0  0.08305  0.08007  0  1.02072  0
H  H48  1  0.80404853  0.02748994  0.20803201  1  0.04553  0  0.082406  0.084048  0  1.03592  0
H  H49  1  0.04041675  0.47238410  0.29188512  1  0.01113  0  0.082505  0.083979  0  1.035554  0
H  H50  1  0.19595887  0.97251114  0.79196944  1  0.045385  0  0.082435  0.084058  0  1.03591  0
H  H51  1  0.95958096  0.52761631  0.70811773  1  0.011039  0  0.082493  0.083958  0  1.035541  0
H  H52  1  0.57090046  0.96886034  0.19814911  1  0.002038  0  0.085878  0.054525  0  0.982015  0
H  H53  1  0.73879065  0.53110661  0.30172523  1  0.016538  0  0.085923  0.054283  0  0.982518  0
H  H54  1  0.42910956  0.03114014  0.80185009  1  0.001997  0  0.085891  0.054528  0  0.982014  0
H  H55  1  0.26120867  0.46889245  0.69828034  1  0.016475  0  0.085893  0.05428  0  0.982526  0
H  H56  1  0.50572641  0.10782022  0.20505732  1  0.028621  0  0.084016  0.084857  0  1.026479  0
H  H57  1  0.81967038  0.39208638  0.29489906  1  -0.011434  0  0.084164  0.085333  0  1.026109  0
H  H58  1  0.49427674  0.89217829  0.79494360  1  0.028629  0  0.084011  0.084855  0  1.026493  0
H  H59  1  0.18032907  0.60791670  0.70509949  1  -0.011443  0  0.084181  0.085378  0  1.026085  0
H  H60  1  0.37320908  0.10708316  0.14141022  1  0.039398  0  0.088014  0.094382  0  1.009197  0
H  H61  1  0.62265261  0.39288969  0.35847901  1  0.037414  0  0.087767  0.093879  0  1.009779  0
H  H62  1  0.62679337  0.89291340  0.85859174  1  0.039385  0  0.087992  0.094351  0  1.009229  0
H  H63  1  0.37734967  0.60711207  0.64152099  1  0.037391  0  0.087791  0.093934  0  1.009837  0
H  H64  1  0.79004348  0.25225452  0.01409080  1  0.016702  0  0.084848  0.086989  0  1.020546  0
H  H65  1  0.05715787  0.24766623  0.48593573  1  0.00146  0  0.085213  0.087237  0  1.0206  0
H  H66  1  0.20995226  0.74774857  0.98590702  1  0.017164  0  0.084869  0.086945  0  1.020633  0
H  H67  1  0.94284156  0.75233233  0.51406277  1  0.001459  0  0.085209  0.087201  0  1.020644  0
H  H68  1  0.75084394  0.19545602  0.12951925  1  0.042769  0  0.088989  0.097882  0  1.01943  0
H  H69  1  0.07673511  0.30431395  0.37049578  1  0.040359  0  0.089227  0.097985  0  1.019212  0
H  H70  1  0.24915587  0.80454573  0.87048103  1  0.04277  0  0.08901  0.097909  0  1.019447  0
H  H71  1  0.92326169  0.69568977  0.62950274  1  0.040352  0  0.089239  0.097983  0  1.019161  0
H  H72  1  0.89698257  0.17182240  0.92681645  1  0.020594  0  0.081245  0.077826  0  1.044901  0
H  H73  1  0.99658437  0.32810176  0.57308622  1  0.032609  0  0.081302  0.078058  0  1.044463  0
H  H74  1  0.10301529  0.82817744  0.07318273  1  0.02061  0  0.081218  0.0778  0  1.044933  0
H  H75  1  0.00341544  0.67189544  0.42691571  1  0.032657  0  0.081315  0.078077  0  1.044454  0
H  H76  1  0.93447378  0.05673409  0.97957402  1  0.00155  0  0.083089  0.078553  0  1.035665  0
H  H77  1  0.97184670  0.44317252  0.52031765  1  -0.003212  0  0.083144  0.078656  0  1.036134  0
H  H78  1  0.06552742  0.94326705  0.02042471  1  0.001458  0  0.083109  0.078549  0  1.035704  0
H  H79  1  0.02815012  0.55682660  0.47968480  1  -0.003224  0  0.083157  0.078678  0  1.036191  0
H  H80  1  0.48099610  0.02489147  0.05220638  1  0.008533  0  0.085965  0.079867  0  1.016703  0
H  H81  1  0.55895712  0.47519465  0.44772851  1  0.030263  0  0.086143  0.079671  0  1.016797  0
H  H82  1  0.51900830  0.97510702  0.94779554  1  0.00845  0  0.085942  0.079842  0  1.016742  0
H  H83  1  0.44104023  0.52480252  0.55227484  1  0.030406  0  0.08613  0.079633  0  1.0169  0
H  H84  1  0.68688969  0.96873560  0.05545977  1  0.015053  0  0.085296  0.082143  0  0.995574  0
H  H85  1  0.71218067  0.53126579  0.44437222  1  0.020066  0  0.085441  0.082294  0  0.996161  0
H  H86  1  0.31311329  0.03126356  0.94454086  1  0.0151  0  0.08527  0.082056  0  0.995565  0
H  H87  1  0.28781670  0.46873133  0.55563396  1  0.019898  0  0.085423  0.082267  0  0.996176  0
H  H88  1  0.66752071  0.11031058  0.91626326  1  0.004374  0  0.085627  0.047942  0  0.973162  0
H  H89  1  0.69508630  0.38976458  0.58358960  1  -0.024711  0  0.085606  0.048283  0  0.973204  0
H  H90  1  0.33247962  0.88968925  0.08373621  1  0.004395  0  0.085615  0.047873  0  0.973166  0
H  H91  1  0.30491053  0.61022999  0.41641508  1  -0.024645  0  0.08558  0.048255  0  0.973349  0
H  H92  1  0.59829909  0.25050180  0.92255394  1  0.004578  0  0.084526  0.080786  0  0.999215  0
H  H93  1  0.77208631  0.24950298  0.57741790  1  -0.009016  0  0.084439  0.080664  0  0.998686  0
H  H94  1  0.40169877  0.74949801  0.07744637  1  0.004561  0  0.08453  0.080796  0  0.999209  0
H  H95  1  0.22791470  0.75049429  0.42258050  1  -0.009003  0  0.084414  0.080654  0  0.998714  0
H  H96  1  0.42954791  0.18842696  0.97646212  1  0.025608  0  0.087594  0.084978  0  1.012559  0
H  H97  1  0.59521897  0.31165922  0.52348128  1  0.007502  0  0.087411  0.085043  0  1.012458  0
H  H98  1  0.57045014  0.81157219  0.02353905  1  0.025558  0  0.087566  0.084935  0  1.012608  0
H  H99  1  0.40477923  0.68833933  0.47651736  1  0.007606  0  0.087406  0.085044  0  1.012504  0
H  H100  1  0.50405025  0.33335307  0.00821350  1  0.057873  0  0.099355  0.122274  0  0.98069  0
H  H101  1  0.84617762  0.16660889  0.49161819  1  0.04801  0  0.099603  0.122581  0  0.97935  0
H  H102  1  0.49594956  0.66664412  0.99178900  1  0.05793  0  0.099356  0.122283  0  0.980695  0
H  H103  1  0.15382252  0.83339162  0.50837928  1  0.047971  0  0.099578  0.122546  0  0.979355  0
H  H104  1  0.32617162  0.27685463  0.05176877  1  0.066692  0  0.09726  0.120107  0  1.03028  0
H  H105  1  0.65535612  0.22335165  0.44814374  1  0.073365  0  0.097542  0.120589  0  1.029928  0
H  H106  1  0.67382661  0.72314385  0.94823384  1  0.066639  0  0.097272  0.120104  0  1.030269  0
H  H107  1  0.34464070  0.77664750  0.55185757  1  0.073208  0  0.097552  0.120597  0  1.029948  0
C  C108  1  0.85424065  0.42135394  0.12165151  1  0.937332  0  0.149227  0.14294  0  3.973222  0
C  C109  1  0.39703991  0.07882079  0.37803838  1  0.930851  0  0.148884  0.142301  0  3.972891  0
C  C110  1  0.14575882  0.57864452  0.87835209  1  0.937437  0  0.149278  0.143001  0  3.973134  0
C  C111  1  0.60296674  0.92117843  0.62195957  1  0.930901  0  0.148916  0.142344  0  3.973021  0
C  C112  1  0.08794421  0.43760164  0.13813324  1  0.953993  0  0.169746  0.08983  0  3.865847  0
C  C113  1  0.66349614  0.06249232  0.36191624  1  0.976929  0  0.169992  0.090922  0  3.865477  0
C  C114  1  0.91205402  0.56240140  0.86186715  1  0.954091  0  0.169658  0.089675  0  3.865859  0
C  C115  1  0.33650841  0.93750557  0.63808372  1  0.977014  0  0.169973  0.090868  0  3.865608  0
C  C116  1  0.04890954  0.60190316  0.05954250  1  0.270457  0  -0.042073  -0.152241  0  3.907669  0
C  C117  1  0.71014525  0.89819448  0.44057841  1  0.246254  0  -0.041534  -0.151683  0  3.906362  0
C  C118  1  0.95108126  0.39809993  0.94045531  1  0.270782  0  -0.042029  -0.152179  0  3.907617  0
C  C119  1  0.28986812  0.10180274  0.55942258  1  0.246174  0  -0.041503  -0.151636  0  3.906138  0
C  C120  1  0.98930187  0.64147075  0.12018664  1  -0.041479  0  -0.010367  0.087965  0  3.974974  0
C  C121  1  0.75088133  0.85861458  0.37992290  1  -0.012013  0  -0.01083  0.08835  0  3.972128  0
C  C122  1  0.01069491  0.35853304  0.87980848  1  -0.041735  0  -0.010378  0.087993  0  3.974919  0
C  C123  1  0.24911919  0.14138456  0.62007856  1  -0.012931  0  -0.010792  0.088418  0  3.972067  0
C  C124  1  0.82477537  0.68161747  0.12645457  1  -0.035893  0  -0.084092  -0.120347  0  3.981384  0
C  C125  1  0.63272705  0.81846200  0.37370553  1  -0.054177  0  -0.084554  -0.122686  0  3.981064  0
C  C126  1  0.17522477  0.31838302  0.87354403  1  -0.035774  0  -0.084052  -0.120273  0  3.981448  0
C  C127  1  0.36727545  0.18152989  0.62630376  1  -0.053411  0  -0.084592  -0.122682  0  3.981163  0
C  C128  1  0.77267995  0.72344797  0.17790085  1  -0.079605  0  -0.086638  -0.129999  0  3.984854  0
C  C129  1  0.67387927  0.77660087  0.32229001  1  -0.036252  0  -0.086258  -0.128347  0  3.981088  0
C  C130  1  0.22732267  0.27655251  0.82209861  1  -0.079564  0  -0.086638  -0.130021  0  3.984851  0
C  C131  1  0.32612496  0.22339368  0.67771497  1  -0.036191  0  -0.086214  -0.128231  0  3.98121  0
C  C132  1  0.88422565  0.72630522  0.22434059  1  -0.041068  0  -0.004906  0.064257  0  4.006706  0
C  C133  1  0.83475887  0.77378521  0.27583340  1  0.026304  0  -0.004199  0.063904  0  4.005649  0
C  C134  1  0.11576887  0.27369331  0.77565960  1  -0.04108  0  -0.004904  0.064207  0  4.006592  0
C  C135  1  0.16523953  0.22621265  0.72416781  1  0.02626  0  -0.004208  0.063835  0  4.005605  0
C  C136  1  0.04751570  0.68346063  0.21971534  1  -0.073156  0  -0.083434  -0.120668  0  3.987293  0
C  C137  1  0.95060278  0.81665568  0.28038864  1  -0.069915  0  -0.083809  -0.120289  0  3.988294  0
C  C138  1  0.95248357  0.31653855  0.78028457  1  -0.073378  0  -0.083458  -0.120663  0  3.987408  0
C  C139  1  0.04939260  0.18334874  0.71960689  1  -0.070392  0  -0.083774  -0.120152  0  3.988199  0
C  C140  1  0.09947936  0.64156644  0.16838770  1  -0.019246  0  -0.082612  -0.125524  0  3.994135  0
C  C141  1  0.90932509  0.85857816  0.33167403  1  -0.007019  0  -0.081594  -0.124928  0  3.995562  0
C  C142  1  0.90051903  0.35843142  0.83161350  1  -0.018984  0  -0.082632  -0.125572  0  3.994266  0
C  C143  1  0.09067998  0.14142233  0.66832459  1  -0.006832  0  -0.081616  -0.125024  0  3.995511  0
C  C144  1  0.04916170  0.13544543  0.14633160  1  1.536657  0  0.199734  0.630607  0  4.164117  0
C  C145  1  0.33178836  0.36452014  0.35347896  1  1.541412  0  0.199428  0.629918  0  4.163521  0
C  C146  1  0.95081889  0.86456351  0.85366448  1  1.537476  0  0.199584  0.630338  0  4.164301  0
C  C147  1  0.66820967  0.63547906  0.64651995  1  1.541391  0  0.199399  0.629895  0  4.163665  0
C  C148  1  0.04069420  0.11411595  0.07476029  1  -0.058977  0  -0.165194  -0.351698  0  3.861604  0
C  C149  1  0.23043903  0.38587863  0.42504629  1  -0.016049  0  -0.164669  -0.351453  0  3.86072  0
C  C150  1  0.95929957  0.88589437  0.92523085  1  -0.060095  0  -0.16515  -0.35147  0  3.861805  0
C  C151  1  0.76955954  0.61411859  0.57495465  1  -0.016109  0  -0.16469  -0.35146  0  3.86071  0
C  C152  1  0.85942498  0.11240399  0.06882808  1  0.045578  0  -0.013707  0.196517  0  3.752447  0
C  C153  1  0.04154564  0.38750306  0.43106769  1  0.03664  0  -0.014541  0.197151  0  3.749887  0
C  C154  1  0.14056846  0.88759846  0.93116919  1  0.045354  0  -0.01364  0.196536  0  3.752143  0
C  C155  1  0.95845557  0.61249808  0.56893104  1  0.036609  0  -0.014508  0.197156  0  3.749879  0
C  C156  1  0.79462279  0.03006640  0.14624189  1  -0.047956  0  -0.171094  -0.240279  0  3.864827  0
C  C157  1  0.97173627  0.46987412  0.35364708  1  -0.020594  0  -0.171192  -0.24045  0  3.86506  0
C  C158  1  0.20538178  0.96993601  0.85375754  1  -0.047337  0  -0.171189  -0.240328  0  3.864823  0
C  C159  1  0.02826001  0.53012697  0.64635390  1  -0.020466  0  -0.171192  -0.24041  0  3.865041  0
C  C160  1  0.61501504  0.02791411  0.14141393  1  0.02027  0  -0.093715  0.046797  0  3.855191  0
C  C161  1  0.78515657  0.47205994  0.35848257  1  0.008512  0  -0.093933  0.047439  0  3.85571  0
C  C162  1  0.38499093  0.97208767  0.85858452  1  0.019765  0  -0.093726  0.046746  0  3.855324  0
C  C163  1  0.21484254  0.52793985  0.64151930  1  0.008582  0  -0.093916  0.047389  0  3.855687  0
C  C164  1  0.50324756  0.10858207  0.14320000  1  -0.062677  0  -0.167832  -0.235055  0  3.834189  0
C  C165  1  0.75597082  0.39138058  0.35672560  1  -0.00445  0  -0.167524  -0.235001  0  3.834952  0
C  C166  1  0.49675400  0.89141776  0.85679990  1  -0.062641  0  -0.167789  -0.234991  0  3.834195  0
C  C167  1  0.24403198  0.60861923  0.64327473  1  -0.004427  0  -0.167523  -0.235096  0  3.835063  0
C  C168  1  0.56382279  0.19228058  0.06484635  1  0.06884  0  -0.010807  0.198329  0  3.736926  0
C  C169  1  0.82178743  0.30767736  0.43510130  1  0.027156  0  -0.011115  0.196543  0  3.737028  0
C  C170  1  0.43617561  0.80771727  0.93515542  1  0.068758  0  -0.010849  0.198222  0  3.737019  0
C  C171  1  0.17821271  0.69232315  0.56489674  1  0.026976  0  -0.011102  0.196604  0  3.736992  0
C  C172  1  0.74498607  0.19288418  0.06986050  1  -0.056257  0  -0.168292  -0.260738  0  3.812929  0
C  C173  1  0.00858810  0.30699025  0.43010168  1  -0.021534  0  -0.168732  -0.260578  0  3.811206  0
C  C174  1  0.25501020  0.80711696  0.93013822  1  -0.056395  0  -0.168319  -0.26061  0  3.81283  0
C  C175  1  0.99141118  0.69300891  0.56989880  1  -0.021552  0  -0.16877  -0.260529  0  3.811135  0
C  C176  1  0.85149481  0.11289966  0.98303292  1  -0.031685  0  -0.167276  -0.239713  0  3.861277  0
C  C177  1  0.94840844  0.38702726  0.51686578  1  -0.036179  0  -0.167298  -0.239994  0  3.861507  0
C  C178  1  0.14850552  0.88710016  0.01696712  1  -0.031964  0  -0.167297  -0.23973  0  3.861221  0
C  C179  1  0.05159577  0.61297191  0.48313414  1  -0.036108  0  -0.167325  -0.240048  0  3.861652  0
C  C180  1  0.60915259  0.02734535  0.05629643  1  -0.037986  0  -0.167003  -0.218845  0  3.903388  0
C  C181  1  0.69371101  0.47267385  0.44357824  1  -0.061284  0  -0.167  -0.217953  0  3.904774  0
C  C182  1  0.39085267  0.97265447  0.94370363  1  -0.038011  0  -0.166908  -0.218622  0  3.903261  0
C  C183  1  0.30628845  0.52732466  0.55642310  1  -0.0613  0  -0.166963  -0.217845  0  3.904946  0
C  C184  1  0.67181524  0.10998600  0.97789939  1  0.014711  0  -0.091553  0.043525  0  3.859871  0
C  C185  1  0.76065635  0.39003642  0.52197461  1  0.046102  0  -0.091502  0.041839  0  3.860931  0
C  C186  1  0.32818473  0.89001514  0.02209948  1  0.014889  0  -0.091525  0.04363  0  3.859749  0
C  C187  1  0.23934451  0.60996142  0.47802746  1  0.046004  0  -0.091434  0.041933  0  3.861211  0
C  C188  1  0.55861251  0.19034213  0.97982758  1  -0.038889  0  -0.1627  -0.234586  0  3.857261  0
C  C189  1  0.72959513  0.30968245  0.52011074  1  -0.019182  0  -0.162462  -0.233589  0  3.85454  0
C  C190  1  0.44138552  0.80965706  0.02017190  1  -0.038906  0  -0.162678  -0.234569  0  3.857282  0
C  C191  1  0.27040395  0.69031740  0.47988774  1  -0.019143  0  -0.162497  -0.233693  0  3.854675  0
C  C192  1  0.45106018  0.27573405  0.06272422  1  -0.058374  0  -0.163233  -0.371668  0  3.878566  0
C  C193  1  0.79012257  0.22432772  0.43714215  1  -0.034763  0  -0.163754  -0.371464  0  3.876795  0
C  C194  1  0.54893840  0.72426315  0.93727785  1  -0.058453  0  -0.163238  -0.371674  0  3.878627  0
C  C195  1  0.20987775  0.77567212  0.56285675  1  -0.034583  0  -0.163746  -0.371444  0  3.87682  0
C  C196  1  0.43759519  0.27890530  0.14692929  1  1.509158  0  0.219524  0.646694  0  4.09067  0
C  C197  1  0.86379571  0.22117227  0.35290024  1  1.500092  0  0.218194  0.644221  0  4.091828  0
C  C198  1  0.56240039  0.72109386  0.85307160  1  1.509251  0  0.219512  0.646637  0  4.090743  0
C  C199  1  0.13620197  0.77882822  0.64709864  1  1.500166  0  0.218178  0.644172  0  4.091833  0
N  N200  1  0.99897373  0.37602720  0.15561171  1  -1.24071  0  -0.346922  -0.328826  0  3.548623  0
N  N201  1  0.53046691  0.12409911  0.34419690  1  -1.247255  0  -0.347317  -0.329909  0  3.548337  0
N  N202  1  0.00102382  0.62397382  0.84439253  1  -1.240762  0  -0.346893  -0.328723  0  3.548458  0
N  N203  1  0.46953993  0.87589944  0.65580248  1  -1.247422  0  -0.347312  -0.329996  0  3.548475  0
N  N204  1  0.00009577  0.51583107  0.09467895  1  -0.80567  0  -0.128474  0.174529  0  3.741106  0
N  N205  1  0.61036330  0.98427472  0.40537649  1  -0.853204  0  -0.129258  0.173079  0  3.743125  0
N  N206  1  0.99990035  0.48417066  0.90532231  1  -0.80568  0  -0.128554  0.174509  0  3.741114  0
N  N207  1  0.38964620  0.01572312  0.59462575  1  -0.85313  0  -0.129244  0.173153  0  3.743132  0
N  N208  1  0.85056612  0.50701295  0.08355871  1  -0.64844  0  -0.225113  -0.267567  0  3.07314  0
N  N209  1  0.44088103  0.99314883  0.41627647  1  -0.622331  0  -0.224534  -0.266463  0  3.072858  0
N  N210  1  0.14943177  0.49298681  0.91644443  1  -0.648411  0  -0.22507  -0.267594  0  3.073117  0
N  N211  1  0.55912951  0.00684972  0.58372249  1  -0.622433  0  -0.224601  -0.266587  0  3.073022  0
O  O212  1  0.06952603  0.21643413  0.11734410  1  -1.169165  0  -0.34193  -0.583091  0  2.329675  0
O  O213  1  0.40389257  0.28348709  0.38248728  1  -1.174206  0  -0.341658  -0.582476  0  2.330352  0
O  O214  1  0.93047110  0.78357748  0.88264717  1  -1.168996  0  -0.341838  -0.582972  0  2.329837  0
O  O215  1  0.59610986  0.71651407  0.61751019  1  -1.174155  0  -0.341634  -0.582454  0  2.330325  0
O  O216  1  0.03344419  0.08112854  0.22568838  1  -1.197383  0  -0.340602  -0.581203  0  2.082443  0
O  O217  1  0.34131246  0.41884027  0.27409808  1  -1.200936  0  -0.34084  -0.581561  0  2.081185  0
O  O218  1  0.96655289  0.91888319  0.77429722  1  -1.197216  0  -0.340561  -0.581154  0  2.082295  0
O  O219  1  0.65868803  0.58115894  0.72589999  1  -1.200969  0  -0.340816  -0.581558  0  2.081279  0
O  O220  1  0.31465839  0.25321302  0.20774763  1  -1.197386  0  -0.318052  -0.57387  0  2.389915  0
O  O221  1  0.77588970  0.24682970  0.29212531  1  -1.188907  0  -0.317504  -0.573318  0  2.38916  0
O  O222  1  0.68534424  0.74678286  0.79225576  1  -1.197382  0  -0.317999  -0.573829  0  2.389928  0
O  O223  1  0.22410710  0.75316949  0.70787431  1  -1.188901  0  -0.317497  -0.573295  0  2.389134  0
O  O224  1  0.55722595  0.30265603  0.16029997  1  -1.155963  0  -0.312369  -0.533356  0  2.275703  0
O  O225  1  0.02053276  0.19739472  0.33948612  1  -1.161143  0  -0.311306  -0.531429  0  2.275824  0
O  O226  1  0.44277087  0.69734312  0.83970134  1  -1.156045  0  -0.31239  -0.533339  0  2.275701  0
O  O227  1  0.97946351  0.80260186  0.66051483  1  -1.161178  0  -0.311306  -0.531437  0  2.275886  0
