# generated using pymatgen
data_ZnH16C21N6O5F2
_symmetry_space_group_name_H-M   'P 1'
_cell_length_a   5.71838466
_cell_length_b   11.68833969
_cell_length_c   17.08344951
_cell_angle_alpha   100.08393157
_cell_angle_beta   98.07416900
_cell_angle_gamma   102.16666355
_symmetry_Int_Tables_number   1
_chemical_formula_structural   ZnH16C21N6O5F2
_chemical_formula_sum   'Zn2 H32 C42 N12 O10 F4'
_cell_volume   1080.12102187
_cell_formula_units_Z   2
loop_
 _symmetry_equiv_pos_site_id
 _symmetry_equiv_pos_as_xyz
  1  'x, y, z'
loop_
 _atom_site_type_symbol
 _atom_site_label
 _atom_site_symmetry_multiplicity
 _atom_site_fract_x
 _atom_site_fract_y
 _atom_site_fract_z
 _atom_site_occupancy
 _atom_site_hle17_bader_spin_density
 _atom_site_hle17_ddec_charge
 _atom_site_hle17_ddec_spin_density
 _atom_site_hle17_ddec_sum_bond_order
 _atom_site_hle17_magmom
 _atom_site_hse06_10hf_bader_spin_density
 _atom_site_hse06_10hf_ddec_charge
 _atom_site_hse06_10hf_ddec_spin_density
 _atom_site_hse06_10hf_ddec_sum_bond_order
 _atom_site_hse06_10hf_magmom
 _atom_site_hse06_bader_spin_density
 _atom_site_hse06_ddec_charge
 _atom_site_hse06_ddec_spin_density
 _atom_site_hse06_ddec_sum_bond_order
 _atom_site_hse06_magmom
 _atom_site_pbe_bader_spin_density
 _atom_site_pbe_cm5_charge
 _atom_site_pbe_ddec_charge
 _atom_site_pbe_ddec_spin_density
 _atom_site_pbe_ddec_sum_bond_order
 _atom_site_pbe_magmom
Zn  Zn0  1  0.48754842  0.73290164  0.30087012  1  0  1.009167  0  1.887375  0  0  0.822591  0  2.363663  0  0  0.869097  0  2.309969  0  0  0.702144  0.790157  0  2.400526  0
Zn  Zn1  1  0.51246645  0.26709971  0.69913169  1  0  1.009208  0  1.887509  0  0  0.822632  0  2.363823  0  0  0.869137  0  2.310129  0  0  0.702179  0.790204  0  2.400685  0
H  H2  1  0.71566274  0.24539441  0.42062023  1  0  0.376067  0  0.90533  0  0  0.347425  0  0.987778  0  0  0.358241  0  0.974919  0  0  0.290053  0.339752  0  0.996823  0
H  H3  1  0.28434923  0.75460152  0.57937790  1  0  0.376071  0  0.905249  0  0  0.347434  0  0.987688  0  0  0.358254  0  0.974825  0  0  0.290065  0.339762  0  0.996733  0
H  H4  1  0.46006443  0.60071027  0.45386647  1  0  0.109381  0  0.976984  0  0  0.108424  0  1.053639  0  0  0.112446  0  1.048944  0  0  0.130521  0.105428  0  1.057105  0
H  H5  1  0.53994129  0.39928744  0.54613046  1  0  0.109416  0  0.976975  0  0  0.108426  0  1.053688  0  0  0.11245  0  1.048991  0  0  0.13052  0.105422  0  1.057162  0
H  H6  1  0.86769517  0.56358469  0.26709447  1  0  0.137067  0  0.924176  0  0  0.142197  0  0.990886  0  0  0.146059  0  0.986145  0  0  0.149447  0.139193  0  0.994491  0
H  H7  1  0.13228698  0.43640855  0.73289866  1  0  0.137034  0  0.92423  0  0  0.142183  0  0.990918  0  0  0.146029  0  0.986197  0  0  0.149497  0.139244  0  0.994441  0
H  H8  1  0.05821732  0.39096419  0.42363771  1  0  0.110746  0  0.925868  0  0  0.119399  0  0.997479  0  0  0.120858  0  0.996758  0  0  0.122902  0.118259  0  0.99814  0
H  H9  1  0.94179346  0.60903983  0.57636250  1  0  0.11078  0  0.925847  0  0  0.119369  0  0.997435  0  0  0.120829  0  0.996712  0  0  0.122909  0.118232  0  0.998097  0
H  H10  1  0.12645265  0.42600382  0.33076201  1  0  0.109259  0  0.940995  0  0  0.120915  0  1.00281  0  0  0.122597  0  1.001846  0  0  0.11815  0.11962  0  1.003594  0
H  H11  1  0.87356738  0.57399749  0.66923824  1  0  0.109176  0  0.940979  0  0  0.120786  0  1.002785  0  0  0.122469  0  1.001815  0  0  0.118082  0.119492  0  1.003573  0
H  H12  1  0.16239492  0.21174650  0.28219366  1  0  0.115818  0  0.93274  0  0  0.126672  0  0.999437  0  0  0.128805  0  0.997482  0  0  0.123705  0.125142  0  1.000821  0
H  H13  1  0.83764107  0.78824763  0.71780815  1  0  0.115848  0  0.932774  0  0  0.126664  0  0.999451  0  0  0.128788  0  0.997522  0  0  0.12374  0.125132  0  1.000834  0
H  H14  1  0.13285421  0.20261878  0.38272706  1  0  0.093422  0  0.952245  0  0  0.10902  0  1.013243  0  0  0.109181  0  1.01377  0  0  0.11295  0.10886  0  1.012948  0
H  H15  1  0.86717792  0.79737807  0.61727608  1  0  0.093441  0  0.952288  0  0  0.109052  0  1.013252  0  0  0.109214  0  1.013782  0  0  0.113008  0.108893  0  1.012957  0
H  H16  1  0.63255081  0.01787803  0.35732290  1  0  0.112616  0  0.956075  0  0  0.11756  0  1.026431  0  0  0.120654  0  1.022307  0  0  0.141821  0.115238  0  1.029372  0
H  H17  1  0.36748084  0.98212070  0.64268571  1  0  0.112634  0  0.956085  0  0  0.117556  0  1.026465  0  0  0.12066  0  1.022312  0  0  0.141818  0.115239  0  1.029397  0
H  H18  1  0.95254869  0.80137572  0.20260337  1  0  0.113515  0  0.938838  0  0  0.121052  0  1.000227  0  0  0.123609  0  0.997127  0  0  0.14033  0.119054  0  1.002605  0
H  H19  1  0.04746582  0.19861839  0.79739348  1  0  0.113568  0  0.938845  0  0  0.121112  0  1.00022  0  0  0.123671  0  0.997114  0  0  0.140352  0.119114  0  1.0026  0
H  H20  1  0.84716794  0.32515624  0.05186638  1  0  0.147308  0  0.975233  0  0  0.152309  0  1.042002  0  0  0.154491  0  1.043396  0  0  0.110334  0.150712  0  1.041211  0
H  H21  1  0.15282355  0.67486137  0.94814108  1  0  0.147347  0  0.975069  0  0  0.152322  0  1.041869  0  0  0.154508  0  1.043263  0  0  0.110323  0.150726  0  1.04108  0
H  H22  1  0.20992980  0.08632965  0.09314815  1  0  0.131808  0  0.923816  0  0  0.139694  0  0.983307  0  0  0.143957  0  0.980743  0  0  0.111728  0.136626  0  0.985296  0
H  H23  1  0.79008594  0.91366910  0.90685925  1  0  0.131875  0  0.923739  0  0  0.139755  0  0.983239  0  0  0.144025  0  0.980664  0  0  0.111745  0.136686  0  0.985227  0
H  H24  1  0.39914930  0.12061749  0.23669750  1  0  0.098809  0  1.005248  0  0  0.09793  0  1.084983  0  0  0.101828  0  1.080941  0  0  0.10093  0.095151  0  1.087876  0
H  H25  1  0.60090034  0.87937214  0.76330432  1  0  0.098764  0  1.005223  0  0  0.097911  0  1.084945  0  0  0.101813  0  1.080893  0  0  0.100904  0.095131  0  1.087839  0
H  H26  1  0.81086588  0.78649224  0.49403982  1  0  0.090363  0  0.97307  0  0  0.100251  0  1.038476  0  0  0.103435  0  1.036362  0  0  0.101528  0.097959  0  1.040081  0
H  H27  1  0.18909995  0.21349298  0.50595232  1  0  0.090277  0  0.973233  0  0  0.100168  0  1.038644  0  0  0.103349  0  1.03653  0  0  0.101517  0.097876  0  1.040247  0
H  H28  1  0.38196590  0.05414288  0.44704568  1  0  0.096803  0  0.957209  0  0  0.109035  0  1.017769  0  0  0.111807  0  1.016424  0  0  0.103787  0.107009  0  1.01886  0
H  H29  1  0.61800785  0.94586480  0.55295348  1  0  0.096891  0  0.957212  0  0  0.109082  0  1.017807  0  0  0.111848  0  1.016473  0  0  0.103808  0.107053  0  1.018915  0
H  H30  1  0.85064339  0.64388838  0.09431825  1  0  0.111742  0  0.964913  0  0  0.118085  0  1.031656  0  0  0.122114  0  1.028496  0  0  0.102873  0.115178  0  1.033999  0
H  H31  1  0.14929188  0.35612024  0.90567773  1  0  0.11159  0  0.964627  0  0  0.117846  0  1.031514  0  0  0.121868  0  1.028353  0  0  0.102811  0.114938  0  1.033853  0
H  H32  1  0.39305146  0.45039316  0.04345447  1  0  0.100422  0  0.95941  0  0  0.108822  0  1.024148  0  0  0.111616  0  1.023375  0  0  0.102418  0.10681  0  1.024765  0
H  H33  1  0.60689824  0.54961828  0.95655238  1  0  0.100357  0  0.959358  0  0  0.108698  0  1.024132  0  0  0.111462  0  1.023445  0  0  0.102352  0.106713  0  1.02469  0
C  C34  1  0.58219543  0.56913603  0.41624860  1  0  0.173402  0  3.707966  0  0  0.121989  0  4.000056  0  0  0.132457  0  4.012182  0  0  0.140301  0.11527  0  3.991729  0
C  C35  1  0.41782140  0.43086258  0.58375004  1  0  0.173284  0  3.707939  0  0  0.121885  0  4.000011  0  0  0.132353  0  4.012127  0  0  0.140246  0.115176  0  3.991675  0
C  C36  1  0.78465305  0.55172244  0.31960641  1  0  0.198784  0  3.565897  0  0  0.116765  0  3.827762  0  0  0.132214  0  3.837278  0  0  0.175795  0.106967  0  3.821161  0
C  C37  1  0.21534908  0.44827168  0.68038937  1  0  0.198851  0  3.565874  0  0  0.116827  0  3.827791  0  0  0.132296  0  3.837307  0  0  0.17591  0.106983  0  3.821157  0
C  C38  1  0.97946750  0.39176247  0.36135153  1  0  -0.124526  0  3.593686  0  0  -0.207159  0  3.845184  0  0  -0.205229  0  3.854235  0  0  -0.048425  -0.208161  0  3.839004  0
C  C39  1  0.02054809  0.60824063  0.63864816  1  0  -0.124448  0  3.593725  0  0  -0.206776  0  3.844994  0  0  -0.204835  0  3.854034  0  0  -0.048329  -0.207794  0  3.838836  0
C  C40  1  0.83902266  0.26211080  0.31810132  1  0  0.309265  0  3.583998  0  0  0.302484  0  3.846592  0  0  0.309449  0  3.857605  0  0  0.083107  0.29772  0  3.838851  0
C  C41  1  0.16100132  0.73788781  0.68189878  1  0  0.30927  0  3.584381  0  0  0.302198  0  3.8472  0  0  0.309167  0  3.858209  0  0  0.083039  0.297438  0  3.839455  0
C  C42  1  0.03152791  0.18650409  0.32082235  1  0  -0.115089  0  3.573817  0  0  -0.194928  0  3.816729  0  0  -0.192624  0  3.82649  0  0  -0.050998  -0.196208  0  3.810105  0
C  C43  1  0.96850031  0.81349547  0.67918154  1  0  -0.115143  0  3.573964  0  0  -0.194898  0  3.816914  0  0  -0.192608  0  3.826696  0  0  -0.051064  -0.196169  0  3.810271  0
C  C44  1  0.74676064  0.98715128  0.31714685  1  0  0.193737  0  3.616697  0  0  0.112725  0  3.878849  0  0  0.127537  0  3.890789  0  0  0.167931  0.103502  0  3.870311  0
C  C45  1  0.25326827  0.01284565  0.68286027  1  0  0.193559  0  3.617116  0  0  0.112526  0  3.879234  0  0  0.12734  0  3.891184  0  0  0.167877  0.103302  0  3.870696  0
C  C46  1  0.91076300  0.87953910  0.23686590  1  0  0.229382  0  3.660721  0  0  0.17177  0  3.951376  0  0  0.184603  0  3.962202  0  0  0.158519  0.163428  0  3.94381  0
C  C47  1  0.08925281  0.12045689  0.76313649  1  0  0.229182  0  3.660622  0  0  0.171544  0  3.951305  0  0  0.184379  0  3.962131  0  0  0.158409  0.163199  0  3.94374  0
C  C48  1  0.72349802  0.24786840  0.22960464  1  0  -0.128447  0  3.712313  0  0  -0.133756  0  3.975473  0  0  -0.13915  0  3.999033  0  0  -0.035753  -0.130141  0  3.959494  0
C  C49  1  0.27652709  0.75212569  0.77039263  1  0  -0.128847  0  3.712377  0  0  -0.133831  0  3.975273  0  0  -0.139219  0  3.998827  0  0  -0.035756  -0.130217  0  3.959294  0
C  C50  1  0.84457272  0.29956170  0.17389641  1  0  0.295232  0  3.748754  0  0  0.277615  0  4.032284  0  0  0.288103  0  4.044877  0  0  0.096478  0.270318  0  4.023879  0
C  C51  1  0.15544786  0.70044411  0.82610556  1  0  0.295366  0  3.748743  0  0  0.277671  0  4.032221  0  0  0.288159  0  4.044805  0  0  0.096436  0.270374  0  4.023817  0
C  C52  1  0.74586738  0.28190280  0.09240922  1  0  -0.291237  0  3.735767  0  0  -0.328574  0  3.995007  0  0  -0.336175  0  4.013886  0  0  -0.108765  -0.323545  0  3.982568  0
C  C53  1  0.25413246  0.71810752  0.90759186  1  0  -0.291238  0  3.735793  0  0  -0.328508  0  3.995012  0  0  -0.336122  0  4.013914  0  0  -0.10875  -0.323477  0  3.982568  0
C  C54  1  0.51537459  0.20594915  0.06517993  1  0  0.340805  0  3.799362  0  0  0.330553  0  4.078904  0  0  0.342347  0  4.089377  0  0  0.101228  0.322315  0  4.072035  0
C  C55  1  0.48462698  0.79405679  0.93482657  1  0  0.340732  0  3.79905  0  0  0.330469  0  4.078597  0  0  0.342264  0  4.089061  0  0  0.101178  0.322229  0  4.071732  0
C  C56  1  0.38792168  0.14780912  0.11613850  1  0  -0.193639  0  3.753419  0  0  -0.227565  0  4.020866  0  0  -0.232724  0  4.03781  0  0  -0.104973  -0.224178  0  4.009543  0
C  C57  1  0.61209470  0.85219495  0.88386603  1  0  -0.193797  0  3.75344  0  0  -0.227702  0  4.020927  0  0  -0.232869  0  4.037876  0  0  -0.10506  -0.224322  0  4.009621  0
C  C58  1  0.49514919  0.16940337  0.19751183  1  0  -0.042935  0  3.746333  0  0  -0.070678  0  4.018929  0  0  -0.068683  0  4.036808  0  0  -0.091004  -0.071782  0  4.006626  0
C  C59  1  0.50487463  0.83059083  0.80249185  1  0  -0.042668  0  3.746123  0  0  -0.07056  0  4.018722  0  0  -0.068564  0  4.036591  0  0  -0.090918  -0.071666  0  4.006418  0
C  C60  1  0.23414566  0.81472485  0.43780145  1  0  0.653538  0  3.925482  0  0  0.599098  0  4.226476  0  0  0.632931  0  4.218589  0  0  0.205967  0.576136  0  4.231082  0
C  C61  1  0.76583498  0.18527561  0.56219538  1  0  0.65346  0  3.92547  0  0  0.598962  0  4.226546  0  0  0.632795  0  4.218658  0  0  0.205876  0.575998  0  4.231152  0
C  C62  1  0.11171871  0.91046468  0.46893909  1  0  -0.06714  0  3.770411  0  0  -0.044439  0  4.006192  0  0  -0.050145  0  4.027213  0  0  -0.019938  -0.040781  0  3.992085  0
C  C63  1  0.88825852  0.08953303  0.53105319  1  0  -0.067041  0  3.770489  0  0  -0.044308  0  4.006244  0  0  -0.050014  0  4.027257  0  0  -0.019869  -0.040649  0  3.992136  0
C  C64  1  0.89453717  0.88047947  0.49783150  1  0  -0.093212  0  3.769338  0  0  -0.116692  0  4.024302  0  0  -0.11723  0  4.043239  0  0  -0.092282  -0.116269  0  4.011549  0
C  C65  1  0.10542992  0.11951120  0.50216600  1  0  -0.093243  0  3.769918  0  0  -0.116715  0  4.024804  0  0  -0.117244  0  4.043733  0  0  -0.092322  -0.116287  0  4.012043  0
C  C66  1  0.21501963  0.03077287  0.47060407  1  0  -0.069419  0  3.738212  0  0  -0.095329  0  3.991281  0  0  -0.095606  0  4.010669  0  0  -0.08709  -0.095029  0  3.978098  0
C  C67  1  0.78495380  0.96921684  0.52939005  1  0  -0.069594  0  3.738102  0  0  -0.095488  0  3.991222  0  0  -0.095767  0  4.010622  0  0  -0.087175  -0.095192  0  3.978035  0
C  C68  1  0.29609581  0.61300237  0.15686548  1  0  0.631424  0  3.921447  0  0  0.581686  0  4.213181  0  0  0.616453  0  4.204885  0  0  0.194653  0.558116  0  4.217986  0
C  C69  1  0.70388030  0.38701418  0.84313012  1  0  0.631528  0  3.921505  0  0  0.581696  0  4.213297  0  0  0.616467  0  4.204993  0  0  0.194727  0.558124  0  4.218105  0
C  C70  1  0.14018366  0.55434373  0.07647190  1  0  -0.057736  0  3.765606  0  0  -0.036579  0  3.999191  0  0  -0.042672  0  4.019825  0  0  -0.017429  -0.032616  0  3.985282  0
C  C71  1  0.85978401  0.44568010  0.92352890  1  0  -0.057733  0  3.765368  0  0  -0.036353  0  3.998634  0  0  -0.042444  0  4.01927  0  0  -0.017346  -0.032393  0  3.984726  0
C  C72  1  0.91746370  0.58218126  0.05279332  1  0  -0.07994  0  3.721509  0  0  -0.104148  0  3.97289  0  0  -0.104459  0  3.990556  0  0  -0.085589  -0.103848  0  3.960958  0
C  C73  1  0.08249007  0.41784622  0.94720970  1  0  -0.079774  0  3.72146  0  0  -0.103967  0  3.972843  0  0  -0.10427  0  3.990508  0  0  -0.085545  -0.103664  0  3.960899  0
C  C74  1  0.22093607  0.47164936  0.02355262  1  0  -0.075247  0  3.734208  0  0  -0.097998  0  3.984707  0  0  -0.098469  0  4.003489  0  0  -0.084239  -0.097571  0  3.971964  0
C  C75  1  0.77903210  0.52836821  0.97644864  1  0  -0.075335  0  3.733758  0  0  -0.098062  0  3.984245  0  0  -0.098543  0  4.003014  0  0  -0.084265  -0.097631  0  3.971507  0
N  N76  1  0.63033591  0.61229257  0.34912351  1  0  -0.411227  0  3.27237  0  0  -0.330945  0  3.585352  0  0  -0.353284  0  3.593599  0  0  -0.351016  -0.316028  0  3.579443  0
N  N77  1  0.36966806  0.38770158  0.65087351  1  0  -0.4112  0  3.27235  0  0  -0.33092  0  3.585312  0  0  -0.35325  0  3.593543  0  0  -0.351053  -0.316012  0  3.57942  0
N  N78  1  0.69835461  0.48570431  0.42951728  1  0  -0.244934  0  2.836274  0  0  -0.244707  0  3.103569  0  0  -0.252408  0  3.116466  0  0  -0.214541  -0.239454  0  3.094966  0
N  N79  1  0.30166660  0.51429607  0.57048115  1  0  -0.244863  0  2.836136  0  0  -0.244626  0  3.103446  0  0  -0.252317  0  3.116343  0  0  -0.214496  -0.239374  0  3.094835  0
N  N80  1  0.82556126  0.47579831  0.36767527  1  0  0.065466  0  3.546873  0  0  0.189648  0  3.729574  0  0  0.180167  0  3.751252  0  0  -0.127967  0.195007  0  3.716232  0
N  N81  1  0.17444750  0.52419849  0.63232109  1  0  0.065374  0  3.546898  0  0  0.189472  0  3.729551  0  0  0.179941  0  3.751318  0  0  -0.128139  0.194832  0  3.716226  0
N  N82  1  0.92752783  0.05826640  0.29321113  1  0  0.055214  0  3.537228  0  0  0.182547  0  3.711848  0  0  0.171138  0  3.737548  0  0  -0.130703  0.188589  0  3.697001  0
N  N83  1  0.07249814  0.94173225  0.70679198  1  0  0.055189  0  3.537543  0  0  0.182597  0  3.712028  0  0  0.171179  0  3.737751  0  0  -0.130719  0.188636  0  3.697179  0
N  N84  1  0.03464943  0.99070815  0.24204085  1  0  -0.260463  0  2.825627  0  0  -0.255658  0  3.084477  0  0  -0.26488  0  3.097682  0  0  -0.212376  -0.249176  0  3.075571  0
N  N85  1  0.96536595  0.00928336  0.75796159  1  0  -0.260234  0  2.825578  0  0  -0.255429  0  3.084377  0  0  -0.264649  0  3.097585  0  0  -0.212217  -0.248945  0  3.075471  0
N  N86  1  0.73087062  0.87339290  0.28218892  1  0  -0.408998  0  3.247377  0  0  -0.327989  0  3.555147  0  0  -0.350841  0  3.564862  0  0  -0.347882  -0.312637  0  3.548099  0
N  N87  1  0.26914998  0.12660217  0.71781298  1  0  -0.408873  0  3.247434  0  0  -0.327849  0  3.555189  0  0  -0.350703  0  3.564911  0  0  -0.347877  -0.312497  0  3.548137  0
O  O88  1  0.51896484  0.61471501  0.16945730  1  0  -0.614794  0  1.926674  0  0  -0.563533  0  2.157722  0  0  -0.588354  0  2.148738  0  0  -0.317606  -0.546142  0  2.163264  0
O  O89  1  0.48098823  0.38527571  0.83054082  1  0  -0.614811  0  1.926415  0  0  -0.563549  0  2.157493  0  0  -0.588367  0  2.148509  0  0  -0.317667  -0.546162  0  2.16304  0
O  O90  1  0.19342956  0.66314329  0.21254746  1  0  -0.655169  0  2.003427  0  0  -0.58436  0  2.266336  0  0  -0.613213  0  2.251511  0  0  -0.334777  -0.564061  0  2.275749  0
O  O91  1  0.80654397  0.33684842  0.78745978  1  0  -0.655217  0  2.003978  0  0  -0.584452  0  2.266979  0  0  -0.613304  0  2.252149  0  0  -0.334816  -0.564164  0  2.276406  0
O  O92  1  0.33366392  0.83119240  0.37672217  1  0  -0.64318  0  2.095873  0  0  -0.569026  0  2.377696  0  0  -0.597852  0  2.363849  0  0  -0.323936  -0.548861  0  2.386548  0
O  O93  1  0.66629982  0.16880627  0.62327203  1  0  -0.643276  0  2.096011  0  0  -0.569042  0  2.377789  0  0  -0.597872  0  2.363943  0  0  -0.323929  -0.548879  0  2.386645  0
O  O94  1  0.23407171  0.72871897  0.47349493  1  0  -0.624857  0  1.958472  0  0  -0.57331  0  2.189624  0  0  -0.596651  0  2.180473  0  0  -0.316129  -0.556859  0  2.19537  0
O  O95  1  0.76590327  0.27127785  0.52649657  1  0  -0.624741  0  1.958476  0  0  -0.573185  0  2.189646  0  0  -0.59652  0  2.180497  0  0  -0.316032  -0.556731  0  2.195391  0
O  O96  1  0.65253904  0.22157499  0.36082981  1  0  -0.582189  0  2.03103  0  0  -0.538056  0  2.259763  0  0  -0.554267  0  2.249094  0  0  -0.391021  -0.52622  0  2.266757  0
O  O97  1  0.34748003  0.77842093  0.63916920  1  0  -0.582131  0  2.030907  0  0  -0.538031  0  2.259831  0  0  -0.554221  0  2.249106  0  0  -0.391039  -0.526195  0  2.266823  0
F  F98  1  0.07701319  0.37059162  0.19913718  1  0  -0.214126  0  1.219324  0  0  -0.146365  0  1.369323  0  0  -0.157411  0  1.362205  0  0  -0.089922  -0.138368  0  1.374098  0
F  F99  1  0.92301242  0.62939979  0.80086098  1  0  -0.214116  0  1.219172  0  0  -0.146395  0  1.369209  0  0  -0.157436  0  1.36209  0  0  -0.089852  -0.138396  0  1.373986  0
F  F100  1  0.41442378  0.18730664  0.98541068  1  0  -0.211958  0  1.156936  0  0  -0.156372  0  1.295736  0  0  -0.165765  0  1.286774  0  0  -0.105213  -0.149494  0  1.301812  0
F  F101  1  0.58557745  0.81271633  0.01459779  1  0  -0.211849  0  1.156653  0  0  -0.156294  0  1.29548  0  0  -0.16568  0  1.286518  0  0  -0.105116  -0.149416  0  1.301559  0
