# generated using pymatgen
data_ZnH16C20NO5
_symmetry_space_group_name_H-M   'P 1'
_cell_length_a   10.87728185
_cell_length_b   16.48689331
_cell_length_c   17.63441594
_cell_angle_alpha   90.17409516
_cell_angle_beta   90.63215576
_cell_angle_gamma   89.67403925
_symmetry_Int_Tables_number   1
_chemical_formula_structural   ZnH16C20NO5
_chemical_formula_sum   'Zn2 H32 C40 N2 O10'
_cell_volume   3162.16774324
_cell_formula_units_Z   2
loop_
 _symmetry_equiv_pos_site_id
 _symmetry_equiv_pos_as_xyz
  1  'x, y, z'
loop_
 _atom_site_type_symbol
 _atom_site_label
 _atom_site_symmetry_multiplicity
 _atom_site_fract_x
 _atom_site_fract_y
 _atom_site_fract_z
 _atom_site_occupancy
 _atom_site_pbe_bader_charge
 _atom_site_pbe_bader_spin_density
 _atom_site_pbe_cm5_charge
 _atom_site_pbe_ddec_charge
 _atom_site_pbe_ddec_spin_density
 _atom_site_pbe_ddec_sum_bond_order
 _atom_site_pbe_magmom
Zn  Zn0  1  0.51131271  0.41566564  0.50271806  1  1.269784  0  0.663386  0.80709  0  2.457259  0
Zn  Zn1  1  0.51252043  0.58249264  0.49867557  1  1.288422  0  0.663565  0.808381  0  2.439604  0
H  H2  1  0.11343864  0.38257767  0.54755016  1  0.03112  0  0.090443  0.094575  0  0.995641  0
H  H3  1  0.66875482  0.71326827  0.56237888  1  0.147865  0  0.129953  0.106002  0  0.978535  0
H  H4  1  0.65252899  0.13074457  0.58327073  1  0.078982  0  0.11799  0.126903  0  0.978884  0
H  H5  1  0.66790251  0.86608982  0.56856100  1  0.097293  0  0.116918  0.125666  0  0.980233  0
H  H6  1  0.13011303  0.38370429  0.44840900  1  0.02301  0  0.085933  0.082828  0  0.991347  0
H  H7  1  0.10449215  0.51681978  0.37981090  1  -0.0063  0  0.09036  0.089489  0  0.973298  0
H  H8  1  0.91676887  0.39450143  0.42756392  1  0.024761  0  0.087459  0.086537  0  0.979241  0
H  H9  1  0.89222721  0.54157650  0.38381919  1  0.044225  0  0.092388  0.092668  0  0.972885  0
H  H10  1  0.90089456  0.37021932  0.52403713  1  0.018517  0  0.084835  0.082375  0  0.99488  0
H  H11  1  0.90898817  0.61889436  0.45243013  1  0.035856  0  0.086758  0.084345  0  0.99963  0
H  H12  1  0.92399600  0.48236824  0.62089651  1  0.038373  0  0.100935  0.118059  0  0.973311  0
H  H13  1  0.12178855  0.60948353  0.42925755  1  0.021248  0  0.089341  0.089793  0  1.008724  0
H  H14  1  0.89225895  0.58361752  0.59398131  1  0.025164  0  0.094437  0.105262  0  1.030858  0
H  H15  1  0.40108395  0.37101566  0.87723541  1  0.066338  0  0.102418  0.104435  0  0.994212  0
H  H16  1  0.39838931  0.63253865  0.87421470  1  0.033166  0  0.101866  0.103768  0  0.994595  0
H  H17  1  0.45644774  0.36959511  0.73962749  1  0.078567  0  0.104531  0.108641  0  0.999015  0
H  H18  1  0.45049302  0.62936148  0.73609566  1  0.08739  0  0.103979  0.107926  0  1.000905  0
H  H19  1  0.39447467  0.37010163  0.12042445  1  0.098054  0  0.102305  0.104468  0  0.993934  0
H  H20  1  0.41094926  0.63130872  0.12580641  1  0.049062  0  0.102455  0.104447  0  0.993702  0
H  H21  1  0.02662020  0.53222975  0.72302029  1  0.012289  0  0.086505  0.074709  0  1.012454  0
H  H22  1  0.16382102  0.59246619  0.71640337  1  0.065443  0  0.089209  0.084389  0  1.0134  0
H  H23  1  0.17368157  0.48985930  0.74769668  1  0.057183  0  0.099236  0.106577  0  0.996818  0
H  H24  1  0.44524015  0.36652635  0.25927276  1  0.085095  0  0.101928  0.105277  0  1.004693  0
H  H25  1  0.96163347  0.70076793  0.56693951  1  0.031101  0  0.086005  0.076362  0  1.014479  0
H  H26  1  0.09906171  0.74110308  0.60864612  1  0.066176  0  0.099567  0.10073  0  0.982131  0
H  H27  1  0.00728159  0.67221150  0.66120803  1  0.035781  0  0.090147  0.078947  0  1.02082  0
H  H28  1  0.46478380  0.62601771  0.26425566  1  0.074725  0  0.102965  0.107533  0  1.003094  0
H  H29  1  0.34936667  0.13794420  0.42223202  1  0.102132  0  0.118572  0.128147  0  0.977291  0
H  H30  1  0.33450912  0.86188623  0.43227968  1  0.099132  0  0.117934  0.126575  0  0.977748  0
H  H31  1  0.36310262  0.29043382  0.42665476  1  0.125313  0  0.13279  0.10902  0  0.970257  0
H  H32  1  0.34751708  0.70906377  0.43548395  1  0.147498  0  0.134143  0.113378  0  0.972266  0
H  H33  1  0.65155892  0.28346760  0.58092215  1  0.131365  0  0.133719  0.109143  0  0.960898  0
C  C34  1  0.49209530  0.49364820  0.35239203  1  1.555578  0  0.208696  0.58589  0  4.182196  0
C  C35  1  0.38365617  0.50262210  0.03407798  1  -0.029553  0  -0.048838  -0.112802  0  4.129308  0
C  C36  1  0.40884357  0.42605861  0.15230873  1  -0.054735  0  -0.087953  -0.132904  0  3.96248  0
C  C37  1  0.41846454  0.57340909  0.15523529  1  0.024522  0  -0.087215  -0.132254  0  3.960191  0
C  C38  1  0.43745452  0.42401425  0.22922157  1  -0.011391  0  -0.086889  -0.093597  0  4.00394  0
C  C39  1  0.44823750  0.57059800  0.23197367  1  -0.088527  0  -0.085696  -0.091841  0  3.998628  0
C  C40  1  0.45913507  0.49604551  0.26963992  1  -0.017301  0  -0.016628  -0.026175  0  3.954602  0
C  C41  1  0.27293151  0.50329454  0.49949576  1  1.548521  0  0.221978  0.605046  0  4.087981  0
C  C42  1  0.40058310  0.50092583  0.11370989  1  0.077557  0  -0.000517  0.142048  0  4.119243  0
C  C43  1  0.41766620  0.16787831  0.45799891  1  0.002113  0  -0.069801  -0.172089  0  3.908686  0
C  C44  1  0.40966255  0.83125746  0.46201011  1  -0.018848  0  -0.069258  -0.170093  0  3.908832  0
C  C45  1  0.94218416  0.52852873  0.57762541  1  -0.018892  0  -0.165813  -0.316355  0  3.832431  0
C  C46  1  0.42460099  0.25188600  0.46018239  1  0.479549  0  0.066893  0.110963  0  3.910625  0
C  C47  1  0.41676631  0.74715751  0.46285526  1  0.489192  0  0.067231  0.11001  0  3.905836  0
C  C48  1  0.58703792  0.24807946  0.54673125  1  0.441294  0  0.066328  0.106816  0  3.920776  0
C  C49  1  0.59663657  0.74946539  0.53514820  1  0.496626  0  0.063401  0.103446  0  3.925961  0
C  C50  1  0.58695751  0.16391600  0.54788677  1  0.090769  0  -0.070302  -0.171707  0  3.911332  0
C  C51  1  0.59594486  0.83357406  0.53795576  1  -0.02916  0  -0.071734  -0.172786  0  3.916067  0
C  C52  1  0.50070230  0.12192818  0.50250118  1  0.04358  0  0.021135  0.175691  0  4.107582  0
C  C53  1  0.50093177  0.87640212  0.50027818  1  0.155782  0  0.020354  0.173304  0  4.111563  0
C  C54  1  0.49847723  0.03615287  0.50159735  1  0.025195  0  -0.029019  -0.091708  0  4.082633  0
C  C55  1  0.49838222  0.96219525  0.50090990  1  -0.390644  0  -0.0289  -0.091153  0  4.083748  0
C  C56  1  0.41244853  0.42750153  0.84618047  1  -0.050278  0  -0.08746  -0.136067  0  3.964443  0
C  C57  1  0.49460849  0.49816660  0.64851431  1  1.55867  0  0.211441  0.592789  0  4.173003  0
C  C58  1  0.75120178  0.50068239  0.50162167  1  1.543168  0  0.222572  0.595767  0  4.087168  0
C  C59  1  0.08446997  0.41446161  0.49585509  1  -0.007889  0  -0.168741  -0.176107  0  3.900621  0
C  C60  1  0.07877743  0.54967012  0.43174977  1  0.031792  0  -0.163465  -0.168686  0  3.8905  0
C  C61  1  0.94341884  0.41357546  0.48523228  1  -0.023224  0  -0.167987  -0.179185  0  3.89881  0
C  C62  1  0.93751092  0.55671994  0.43808112  1  -0.061055  0  -0.160105  -0.177172  0  3.868129  0
C  C63  1  0.08304822  0.54208742  0.57430309  1  0.926053  0  0.166302  0.398229  0  3.757793  0
C  C64  1  0.13207228  0.50228067  0.49983012  1  0.074865  0  -0.013985  -0.071131  0  3.758442  0
C  C65  1  0.89164618  0.49881949  0.50031370  1  0.065361  0  -0.016527  0.044085  0  3.800032  0
C  C66  1  0.12537156  0.53127636  0.70886574  1  0.391232  0  -0.149574  -0.16009  0  3.973391  0
C  C67  1  0.41072060  0.57503879  0.84449427  1  -0.042177  0  -0.087257  -0.135855  0  3.964748  0
C  C68  1  0.04128180  0.68680470  0.60423515  1  0.389709  0  -0.146137  -0.161927  0  4.001207  0
C  C69  1  0.44352516  0.42661596  0.76999179  1  -0.014791  0  -0.083733  -0.089414  0  3.99335  0
C  C70  1  0.44053831  0.57341083  0.76813129  1  -0.062045  0  -0.082889  -0.090214  0  3.999379  0
C  C71  1  0.45961453  0.49941777  0.73047804  1  0.013399  0  -0.012362  -0.021868  0  3.941266  0
C  C72  1  0.39862600  0.50192344  0.88527708  1  0.115446  0  -0.001012  0.139909  0  4.123928  0
C  C73  1  0.38263982  0.50284376  0.96478481  1  -0.320248  0  -0.04922  -0.113952  0  4.13008  0
N  N74  1  0.50777055  0.29106619  0.50354417  1  -1.206713  0  -0.311432  -0.183022  0  3.49882  0
N  N75  1  0.50887482  0.70722364  0.49834377  1  -1.247698  0  -0.310691  -0.181283  0  3.496513  0
O  O76  1  0.48247352  0.42554359  0.38582650  1  -1.166115  0  -0.322463  -0.556708  0  2.312906  0
O  O77  1  0.11867640  0.62569317  0.57315495  1  -1.035458  0  -0.22414  -0.245365  0  2.491396  0
O  O78  1  0.52625064  0.56000054  0.38319812  1  -1.168828  0  -0.324648  -0.554719  0  2.307419  0
O  O79  1  0.32776479  0.43671234  0.51421569  1  -1.168329  0  -0.314344  -0.544435  0  2.367848  0
O  O80  1  0.32566694  0.56951394  0.48311460  1  -1.164188  0  -0.313789  -0.546207  0  2.353599  0
O  O81  1  0.52632491  0.43015683  0.61997415  1  -1.16919  0  -0.326481  -0.560026  0  2.295548  0
O  O82  1  0.48933775  0.56568416  0.61353896  1  -1.161871  0  -0.319933  -0.550152  0  2.320813  0
O  O83  1  0.69505948  0.43396690  0.49144552  1  -1.169392  0  -0.315859  -0.54482  0  2.347576  0
O  O84  1  0.70006542  0.56948419  0.51237216  1  -1.183358  0  -0.322468  -0.557734  0  2.327367  0
O  O85  1  0.14651160  0.50107434  0.63440519  1  -1.042202  0  -0.226038  -0.256835  0  2.494093  0
