# generated using pymatgen
data_ZnH12C14(N3O2)2
_symmetry_space_group_name_H-M   'P 1'
_cell_length_a   6.98445816
_cell_length_b   9.21267828
_cell_length_c   12.10750147
_cell_angle_alpha   90.00005399
_cell_angle_beta   90.00012353
_cell_angle_gamma   105.18715076
_symmetry_Int_Tables_number   1
_chemical_formula_structural   ZnH12C14(N3O2)2
_chemical_formula_sum   'Zn2 H24 C28 N12 O8'
_cell_volume   751.85543309
_cell_formula_units_Z   2
loop_
 _symmetry_equiv_pos_site_id
 _symmetry_equiv_pos_as_xyz
  1  'x, y, z'
loop_
 _atom_site_type_symbol
 _atom_site_label
 _atom_site_symmetry_multiplicity
 _atom_site_fract_x
 _atom_site_fract_y
 _atom_site_fract_z
 _atom_site_occupancy
 _atom_site_hle17_bader_spin_density
 _atom_site_hle17_ddec_charge
 _atom_site_hle17_ddec_spin_density
 _atom_site_hle17_ddec_sum_bond_order
 _atom_site_hle17_magmom
 _atom_site_hse06_10hf_bader_spin_density
 _atom_site_hse06_10hf_ddec_charge
 _atom_site_hse06_10hf_ddec_spin_density
 _atom_site_hse06_10hf_ddec_sum_bond_order
 _atom_site_hse06_10hf_magmom
 _atom_site_hse06_bader_spin_density
 _atom_site_hse06_ddec_charge
 _atom_site_hse06_ddec_spin_density
 _atom_site_hse06_ddec_sum_bond_order
 _atom_site_hse06_magmom
 _atom_site_pbe_bader_spin_density
 _atom_site_pbe_cm5_charge
 _atom_site_pbe_ddec_charge
 _atom_site_pbe_ddec_spin_density
 _atom_site_pbe_ddec_sum_bond_order
 _atom_site_pbe_magmom
Zn  Zn0  1  0.09871759  0.74058605  0.30218736  1  0  1.010906  0  1.862122  0  0  0.814212  0  2.348306  0  0  0.861159  0  2.292267  0  0  0.709246  0.781511  0  2.387362  0
Zn  Zn1  1  0.90128327  0.25941484  0.80218928  1  0  1.010921  0  1.862157  0  0  0.814205  0  2.348345  0  0  0.861159  0  2.292303  0  0  0.709225  0.781501  0  2.387408  0
H  H2  1  0.74422713  0.22804959  0.23872775  1  0  0.10278  0  0.902483  0  0  0.120581  0  0.956525  0  0  0.12054  0  0.95771  0  0  0.124842  0.120655  0  0.955553  0
H  H3  1  0.25577267  0.77194892  0.73872758  1  0  0.102764  0  0.902545  0  0  0.120576  0  0.956595  0  0  0.120534  0  0.95778  0  0  0.124845  0.120655  0  0.955626  0
H  H4  1  0.85963768  0.33879730  0.35170576  1  0  0.109564  0  0.947877  0  0  0.118794  0  1.016719  0  0  0.12119  0  1.01384  0  0  0.119847  0.116979  0  1.01867  0
H  H5  1  0.14036041  0.66119920  0.85170619  1  0  0.109567  0  0.947807  0  0  0.118812  0  1.016655  0  0  0.121209  0  1.013776  0  0  0.119851  0.117002  0  1.018608  0
H  H6  1  0.49659364  0.27335504  0.37254465  1  0  0.097462  0  0.911899  0  0  0.115379  0  0.966801  0  0  0.114858  0  0.968728  0  0  0.120172  0.11574  0  0.965273  0
H  H7  1  0.50340715  0.72664488  0.87254476  1  0  0.097462  0  0.911917  0  0  0.115366  0  0.966806  0  0  0.114845  0  0.968733  0  0  0.12017  0.115732  0  0.965278  0
H  H8  1  0.47731524  0.07890276  0.35440375  1  0  0.097079  0  0.947204  0  0  0.101612  0  1.0258  0  0  0.103945  0  1.023345  0  0  0.117174  0.099882  0  1.027661  0
H  H9  1  0.52268221  0.92109599  0.85440237  1  0  0.097113  0  0.947181  0  0  0.101593  0  1.025811  0  0  0.103926  0  1.023355  0  0  0.117174  0.099867  0  1.027677  0
H  H10  1  0.78087345  0.93934442  0.23160435  1  0  0.127753  0  0.965832  0  0  0.132834  0  1.032907  0  0  0.136035  0  1.029192  0  0  0.143905  0.130427  0  1.03558  0
H  H11  1  0.21912813  0.06065520  0.73160362  1  0  0.127731  0  0.965838  0  0  0.132814  0  1.032918  0  0  0.136016  0  1.029204  0  0  0.143895  0.130407  0  1.035592  0
H  H12  1  0.08128364  0.23025043  0.48536534  1  0  0.127209  0  0.979343  0  0  0.129822  0  1.04863  0  0  0.133248  0  1.045023  0  0  0.138802  0.127287  0  1.051151  0
H  H13  1  0.91871660  0.76975085  0.98536352  1  0  0.127187  0  0.979392  0  0  0.129846  0  1.048621  0  0  0.133273  0  1.045015  0  0  0.138807  0.127314  0  1.051145  0
H  H14  1  0.82372519  0.36574092  0.55240941  1  0  0.131406  0  0.94192  0  0  0.13992  0  1.002781  0  0  0.142435  0  1.000452  0  0  0.14896  0.138229  0  1.004171  0
H  H15  1  0.17627598  0.63425945  0.05240917  1  0  0.131435  0  0.941911  0  0  0.139948  0  1.002774  0  0  0.142463  0  1.000445  0  0  0.148965  0.138257  0  1.004166  0
H  H16  1  0.39350283  0.94667411  0.53292144  1  0  0.115023  0  0.956777  0  0  0.115357  0  1.03299  0  0  0.118736  0  1.028882  0  0  0.138468  0.112635  0  1.036509  0
H  H17  1  0.60649930  0.05332509  0.03292131  1  0  0.114993  0  0.9568  0  0  0.115324  0  1.033011  0  0  0.118708  0  1.0289  0  0  0.138456  0.112602  0  1.036523  0
H  H18  1  0.56547888  0.45322263  0.79205658  1  0  0.094696  0  0.963697  0  0  0.105324  0  1.02504  0  0  0.107956  0  1.024427  0  0  0.100059  0.103325  0  1.025907  0
H  H19  1  0.43452011  0.54677711  0.29205577  1  0  0.094688  0  0.963715  0  0  0.105321  0  1.02505  0  0  0.107952  0  1.024438  0  0  0.100066  0.103328  0  1.025908  0
H  H20  1  0.88972330  0.62427674  0.74452846  1  0  0.089889  0  0.983553  0  0  0.099135  0  1.050108  0  0  0.101961  0  1.048485  0  0  0.09899  0.097024  0  1.051506  0
H  H21  1  0.11027548  0.37572291  0.24452795  1  0  0.089883  0  0.983496  0  0  0.099141  0  1.050048  0  0  0.101968  0  1.048424  0  0  0.099001  0.097032  0  1.051437  0
H  H22  1  0.92451875  0.78645850  0.57463552  1  0  0.091472  0  0.958  0  0  0.099332  0  1.02202  0  0  0.102942  0  1.020046  0  0  0.096464  0.096792  0  1.023462  0
H  H23  1  0.07547966  0.21354191  0.07463402  1  0  0.091515  0  0.957975  0  0  0.099401  0  1.021965  0  0  0.103013  0  1.019989  0  0  0.096487  0.096858  0  1.023399  0
H  H24  1  0.62677061  0.77372642  0.45829010  1  0  0.090089  0  0.966321  0  0  0.098134  0  1.031925  0  0  0.101429  0  1.03016  0  0  0.096763  0.095466  0  1.033979  0
H  H25  1  0.37322549  0.22627143  0.95828886  1  0  0.090126  0  0.966359  0  0  0.098205  0  1.031904  0  0  0.101502  0  1.030135  0  0  0.096779  0.095519  0  1.033973  0
C  C26  1  0.77174916  0.22622077  0.32778578  1  0  -0.03102  0  3.604585  0  0  -0.096319  0  3.867009  0  0  -0.092321  0  3.876601  0  0  -0.045337  -0.098694  0  3.859983  0
C  C27  1  0.22824933  0.77378130  0.82778392  1  0  -0.03097  0  3.604558  0  0  -0.09636  0  3.867022  0  0  -0.092363  0  3.876617  0  0  -0.045332  -0.098736  0  3.860003  0
C  C28  1  0.57179344  0.18425328  0.38712984  1  0  -0.015829  0  3.603751  0  0  -0.083199  0  3.867329  0  0  -0.079263  0  3.877618  0  0  -0.044652  -0.085578  0  3.859899  0
C  C29  1  0.42820780  0.81574780  0.88712992  1  0  -0.015888  0  3.603773  0  0  -0.083142  0  3.867261  0  0  -0.079204  0  3.877548  0  0  -0.044636  -0.085525  0  3.85984  0
C  C30  1  0.87849599  0.98668286  0.29953256  1  0  0.168333  0  3.610758  0  0  0.10349  0  3.869306  0  0  0.117853  0  3.880693  0  0  0.164244  0.094232  0  3.861422  0
C  C31  1  0.12150590  0.01331690  0.79953250  1  0  0.168405  0  3.610812  0  0  0.103522  0  3.869331  0  0  0.117889  0  3.88072  0  0  0.164274  0.094263  0  3.861445  0
C  C32  1  0.03281011  0.13371673  0.43080324  1  0  0.144875  0  3.61681  0  0  0.087437  0  3.89115  0  0  0.098329  0  3.903205  0  0  0.154463  0.080432  0  3.882706  0
C  C33  1  0.96719055  0.86628219  0.93080154  1  0  0.144994  0  3.616771  0  0  0.087507  0  3.891087  0  0  0.098399  0  3.90314  0  0  0.154543  0.080501  0  3.882641  0
C  C34  1  0.72269596  0.25856521  0.57535046  1  0  0.170894  0  3.604005  0  0  0.10553  0  3.868475  0  0  0.118914  0  3.881407  0  0  0.168147  0.096928  0  3.859688  0
C  C35  1  0.27730531  0.74143521  0.07534959  1  0  0.170784  0  3.604024  0  0  0.105409  0  3.868519  0  0  0.11879  0  3.881452  0  0  0.168115  0.096807  0  3.859732  0
C  C36  1  0.50506640  0.04102419  0.56724040  1  0  0.15826  0  3.639899  0  0  0.09922  0  3.921822  0  0  0.110613  0  3.932784  0  0  0.15909  0.091255  0  3.915566  0
C  C37  1  0.49493484  0.95897621  0.06723913  1  0  0.158283  0  3.639947  0  0  0.099248  0  3.921878  0  0  0.110633  0  3.932839  0  0  0.159099  0.091283  0  3.91561  0
C  C38  1  0.43070303  0.60532072  0.55724180  1  0  -0.103402  0  3.747744  0  0  -0.0863  0  3.977111  0  0  -0.094247  0  3.999916  0  0  -0.024189  -0.081145  0  3.961407  0
C  C39  1  0.56929387  0.39467965  0.05724104  1  0  -0.10337  0  3.747799  0  0  -0.08621  0  3.977114  0  0  -0.094157  0  3.99992  0  0  -0.024169  -0.081061  0  3.961405  0
C  C40  1  0.41429100  0.51277775  0.65098446  1  0  -0.042068  0  3.725715  0  0  -0.027462  0  3.957209  0  0  -0.029356  0  3.97597  0  0  -0.00862  -0.02626  0  3.944764  0
C  C41  1  0.58570918  0.48722282  0.15098297  1  0  -0.042076  0  3.725625  0  0  -0.027531  0  3.957173  0  0  -0.029426  0  3.975936  0  0  -0.008619  -0.026324  0  3.944726  0
C  C42  1  0.57977202  0.52469718  0.71911093  1  0  -0.110623  0  3.763687  0  0  -0.129904  0  4.012826  0  0  -0.132977  0  4.033097  0  0  -0.09648  -0.127727  0  3.999758  0
C  C43  1  0.42022560  0.47530354  0.21911005  1  0  -0.110636  0  3.763703  0  0  -0.129905  0  4.012859  0  0  -0.132977  0  4.033132  0  0  -0.096506  -0.127734  0  3.999789  0
C  C44  1  0.76243874  0.62235325  0.69238715  1  0  -0.057064  0  3.764874  0  0  -0.075792  0  4.02076  0  0  -0.074967  0  4.039718  0  0  -0.092974  -0.076344  0  4.008087  0
C  C45  1  0.23756344  0.37764854  0.19238515  1  0  -0.057036  0  3.764843  0  0  -0.07578  0  4.020735  0  0  -0.074956  0  4.039694  0  0  -0.092977  -0.076336  0  4.008058  0
C  C46  1  0.78169202  0.71141097  0.59754930  1  0  -0.073572  0  3.766436  0  0  -0.088029  0  4.020922  0  0  -0.09031  0  4.040245  0  0  -0.098476  -0.086586  0  4.007853  0
C  C47  1  0.21830649  0.28858949  0.09754803  1  0  -0.073625  0  3.766441  0  0  -0.088108  0  4.020947  0  0  -0.090388  0  4.04027  0  0  -0.098506  -0.08667  0  4.007866  0
C  C48  1  0.61581506  0.70386280  0.53178913  1  0  -0.071479  0  3.758874  0  0  -0.094424  0  4.008626  0  0  -0.094006  0  4.029075  0  0  -0.091014  -0.094572  0  3.995236  0
C  C49  1  0.38418133  0.29613639  0.03178808  1  0  -0.071548  0  3.759002  0  0  -0.094526  0  4.008734  0  0  -0.09411  0  4.029186  0  0  -0.091047  -0.094663  0  3.995355  0
C  C50  1  0.25523978  0.60040046  0.48372941  1  0  0.641158  0  3.936082  0  0  0.592815  0  4.230172  0  0  0.626744  0  4.222482  0  0  0.201726  0.56998  0  4.2344  0
C  C51  1  0.74475825  0.39959857  0.98372876  1  0  0.641111  0  3.936085  0  0  0.592755  0  4.230177  0  0  0.626684  0  4.22249  0  0  0.201666  0.569927  0  4.234394  0
C  C52  1  0.23034561  0.39361999  0.68172806  1  0  0.662633  0  3.922624  0  0  0.608902  0  4.224022  0  0  0.643684  0  4.213798  0  0  0.205816  0.585144  0  4.230337  0
C  C53  1  0.76965614  0.60638065  0.18172688  1  0  0.662692  0  3.922539  0  0  0.608954  0  4.22397  0  0  0.643736  0  4.213747  0  0  0.205848  0.585193  0  4.230288  0
N  N54  1  0.00720584  0.92302516  0.34674735  1  0  -0.276827  0  3.256313  0  0  -0.200811  0  3.564337  0  0  -0.218474  0  3.576373  0  0  -0.245418  -0.189378  0  3.556483  0
N  N55  1  0.99279769  0.07697471  0.84674677  1  0  -0.276965  0  3.256469  0  0  -0.200864  0  3.564409  0  0  -0.218542  0  3.576459  0  0  -0.245422  -0.189414  0  3.556532  0
N  N56  1  0.10467724  0.01511699  0.43027547  1  0  -0.225676  0  2.936599  0  0  -0.205027  0  3.219021  0  0  -0.213439  0  3.234187  0  0  -0.223528  -0.19926  0  3.208752  0
N  N57  1  0.89532667  0.98488306  0.93027377  1  0  -0.225642  0  2.9366  0  0  -0.205036  0  3.219038  0  0  -0.213445  0  3.234209  0  0  -0.22357  -0.199266  0  3.208755  0
N  N58  1  0.89015634  0.12007015  0.35042137  1  0  -0.090113  0  3.536852  0  0  0.003653  0  3.762385  0  0  -0.013456  0  3.787308  0  0  -0.232829  0.014957  0  3.74521  0
N  N59  1  0.10984291  0.87992972  0.85042109  1  0  -0.090228  0  3.53688  0  0  0.003593  0  3.762403  0  0  -0.013516  0  3.787325  0  0  -0.232894  0.014893  0  3.745237  0
N  N60  1  0.70997830  0.19429945  0.67372911  1  0  -0.272911  0  3.249278  0  0  -0.201117  0  3.56185  0  0  -0.218289  0  3.574064  0  0  -0.244669  -0.189525  0  3.554178  0
N  N61  1  0.29002667  0.80570230  0.17372830  1  0  -0.272787  0  3.249338  0  0  -0.200988  0  3.561892  0  0  -0.21816  0  3.574108  0  0  -0.244595  -0.189391  0  3.554206  0
N  N62  1  0.57162853  0.05641626  0.66958444  1  0  -0.236389  0  2.925454  0  0  -0.216853  0  3.207866  0  0  -0.225232  0  3.2229  0  0  -0.228587  -0.21117  0  3.198142  0
N  N63  1  0.42837421  0.94358323  0.16958308  1  0  -0.236442  0  2.925498  0  0  -0.216915  0  3.207922  0  0  -0.225294  0  3.222957  0  0  -0.22865  -0.211232  0  3.198186  0
N  N64  1  0.59558108  0.16466700  0.50562663  1  0  -0.08445  0  3.525029  0  0  0.009492  0  3.750272  0  0  -0.006607  0  3.77356  0  0  -0.23053  0.020165  0  3.734209  0
N  N65  1  0.40441883  0.83533439  0.00562682  1  0  -0.084383  0  3.525009  0  0  0.009547  0  3.750212  0  0  -0.00655  0  3.7735  0  0  -0.230498  0.020219  0  3.73415  0
O  O66  1  0.27512588  0.72026812  0.42338836  1  0  -0.659667  0  2.077527  0  0  -0.582923  0  2.362221  0  0  -0.610886  0  2.343904  0  0  -0.337722  -0.563247  0  2.374075  0
O  O67  1  0.72487149  0.27972965  0.92338760  1  0  -0.659619  0  2.077499  0  0  -0.58287  0  2.362178  0  0  -0.610835  0  2.343865  0  0  -0.337679  -0.563194  0  2.374026  0
O  O68  1  0.10800944  0.48853532  0.48308587  1  0  -0.612944  0  1.945942  0  0  -0.566471  0  2.173262  0  0  -0.58917  0  2.164801  0  0  -0.317766  -0.550763  0  2.1786  0
O  O69  1  0.89199002  0.51146371  0.98308631  1  0  -0.612942  0  1.945939  0  0  -0.566471  0  2.173267  0  0  -0.589171  0  2.164808  0  0  -0.317752  -0.550769  0  2.178606  0
O  O70  1  0.21138918  0.26270597  0.64749055  1  0  -0.614891  0  1.952554  0  0  -0.570215  0  2.184651  0  0  -0.594164  0  2.176495  0  0  -0.314881  -0.553013  0  2.189294  0
O  O71  1  0.78861241  0.73729460  0.14748948  1  0  -0.614943  0  1.952588  0  0  -0.57023  0  2.184642  0  0  -0.594173  0  2.176483  0  0  -0.314889  -0.553036  0  2.189308  0
O  O72  1  0.11144044  0.43353149  0.75084630  1  0  -0.652547  0  2.045751  0  0  -0.576133  0  2.322198  0  0  -0.605414  0  2.305874  0  0  -0.329511  -0.555792  0  2.332826  0
O  O73  1  0.88855837  0.56646817  0.25084524  1  0  -0.652562  0  2.045725  0  0  -0.576144  0  2.322174  0  0  -0.605424  0  2.305849  0  0  -0.329521  -0.555802  0  2.3328  0
