# generated using pymatgen
data_ZnH12C14(NO3)2
_symmetry_space_group_name_H-M   'P 1'
_cell_length_a   4.88463427
_cell_length_b   11.41361902
_cell_length_c   12.16188411
_cell_angle_alpha   91.93315145
_cell_angle_beta   90.05433571
_cell_angle_gamma   102.39143461
_symmetry_Int_Tables_number   1
_chemical_formula_structural   ZnH12C14(NO3)2
_chemical_formula_sum   'Zn2 H24 C28 N4 O12'
_cell_volume   661.84592057
_cell_formula_units_Z   2
loop_
 _symmetry_equiv_pos_site_id
 _symmetry_equiv_pos_as_xyz
  1  'x, y, z'
loop_
 _atom_site_type_symbol
 _atom_site_label
 _atom_site_symmetry_multiplicity
 _atom_site_fract_x
 _atom_site_fract_y
 _atom_site_fract_z
 _atom_site_occupancy
 _atom_site_hle17_bader_spin_density
 _atom_site_hle17_ddec_charge
 _atom_site_hle17_ddec_spin_density
 _atom_site_hle17_ddec_sum_bond_order
 _atom_site_hle17_magmom
 _atom_site_hse06_10hf_bader_spin_density
 _atom_site_hse06_10hf_ddec_charge
 _atom_site_hse06_10hf_ddec_spin_density
 _atom_site_hse06_10hf_ddec_sum_bond_order
 _atom_site_hse06_10hf_magmom
 _atom_site_hse06_bader_spin_density
 _atom_site_hse06_ddec_charge
 _atom_site_hse06_ddec_spin_density
 _atom_site_hse06_ddec_sum_bond_order
 _atom_site_hse06_magmom
 _atom_site_pbe_bader_spin_density
 _atom_site_pbe_cm5_charge
 _atom_site_pbe_ddec_charge
 _atom_site_pbe_ddec_spin_density
 _atom_site_pbe_ddec_sum_bond_order
 _atom_site_pbe_magmom
Zn  Zn0  1  0.93908204  0.00004399  0.24988106  1  0  1.229615  0  1.640427  0  0  1.053651  0  2.108419  0  0  1.104381  0  2.042547  0  0  0.697829  1.017578  0  2.15433  0
Zn  Zn1  1  0.06092231  0.99995792  0.75011747  1  0  1.229655  0  1.640395  0  0  1.05368  0  2.108378  0  0  1.104405  0  2.042506  0  0  0.697835  1.0176  0  2.154287  0
H  H2  1  0.43813477  0.10392503  0.31447268  1  0  0.424626  0  0.885827  0  0  0.391747  0  0.953155  0  0  0.402221  0  0.938033  0  0  0.293758  0.384357  0  0.963819  0
H  H3  1  0.33392538  0.89602602  0.18548634  1  0  0.424716  0  0.885365  0  0  0.391798  0  0.952833  0  0  0.40224  0  0.937761  0  0  0.293898  0.384423  0  0.963476  0
H  H4  1  0.56186505  0.89607599  0.68552665  1  0  0.424647  0  0.885794  0  0  0.391769  0  0.953121  0  0  0.402247  0  0.937995  0  0  0.293773  0.384377  0  0.963788  0
H  H5  1  0.66607694  0.10397590  0.81451301  1  0  0.424724  0  0.885354  0  0  0.391766  0  0.952864  0  0  0.402207  0  0.937794  0  0  0.293891  0.384394  0  0.9635  0
H  H6  1  0.84361798  0.66867673  0.60363191  1  0  0.108965  0  0.960536  0  0  0.115311  0  1.029697  0  0  0.118629  0  1.027694  0  0  0.107225  0.1129  0  1.031303  0
H  H7  1  0.17382767  0.33125780  0.89633120  1  0  0.107986  0  0.961879  0  0  0.114283  0  1.031207  0  0  0.117604  0  1.029196  0  0  0.106907  0.111878  0  1.032806  0
H  H8  1  0.15639003  0.33132429  0.39636742  1  0  0.109002  0  0.96045  0  0  0.11534  0  1.02964  0  0  0.118658  0  1.027635  0  0  0.107239  0.112929  0  1.031244  0
H  H9  1  0.82616991  0.66873875  0.10366887  1  0  0.107943  0  0.961875  0  0  0.114245  0  1.031193  0  0  0.117568  0  1.029183  0  0  0.106908  0.11184  0  1.032793  0
H  H10  1  0.27043718  0.81956957  0.56067244  1  0  0.098849  0  0.973719  0  0  0.110286  0  1.034915  0  0  0.113718  0  1.032336  0  0  0.107373  0.107789  0  1.036803  0
H  H11  1  0.45028002  0.18063120  0.93914937  1  0  0.09875  0  0.972732  0  0  0.110507  0  1.033532  0  0  0.113935  0  1.030951  0  0  0.10715  0.108003  0  1.035425  0
H  H12  1  0.72956079  0.18043596  0.43932779  1  0  0.098877  0  0.973718  0  0  0.110318  0  1.0349  0  0  0.113751  0  1.032319  0  0  0.10738  0.107823  0  1.036789  0
H  H13  1  0.54971599  0.81936631  0.06085482  1  0  0.09877  0  0.972636  0  0  0.110518  0  1.033454  0  0  0.113944  0  1.030871  0  0  0.107165  0.108018  0  1.035348  0
H  H14  1  0.24296770  0.67928999  0.22641953  1  0  0.101432  0  0.95511  0  0  0.106983  0  1.02507  0  0  0.110655  0  1.02194  0  0  0.105671  0.104318  0  1.027377  0
H  H15  1  0.56355284  0.32032004  0.27362789  1  0  0.101608  0  0.955038  0  0  0.107131  0  1.025042  0  0  0.110802  0  1.021924  0  0  0.105642  0.104465  0  1.027333  0
H  H16  1  0.75704280  0.32071193  0.77357981  1  0  0.101492  0  0.955075  0  0  0.107021  0  1.025043  0  0  0.110692  0  1.021913  0  0  0.105705  0.104356  0  1.02735  0
H  H17  1  0.43644654  0.67968011  0.72637306  1  0  0.10162  0  0.955018  0  0  0.107132  0  1.025043  0  0  0.110803  0  1.021924  0  0  0.105634  0.104466  0  1.027335  0
H  H18  1  0.81092503  0.52952121  0.26868972  1  0  0.099813  0  0.976062  0  0  0.105578  0  1.048364  0  0  0.10861  0  1.046958  0  0  0.103971  0.103412  0  1.049456  0
H  H19  1  0.28106291  0.46994706  0.23141358  1  0  0.100613  0  0.975823  0  0  0.10646  0  1.048021  0  0  0.109508  0  1.046608  0  0  0.103908  0.104287  0  1.049107  0
H  H20  1  0.18908822  0.47047802  0.73130958  1  0  0.099762  0  0.976157  0  0  0.105593  0  1.048354  0  0  0.108625  0  1.046948  0  0  0.103956  0.103426  0  1.049446  0
H  H21  1  0.71893893  0.53005392  0.76858328  1  0  0.100574  0  0.975762  0  0  0.106424  0  1.047966  0  0  0.109471  0  1.046556  0  0  0.103894  0.104251  0  1.049053  0
H  H22  1  0.27116162  0.08089122  0.43196050  1  0  0.455871  0  0.840573  0  0  0.421578  0  0.907946  0  0  0.433239  0  0.891228  0  0  0.297599  0.413366  0  0.919682  0
H  H23  1  0.18983120  0.91897412  0.06796479  1  0  0.455727  0  0.840586  0  0  0.421285  0  0.908301  0  0  0.43295  0  0.891566  0  0  0.297477  0.413057  0  0.920079  0
H  H24  1  0.72884069  0.91911070  0.56803885  1  0  0.455833  0  0.840625  0  0  0.421565  0  0.90796  0  0  0.433227  0  0.891243  0  0  0.297579  0.413354  0  0.919695  0
H  H25  1  0.81016451  0.08102689  0.93203371  1  0  0.455734  0  0.840575  0  0  0.421286  0  0.908301  0  0  0.432952  0  0.891565  0  0  0.297475  0.413057  0  0.920078  0
C  C26  1  0.54234984  0.85134072  0.36494095  1  0  0.651461  0  3.883328  0  0  0.596009  0  4.175488  0  0  0.630529  0  4.169136  0  0  0.214709  0.572647  0  4.179039  0
C  C27  1  0.69125740  0.14882216  0.13507251  1  0  0.649864  0  3.883767  0  0  0.593826  0  4.176676  0  0  0.628344  0  4.170358  0  0  0.213815  0.570472  0  4.180189  0
C  C28  1  0.45765087  0.14866209  0.63505759  1  0  0.651543  0  3.883244  0  0  0.596018  0  4.175471  0  0  0.630537  0  4.169122  0  0  0.214703  0.572654  0  4.179023  0
C  C29  1  0.30873449  0.85117531  0.86492922  1  0  0.65005  0  3.883616  0  0  0.593934  0  4.176548  0  0  0.628455  0  4.170228  0  0  0.213841  0.570575  0  4.180061  0
C  C30  1  0.28711763  0.75943903  0.39112957  1  0  -0.069246  0  3.740001  0  0  -0.04636  0  3.974216  0  0  -0.055879  0  3.998985  0  0  -0.015881  -0.040135  0  3.957491  0
C  C31  1  0.52724729  0.24045210  0.10881186  1  0  -0.069984  0  3.745221  0  0  -0.046294  0  3.978487  0  0  -0.055787  0  4.003211  0  0  -0.015778  -0.040101  0  3.96178  0
C  C32  1  0.71288306  0.24056376  0.60886814  1  0  -0.069292  0  3.739997  0  0  -0.046377  0  3.974225  0  0  -0.055899  0  3.998998  0  0  -0.015867  -0.04015  0  3.957497  0
C  C33  1  0.47273963  0.75954360  0.89119148  1  0  -0.070156  0  3.745265  0  0  -0.046227  0  3.978243  0  0  -0.055721  0  4.002971  0  0  -0.015669  -0.040029  0  3.961534  0
C  C34  1  0.93225815  0.67079706  0.52152315  1  0  -0.111594  0  3.678923  0  0  -0.134208  0  3.930265  0  0  -0.137877  0  3.951064  0  0  -0.078838  -0.131831  0  3.916374  0
C  C35  1  0.26054221  0.32904077  0.97845070  1  0  -0.111411  0  3.678404  0  0  -0.133815  0  3.92997  0  0  -0.137467  0  3.950724  0  0  -0.078657  -0.131417  0  3.91606  0
C  C36  1  0.06774282  0.32920219  0.47847779  1  0  -0.111634  0  3.67883  0  0  -0.134256  0  3.930183  0  0  -0.137923  0  3.950977  0  0  -0.078861  -0.131879  0  3.916291  0
C  C37  1  0.73945377  0.67095667  0.02154939  1  0  -0.111308  0  3.678304  0  0  -0.133739  0  3.929852  0  0  -0.137397  0  3.950604  0  0  -0.078653  -0.13134  0  3.915942  0
C  C38  1  0.79952121  0.58935043  0.43847479  1  0  0.160277  0  3.800721  0  0  0.165927  0  4.048256  0  0  0.166702  0  4.073488  0  0  0.090181  0.165437  0  4.031291  0
C  C39  1  0.20949333  0.41037780  0.06154651  1  0  0.161778  0  3.798426  0  0  0.167016  0  4.046436  0  0  0.167787  0  4.071672  0  0  0.0904  0.166536  0  4.02946  0
C  C40  1  0.20048522  0.41065154  0.56152702  1  0  0.160292  0  3.800612  0  0  0.165981  0  4.048115  0  0  0.166755  0  4.07335  0  0  0.090213  0.165489  0  4.031151  0
C  C41  1  0.79049765  0.58961784  0.93845272  1  0  0.161631  0  3.79866  0  0  0.166979  0  4.046529  0  0  0.167767  0  4.071726  0  0  0.090367  0.166503  0  4.029547  0
C  C42  1  0.17302322  0.75470900  0.49733828  1  0  -0.03491  0  3.69399  0  0  -0.060398  0  3.942002  0  0  -0.059521  0  3.961373  0  0  -0.075902  -0.060734  0  3.928844  0
C  C43  1  0.41759523  0.24528863  0.00261367  1  0  -0.033417  0  3.694146  0  0  -0.059379  0  3.942032  0  0  -0.058487  0  3.961392  0  0  -0.075805  -0.059705  0  3.928861  0
C  C44  1  0.82697999  0.24529472  0.50266110  1  0  -0.034949  0  3.694095  0  0  -0.060464  0  3.942145  0  0  -0.059584  0  3.961512  0  0  -0.075942  -0.0608  0  3.928988  0
C  C45  1  0.58239941  0.75470615  0.99738801  1  0  -0.033421  0  3.694139  0  0  -0.059467  0  3.942027  0  0  -0.058572  0  3.961391  0  0  -0.075875  -0.059797  0  3.92886  0
C  C46  1  0.15530268  0.67741969  0.30883814  1  0  -0.058917  0  3.723924  0  0  -0.083  0  3.974464  0  0  -0.082249  0  3.994466  0  0  -0.082307  -0.083308  0  3.960951  0
C  C47  1  0.47741750  0.32221448  0.19119176  1  0  -0.058984  0  3.727552  0  0  -0.083017  0  3.977371  0  0  -0.082246  0  3.997308  0  0  -0.081833  -0.083315  0  3.963864  0
C  C48  1  0.84470169  0.32258226  0.69116285  1  0  -0.058917  0  3.723878  0  0  -0.082988  0  3.974438  0  0  -0.082236  0  3.994438  0  0  -0.082311  -0.083298  0  3.960924  0
C  C49  1  0.52257350  0.67778120  0.80880994  1  0  -0.058984  0  3.727498  0  0  -0.083083  0  3.977287  0  0  -0.082314  0  3.997231  0  0  -0.081895  -0.08338  0  3.96378  0
C  C50  1  0.91394449  0.59325278  0.33240066  1  0  -0.1184  0  3.693944  0  0  -0.138221  0  3.942223  0  0  -0.143155  0  3.964233  0  0  -0.078955  -0.134962  0  3.927452  0
C  C51  1  0.32009670  0.40630872  0.16770384  1  0  -0.119513  0  3.694019  0  0  -0.139697  0  3.942955  0  0  -0.144594  0  3.964874  0  0  -0.078957  -0.136446  0  3.928203  0
C  C52  1  0.08606691  0.40675093  0.66759872  1  0  -0.118427  0  3.694043  0  0  -0.138297  0  3.942323  0  0  -0.143232  0  3.964331  0  0  -0.078999  -0.135039  0  3.927552  0
C  C53  1  0.67989564  0.59368962  0.83229626  1  0  -0.119358  0  3.694022  0  0  -0.139587  0  3.942945  0  0  -0.144489  0  3.964865  0  0  -0.0789  -0.136335  0  3.928194  0
N  N54  1  0.55249005  0.50049066  0.45229858  1  0  -0.149411  0  3.003775  0  0  -0.123495  0  3.285913  0  0  -0.122919  0  3.295276  0  0  -0.139641  -0.123767  0  3.279645  0
N  N55  1  0.05235041  0.49952293  0.04768683  1  0  -0.150316  0  3.001613  0  0  -0.124338  0  3.283907  0  0  -0.123758  0  3.293284  0  0  -0.140234  -0.124639  0  3.277657  0
N  N56  1  0.44752366  0.49950948  0.54770155  1  0  -0.149565  0  3.003745  0  0  -0.123688  0  3.285916  0  0  -0.123113  0  3.295281  0  0  -0.139758  -0.123959  0  3.279647  0
N  N57  1  0.94763966  0.50047090  0.95231155  1  0  -0.150309  0  3.001688  0  0  -0.12436  0  3.283951  0  0  -0.123784  0  3.293318  0  0  -0.140219  -0.124663  0  3.2777  0
O  O58  1  0.60041818  0.86489448  0.26079406  1  0  -0.689673  0  2.096403  0  0  -0.602995  0  2.353431  0  0  -0.634377  0  2.339544  0  0  -0.319825  -0.58099  0  2.36227  0
O  O59  1  0.73573769  0.13522027  0.23925067  1  0  -0.68875  0  2.094947  0  0  -0.602417  0  2.352446  0  0  -0.633868  0  2.338628  0  0  -0.319689  -0.580411  0  2.361207  0
O  O60  1  0.39958092  0.13510921  0.73920367  1  0  -0.689696  0  2.096479  0  0  -0.602952  0  2.353512  0  0  -0.634324  0  2.339602  0  0  -0.319793  -0.580946  0  2.362344  0
O  O61  1  0.26426124  0.86477898  0.76075027  1  0  -0.688741  0  2.094842  0  0  -0.602417  0  2.352394  0  0  -0.633881  0  2.338577  0  0  -0.319666  -0.580396  0  2.361139  0
O  O62  1  0.69620057  0.91474272  0.43704756  1  0  -0.603868  0  1.994463  0  0  -0.542081  0  2.220707  0  0  -0.567602  0  2.211692  0  0  -0.293458  -0.524439  0  2.226451  0
O  O63  1  0.78242808  0.08566922  0.06306962  1  0  -0.603644  0  1.994677  0  0  -0.541477  0  2.221256  0  0  -0.566978  0  2.21223  0  0  -0.293235  -0.523734  0  2.226924  0
O  O64  1  0.30380833  0.08526008  0.56295098  1  0  -0.603931  0  1.994401  0  0  -0.542083  0  2.220633  0  0  -0.567603  0  2.211617  0  0  -0.293462  -0.524443  0  2.226378  0
O  O65  1  0.21756266  0.91433004  0.93693132  1  0  -0.603747  0  1.994608  0  0  -0.541576  0  2.221219  0  0  -0.567075  0  2.212186  0  0  -0.293278  -0.523854  0  2.226931  0
O  O66  1  0.25182409  0.07810181  0.34929856  1  0  -0.880127  0  1.935234  0  0  -0.809324  0  2.176432  0  0  -0.83272  0  2.136961  0  0  -0.584397  -0.792714  0  2.203707  0
O  O67  1  0.17336577  0.92181492  0.15061581  1  0  -0.879685  0  1.93324  0  0  -0.808771  0  2.173863  0  0  -0.832296  0  2.134682  0  0  -0.584078  -0.792184  0  2.20111  0
O  O68  1  0.74817573  0.92189921  0.65070076  1  0  -0.88012  0  1.935226  0  0  -0.809351  0  2.176425  0  0  -0.832725  0  2.136903  0  0  -0.584394  -0.792742  0  2.203702  0
O  O69  1  0.82663405  0.07818612  0.84938434  1  0  -0.879695  0  1.933217  0  0  -0.808742  0  2.173935  0  0  -0.832268  0  2.13475  0  0  -0.584059  -0.792158  0  2.201178  0
