# generated using pymatgen
data_Co3H42C66(N4O3)4
_symmetry_space_group_name_H-M   'P 1'
_cell_length_a   12.64301951
_cell_length_b   15.45016019
_cell_length_c   18.76377092
_cell_angle_alpha   106.12103661
_cell_angle_beta   90.00495553
_cell_angle_gamma   114.15924314
_symmetry_Int_Tables_number   1
_chemical_formula_structural   Co3H42C66(N4O3)4
_chemical_formula_sum   'Co6 H84 C132 N32 O24'
_cell_volume   3185.55764849
_cell_formula_units_Z   2
loop_
 _symmetry_equiv_pos_site_id
 _symmetry_equiv_pos_as_xyz
  1  'x, y, z'
loop_
 _atom_site_type_symbol
 _atom_site_label
 _atom_site_symmetry_multiplicity
 _atom_site_fract_x
 _atom_site_fract_y
 _atom_site_fract_z
 _atom_site_occupancy
 _atom_site_pbe_bader_charge
 _atom_site_pbe_bader_spin_density
 _atom_site_pbe_cm5_charge
 _atom_site_pbe_ddec_charge
 _atom_site_pbe_ddec_spin_density
 _atom_site_pbe_ddec_sum_bond_order
 _atom_site_pbe_magmom
Co  Co0  1  0.24323252  0.57789806  0.97233435  1  1.20916  2.565973  0.6741  0.818227  2.776858  2.533241  2.51
Co  Co1  1  0.66499752  0.42132068  0.52608431  1  1.207591  2.561474  0.678639  0.821861  2.768753  2.555064  2.503
Co  Co2  1  0.61772822  0.00324967  0.75391863  1  1.228323  2.57781  0.647873  0.797203  2.817529  2.456947  2.545
Co  Co3  1  0.75595941  0.42117360  0.02603294  1  1.207877  2.561305  0.678239  0.820398  2.769352  2.556957  2.503
Co  Co4  1  0.33474047  0.57767409  0.47222139  1  1.208818  2.56616  0.673966  0.817277  2.773568  2.533816  2.51
Co  Co5  1  0.38535088  0.00278245  0.25378706  1  1.223384  2.578324  0.64789  0.797325  2.816067  2.458139  2.545
H  H6  1  0.72762423  0.24813375  0.63465081  1  0.109728  0.000835  0.102819  0.109778  0.000403  1.02047  0.0
H  H7  1  0.02116276  0.53315640  0.72386024  1  0.1131  0.000173  0.106694  0.114883  2.3e-05  1.007888  0.0
H  H8  1  0.95245773  0.30479396  0.83003910  1  0.114469  0.000684  0.10216  0.100235  0.000328  1.049031  0.0
H  H9  1  0.01643014  0.61434205  0.03306297  1  0.172606  0.001008  0.121705  0.123622  0.00021  1.032146  0.001
H  H10  1  0.01080243  0.79486816  0.04407613  1  0.152814  0.000805  0.120078  0.118418  0.000354  1.049892  0.0
H  H11  1  0.34349510  0.80786267  0.99198656  1  0.117261  0.000519  0.137239  0.100961  -0.000122  1.010794  0.001
H  H12  1  0.12658341  0.97157848  0.10146343  1  0.106768  -2e-06  0.115009  0.132445  -6.2e-05  1.001233  0.0
H  H13  1  0.35820316  0.20648660  0.01713210  1  0.119707  0.000217  0.115378  0.131722  6.1e-05  1.012132  0.0
H  H14  1  0.32649720  0.90765976  0.92598048  1  0.10165  -8e-06  0.117671  0.135084  -6.7e-05  1.004524  0.0
H  H15  1  0.49565638  0.97802735  0.89186636  1  0.151885  0.000349  0.13696  0.112293  -0.000219  1.02578  0.0
H  H16  1  0.54703699  0.20077684  0.79064108  1  0.118976  0.000684  0.127596  0.129275  9.3e-05  0.992568  0.001
H  H17  1  0.40588115  0.21793665  0.90213176  1  0.138981  0.0007  0.132438  0.140379  0.00027  0.997081  0.0
H  H18  1  0.13077952  0.09088809  0.19192822  1  0.085986  8.6e-05  0.111815  0.126885  -1.6e-05  1.015862  0.0
H  H19  1  0.12272215  0.37715627  0.24647935  1  0.149544  2e-05  0.11909  0.146848  -4.4e-05  1.008197  0.0
H  H20  1  0.25059615  0.27014344  0.04277261  1  0.095193  6e-06  0.107211  0.111805  -2.1e-05  1.063126  0.0
H  H21  1  0.26895006  0.53222449  0.23476614  1  0.179823  0.000661  0.125626  0.137899  0.00022  1.035192  0.0
H  H22  1  0.29007065  0.65757447  0.14922848  1  0.118878  0.001142  0.115946  0.103879  0.00043  1.039872  0.001
H  H23  1  0.19267890  0.36612618  0.00395339  1  0.189944  0.000527  0.136088  0.101441  7.5e-05  1.061622  0.0
H  H24  1  0.93680252  0.06590988  0.24069718  1  0.109115  -1e-06  0.117916  0.116103  -7e-06  1.045599  0.0
H  H25  1  0.91701151  0.08286808  0.39215995  1  0.094273  1e-06  0.10461  0.097653  -2e-06  1.032422  0.0
H  H26  1  0.17920107  0.35048985  0.37292251  1  0.211643  -1.6e-05  0.133318  0.112887  -0.000209  1.043255  0.0
H  H27  1  0.48670732  0.75846936  0.86315966  1  0.101457  0.000842  0.101628  0.108204  0.000311  1.01756  0.0
H  H28  1  0.48376667  0.46835891  0.77757044  1  0.117743  0.000193  0.106058  0.113446  5.2e-05  1.008511  0.0
H  H29  1  0.64540609  0.68987050  0.66569606  1  0.098911  0.000637  0.102575  0.099408  0.000306  1.056639  0.0
H  H30  1  0.40249556  0.38203632  0.46308578  1  0.169373  0.001063  0.122198  0.12586  0.000258  1.034571  0.001
H  H31  1  0.21645035  0.20320610  0.45625440  1  0.149139  0.000828  0.120381  0.118529  0.000353  1.050015  0.0
H  H32  1  0.53642459  0.19204380  0.51075645  1  0.139927  0.000571  0.138995  0.104299  -9.5e-05  1.003608  0.001
H  H33  1  0.15439632  0.02822573  0.40281808  1  0.096639  1.9e-05  0.114  0.127889  -7e-06  1.005547  0.0
H  H34  1  0.15454881  0.79250986  0.48456740  1  0.11324  0.000253  0.114973  0.132285  8.2e-05  1.010004  0.0
H  H35  1  0.42147423  0.09158499  0.57603943  1  0.100963  -7e-06  0.118748  0.137453  -6.2e-05  1.003217  0.0
H  H36  1  0.52193149  0.02253798  0.60569637  1  0.191485  0.00026  0.135698  0.111581  -0.000192  1.035183  0.0
H  H37  1  0.36120058  0.80204379  0.71042644  1  0.132482  0.000554  0.124988  0.122869  4.2e-05  0.995429  0.0
H  H38  1  0.19652309  0.78185525  0.60195758  1  0.159467  0.000835  0.132797  0.141519  0.00032  0.993644  0.0
H  H39  1  0.04247699  0.91108678  0.31130043  1  0.103774  1.7e-05  0.110455  0.122924  -3.7e-05  1.012153  0.0
H  H40  1  0.74881339  0.62428050  0.25374250  1  0.149408  9e-06  0.119325  0.147032  -6.3e-05  1.00777  0.0
H  H41  1  0.98149851  0.72855950  0.45817597  1  0.117066  5e-06  0.106786  0.110527  -2.5e-05  1.061476  0.0
H  H42  1  0.73701153  0.46846290  0.26440987  1  0.177279  0.00069  0.125731  0.137171  0.000226  1.035307  0.0
H  H43  1  0.63034822  0.34227349  0.34874861  1  0.113442  0.001147  0.116574  0.105207  0.00042  1.035347  0.001
H  H44  1  0.82691478  0.63227105  0.49574848  1  0.206682  0.000566  0.137607  0.103009  0.000111  1.055732  0.001
H  H45  1  0.87333015  0.93518542  0.26042838  1  0.099375  -0.0  0.116637  0.113522  -5e-06  1.049538  0.0
H  H46  1  0.83234975  0.91633808  0.10895850  1  0.078775  -3e-06  0.103637  0.096876  -6e-06  1.035793  0.0
H  H47  1  0.83236515  0.65076020  0.12866768  1  0.168303  -3e-06  0.133415  0.111602  -0.000184  1.039666  0.0
H  H48  1  0.27160980  0.75817913  0.36307179  1  0.087945  0.000845  0.101853  0.10918  0.000313  1.017176  0.0
H  H49  1  0.98425471  0.46815284  0.27760405  1  0.116537  0.000192  0.106133  0.11365  5.3e-05  1.008061  0.0
H  H50  1  0.04419325  0.68940734  0.16551573  1  0.114386  0.000632  0.102482  0.099267  0.000307  1.057108  0.0
H  H51  1  0.97890460  0.38198790  0.96277672  1  0.180928  0.001061  0.12195  0.12565  0.00026  1.034664  0.001
H  H52  1  0.98654171  0.20338533  0.95588520  1  0.166095  0.000809  0.120459  0.119458  0.00035  1.049204  0.0
H  H53  1  0.65545944  0.19188514  0.01095270  1  0.139928  0.000569  0.138927  0.103624  -9.7e-05  1.003769  0.001
H  H54  1  0.87402801  0.02835707  0.90279525  1  0.102834  1.8e-05  0.113977  0.127569  -7e-06  1.004993  0.0
H  H55  1  0.63847227  0.79256784  0.98466980  1  0.119239  0.000251  0.115178  0.132511  8.2e-05  1.010331  0.0
H  H56  1  0.67026488  0.09146195  0.07602475  1  0.10137  -9e-06  0.118911  0.138017  -6.2e-05  1.00272  0.0
H  H57  1  0.50095310  0.02227494  0.10575516  1  0.183105  0.000252  0.135532  0.111846  -0.000192  1.035412  0.0
H  H58  1  0.44143165  0.80167528  0.21041959  1  0.12428  0.000552  0.125134  0.122767  4.2e-05  0.994895  0.0
H  H59  1  0.58593254  0.78177749  0.10200681  1  0.129706  0.000849  0.132929  0.14132  0.000319  0.994844  0.0
H  H60  1  0.86855509  0.91103372  0.81112552  1  0.104342  1.7e-05  0.110264  0.123161  -3.7e-05  1.01196  0.0
H  H61  1  0.87516379  0.62416087  0.75360724  1  0.131843  9e-06  0.1192  0.146904  -6.4e-05  1.007648  0.0
H  H62  1  0.74738757  0.72873724  0.95821143  1  0.110697  5e-06  0.106865  0.110639  -2.5e-05  1.062678  0.0
H  H63  1  0.73108279  0.46847012  0.76444171  1  0.177489  0.000689  0.125701  0.136646  0.000226  1.035592  0.0
H  H64  1  0.71138585  0.34226610  0.84878822  1  0.111018  0.001152  0.11686  0.106011  0.00042  1.035241  0.001
H  H65  1  0.80532569  0.63234404  0.99576862  1  0.202658  0.000563  0.137398  0.102621  0.000109  1.055701  0.001
H  H66  1  0.06304593  0.93452329  0.76043894  1  0.11937  -0.0  0.117028  0.114376  -5e-06  1.047249  0.0
H  H67  1  0.08484189  0.91599745  0.60900305  1  0.081734  -3e-06  0.103903  0.096654  -6e-06  1.036208  0.0
H  H68  1  0.81738824  0.65114132  0.62849436  1  0.1858  5e-06  0.133053  0.110972  -0.00018  1.040181  0.0
H  H69  1  0.52012973  0.24760551  0.13460265  1  0.107685  0.000857  0.10284  0.109808  0.000405  1.019981  0.0
H  H70  1  0.51189970  0.53269991  0.22378848  1  0.104559  0.000175  0.10681  0.115041  2.4e-05  1.007149  0.0
H  H71  1  0.35252897  0.30448649  0.33017219  1  0.122684  0.000678  0.101788  0.099804  0.00033  1.048269  0.0
H  H72  1  0.59840004  0.61411745  0.53269774  1  0.16687  0.001008  0.121471  0.123336  0.000206  1.033679  0.001
H  H73  1  0.78442906  0.79478113  0.54366339  1  0.141326  0.000816  0.119643  0.118125  0.000354  1.049976  0.0
H  H74  1  0.46435024  0.80746743  0.49200577  1  0.139901  0.000524  0.137619  0.10143  -0.000119  1.010453  0.001
H  H75  1  0.84479224  0.97134774  0.60134648  1  0.104483  -3e-06  0.115525  0.133109  -6.2e-05  1.001065  0.0
H  H76  1  0.84802446  0.20624669  0.51708155  1  0.125762  0.000214  0.115704  0.132066  6e-05  1.011809  0.0
H  H77  1  0.58095435  0.90733772  0.42580961  1  0.0838  -8e-06  0.117643  0.135473  -6.6e-05  1.004599  0.0
H  H78  1  0.48209320  0.97768695  0.39167979  1  0.192075  0.000346  0.136897  0.112463  -0.000219  1.025845  0.0
H  H79  1  0.65334347  0.20092264  0.29091642  1  0.122813  0.000677  0.127249  0.12824  9.1e-05  0.993136  0.001
H  H80  1  0.81172737  0.21803133  0.40236220  1  0.171452  0.000675  0.132411  0.140363  0.000269  0.997232  0.0
H  H81  1  0.95991011  0.09069942  0.69180857  1  0.124139  7.7e-05  0.111764  0.126737  -1.8e-05  1.015825  0.0
H  H82  1  0.25414482  0.37706964  0.74647001  1  0.130985  2.2e-05  0.11929  0.147652  -4.4e-05  1.008292  0.0
H  H83  1  0.01936213  0.26993732  0.54261375  1  0.096122  5e-06  0.107367  0.111927  -2.1e-05  1.062787  0.0
H  H84  1  0.26341244  0.53203006  0.73463465  1  0.19698  0.000657  0.125749  0.138024  0.00022  1.034376  0.0
H  H85  1  0.36752069  0.65740290  0.64907100  1  0.069763  0.001166  0.115888  0.10383  0.000433  1.040358  0.001
H  H86  1  0.17315235  0.36593771  0.50387133  1  0.192717  0.000527  0.136175  0.101194  7.3e-05  1.061312  0.0
H  H87  1  0.12815852  0.06569966  0.74090850  1  0.111407  -1e-06  0.117554  0.115462  -7e-06  1.046013  0.0
H  H88  1  0.16521573  0.08300947  0.89241455  1  0.07105  1e-06  0.10405  0.096653  -2e-06  1.032699  0.0
H  H89  1  0.17130598  0.35068522  0.87283213  1  0.202824  -1.8e-05  0.133493  0.113185  -0.000208  1.042801  0.0
C  C90  1  0.75723774  0.16247549  0.73327137  1  1.489964  -0.005402  0.190998  0.546414  -0.007729  4.199409  -0.006
C  C91  1  0.83460317  0.26458259  0.73137845  1  -0.02969  0.001197  -0.020971  -0.039424  0.00045  3.995547  0.001
C  C92  1  0.80492626  0.29726262  0.67514409  1  0.002337  0.001106  -0.074269  -0.091437  0.000367  3.920358  0.001
C  C93  1  0.87217885  0.39302489  0.67134760  1  -0.047074  0.004266  -0.021646  -0.038132  0.002077  3.986237  0.003
C  C94  1  0.83359742  0.42861528  0.61407108  1  1.535928  0.002395  0.195861  0.563625  0.002273  4.217816  0.001
C  C95  1  0.96882875  0.45763560  0.72549465  1  -0.009437  0.000121  -0.07404  -0.105006  -0.000582  3.931147  0.0
C  C96  1  0.99755599  0.42664356  0.78308411  1  -0.020391  0.004644  -0.021937  -0.044515  0.002361  3.988552  0.003
C  C97  1  0.93094060  0.32956175  0.78543875  1  -0.066035  0.000376  -0.073487  -0.098672  -0.000156  3.930154  0.0
C  C98  1  0.09865769  0.49924648  0.84195634  1  1.548523  0.001346  0.196229  0.556307  0.000971  4.208146  0.0
C  C99  1  0.08350553  0.68147696  0.02540306  1  0.349371  0.001041  0.004746  -0.018325  0.000238  3.948168  0.001
C  C100  1  0.08001376  0.77081606  0.03188638  1  0.321695  0.004935  0.007275  -0.07995  0.002503  3.87761  0.003
C  C101  1  0.25427462  0.77917438  0.00447513  1  0.990904  -0.001187  0.149101  0.116496  -0.001848  3.883024  0.0
C  C102  1  0.22784369  0.93214079  0.01709641  1  0.385298  0.000359  0.10705  0.20832  2.4e-05  4.029681  0.0
C  C103  1  0.18870615  0.99771045  0.06357446  1  -0.037573  -0.00048  -0.080726  -0.207841  -0.000674  3.875549  0.0
C  C104  1  0.23140737  0.09662880  0.06183492  1  0.002999  -3e-06  0.007447  0.111671  -0.000148  3.966365  0.0
C  C105  1  0.31684061  0.12868122  0.01532586  1  0.0331  -0.000155  -0.084638  -0.21425  -0.000238  3.916901  0.0
C  C106  1  0.35129151  0.06135021  0.96717806  1  0.257362  0.00044  0.098451  0.18957  0.000147  4.057152  0.0
C  C107  1  0.30587872  0.96219766  0.96669445  1  -0.03842  -0.00072  -0.096981  -0.28293  -0.000834  3.966881  0.0
C  C108  1  0.49082057  0.04087576  0.87960623  1  0.982233  0.000797  0.137569  0.082387  0.000335  3.916937  0.001
C  C109  1  0.51657609  0.15822270  0.82954885  1  0.425982  -0.000302  0.005132  -0.02305  -0.001217  3.976942  0.0
C  C110  1  0.44657926  0.16735737  0.88426761  1  0.306052  0.005564  0.010238  -0.088818  0.00297  3.888132  0.004
C  C111  1  0.19263328  0.16918999  0.10970047  1  0.045968  -6e-05  -0.002572  0.095411  -0.00011  4.001884  0.0
C  C112  1  0.14207088  0.15530246  0.17438666  1  -0.041008  0.000621  -0.090155  -0.226047  0.00031  3.938157  0.0
C  C113  1  0.11721565  0.22996989  0.22188332  1  0.341037  -3.8e-05  0.101223  0.196205  -9.3e-05  4.025802  0.0
C  C114  1  0.14188045  0.31981210  0.20765576  1  0.016082  0.000763  -0.080414  -0.237879  0.000389  3.8867  0.0
C  C115  1  0.19152531  0.33257978  0.14261363  1  0.288084  0.000284  0.105488  0.201208  8.3e-05  4.016253  0.0
C  C116  1  0.21484566  0.25811411  0.09374755  1  0.026969  7e-05  -0.085419  -0.215184  -2.2e-05  3.925271  0.0
C  C117  1  0.25229407  0.51679974  0.17485235  1  0.328673  0.003293  0.010394  -0.07733  0.001651  3.862658  0.002
C  C118  1  0.26621490  0.57839169  0.13195293  1  0.358105  0.002951  -0.001074  -0.02656  0.001719  3.983736  0.002
C  C119  1  0.21509577  0.42949273  0.05387546  1  0.918378  0.004051  0.150176  0.11357  0.002469  3.859071  0.004
C  C120  1  0.98376139  0.12469349  0.29163193  1  0.285827  2.5e-05  -0.012918  -0.1294  5e-06  3.974944  0.0
C  C121  1  0.97548276  0.13593619  0.36634798  1  0.354537  6.2e-05  -0.021902  -0.060315  3.5e-05  4.097056  0.0
C  C122  1  0.11009499  0.27544240  0.36007516  1  0.918756  -7e-05  0.142773  0.11839  -0.000134  3.874972  0.0
C  C123  1  0.60946234  0.83838820  0.75955915  1  1.512196  -0.001635  0.189971  0.549797  -0.002712  4.210521  -0.003
C  C124  1  0.57287412  0.73568709  0.76480023  1  -0.10639  0.001693  -0.024034  -0.047048  0.000797  3.996491  0.001
C  C125  1  0.51097862  0.70663491  0.82234788  1  0.052611  0.00195  -0.07368  -0.088562  0.000979  3.908165  0.001
C  C126  1  0.47884250  0.61062546  0.82733237  1  -0.047336  0.00345  -0.019226  -0.03651  0.001698  3.975584  0.002
C  C127  1  0.40486818  0.57686267  0.88530105  1  1.55992  0.001814  0.192649  0.559508  0.001583  4.221664  0.0
C  C128  1  0.50842143  0.54326788  0.77403070  1  -0.065611  0.001884  -0.073111  -0.103447  0.000854  3.931405  0.001
C  C129  1  0.56768829  0.57090875  0.71531614  1  0.001732  0.004735  -0.02283  -0.044241  0.002415  3.992631  0.003
C  C130  1  0.59960837  0.66714881  0.71105313  1  -0.018265  0.001807  -0.073288  -0.095364  0.000937  3.933995  0.001
C  C131  1  0.59601681  0.49710826  0.65758521  1  1.534614  0.001824  0.198021  0.560734  0.001479  4.206147  0.0
C  C132  1  0.40265752  0.31581589  0.47246360  1  0.381003  0.001229  0.004428  -0.020189  0.000387  3.95223  0.001
C  C133  1  0.30982244  0.22714998  0.46787179  1  0.277327  0.005152  0.005258  -0.085218  0.00256  3.879138  0.003
C  C134  1  0.47584770  0.22004946  0.49707745  1  0.970408  -0.001533  0.148516  0.11186  -0.002339  3.887824  0.0
C  C135  1  0.29663358  0.06748708  0.48599800  1  0.372433  0.000364  0.104081  0.204007  9e-05  4.036788  0.0
C  C136  1  0.19143179  0.00210318  0.44016421  1  -0.0472  -0.000148  -0.082563  -0.208845  -0.000284  3.892496  0.0
C  C137  1  0.13605835  0.90297058  0.44121489  1  0.020562  0.000108  0.008078  0.113796  -0.0001  3.966164  0.0
C  C138  1  0.19035250  0.87053805  0.48695624  1  -0.00772  0.000154  -0.082743  -0.211884  1.3e-05  3.909662  0.0
C  C139  1  0.29278084  0.93781419  0.53468421  1  0.305912  0.000475  0.096924  0.189343  0.000201  4.052737  0.001
C  C140  1  0.34577378  0.03725389  0.53564491  1  -0.004961  -0.000566  -0.094138  -0.27842  -0.000677  3.960867  0.0
C  C141  1  0.45685692  0.95949675  0.61901514  1  0.9414  -0.005596  0.140036  0.092538  -0.00748  3.90671  -0.003
C  C142  1  0.37060323  0.84392579  0.67128303  1  0.400952  0.001652  0.002432  -0.03082  0.000762  3.989329  0.002
C  C143  1  0.28799861  0.83302690  0.61793958  1  0.262126  0.003291  0.008634  -0.093303  0.001581  3.892422  0.002
C  C144  1  0.02534182  0.83083453  0.39247001  1  0.037299  -0.000102  -0.003142  0.094008  -0.000151  4.001691  0.0
C  C145  1  0.98959725  0.84576572  0.32792112  1  -0.041414  0.000576  -0.086817  -0.219301  0.000268  3.930002  0.0
C  C146  1  0.89083522  0.77138069  0.27949232  1  0.295624  -0.000102  0.102121  0.198027  -0.000164  4.025329  0.0
C  C147  1  0.82524337  0.68108440  0.29292538  1  0.037336  0.000883  -0.081075  -0.240019  0.000456  3.889773  0.001
C  C148  1  0.86098360  0.66737652  0.35779538  1  0.3072  0.000171  0.106748  0.202377  -2e-05  4.018369  0.0
C  C149  1  0.95833439  0.74125492  0.40736261  1  -0.014494  0.000137  -0.084387  -0.213523  1.6e-05  3.927583  0.0
C  C150  1  0.73545309  0.48341071  0.32425639  1  0.313059  0.003346  0.011281  -0.075204  0.001668  3.865417  0.002
C  C151  1  0.68640351  0.42132324  0.36660633  1  0.386898  0.003169  0.000695  -0.023916  0.00185  3.986057  0.003
C  C152  1  0.78574454  0.56945032  0.44548874  1  0.927817  0.004013  0.151213  0.114853  0.002492  3.858725  0.003
C  C153  1  0.86118159  0.87617048  0.20958786  1  0.250651  -6e-06  -0.013304  -0.127983  -1.9e-05  3.976285  0.0
C  C154  1  0.83954368  0.86397951  0.13486503  1  0.421487  5.1e-05  -0.021727  -0.060164  3.3e-05  4.097403  0.0
C  C155  1  0.83766034  0.72558903  0.14139661  1  0.96331  -7.2e-05  0.14331  0.120595  -0.000133  3.873358  0.0
C  C156  1  0.22878137  0.83803238  0.25941698  1  1.52148  -0.001672  0.189543  0.549218  -0.00278  4.209039  -0.003
C  C157  1  0.16260377  0.73532823  0.26462187  1  -0.016677  0.001645  -0.023036  -0.044551  0.000794  3.993263  0.001
C  C158  1  0.19548111  0.70638280  0.32223692  1  0.003868  0.001955  -0.074591  -0.091562  0.000973  3.907529  0.001
C  C159  1  0.13155743  0.61042068  0.32731431  1  -0.020768  0.00345  -0.019318  -0.036585  0.001709  3.974798  0.002
C  C160  1  0.17192529  0.57675758  0.38530194  1  1.536756  0.001751  0.193341  0.561154  0.001556  4.221024  0.0
C  C161  1  0.03458849  0.54303348  0.27404914  1  -0.083942  0.001855  -0.072944  -0.102567  0.000826  3.931088  0.001
C  C162  1  0.00299528  0.57054851  0.21526193  1  0.012322  0.004747  -0.02338  -0.045381  0.002423  3.993132  0.004
C  C163  1  0.06731892  0.66674569  0.21089478  1  -0.079242  0.001801  -0.07287  -0.094898  0.000916  3.932765  0.001
C  C164  1  0.90085641  0.49672553  0.15749963  1  1.55093  0.001799  0.197654  0.559853  0.001471  4.208794  0.0
C  C165  1  0.91263978  0.31578564  0.97226436  1  0.35043  0.001239  0.005051  -0.018218  0.000381  3.951101  0.001
C  C166  1  0.91710089  0.22726010  0.96773536  1  0.296163  0.005119  0.004639  -0.087733  0.002551  3.879684  0.003
C  C167  1  0.74390989  0.21988314  0.99704078  1  0.961487  -0.001544  0.148575  0.112871  -0.002284  3.886169  0.0
C  C168  1  0.77098214  0.06751254  0.98598458  1  0.321384  0.000363  0.104116  0.204798  9e-05  4.036004  0.0
C  C169  1  0.81089359  0.00219184  0.94016611  1  -0.038518  -0.000141  -0.08295  -0.208647  -0.000275  3.891549  0.0
C  C170  1  0.76721127  0.90305781  0.94121362  1  0.00137  0.000108  0.007761  0.112729  -0.000102  3.96885  0.0
C  C171  1  0.68060350  0.87056269  0.98699746  1  0.01691  0.00016  -0.082483  -0.211595  2.1e-05  3.912201  0.0
C  C172  1  0.64542832  0.93777402  0.03474033  1  0.295099  0.000472  0.097416  0.189549  0.000198  4.051363  0.001
C  C173  1  0.69173697  0.03720115  0.03566281  1  0.020986  -0.000553  -0.095216  -0.280744  -0.000664  3.961891  0.0
C  C174  1  0.50307431  0.95930131  0.11914180  1  0.959228  -0.005604  0.140355  0.091846  -0.007482  3.907003  -0.003
C  C175  1  0.47382395  0.84366777  0.17132740  1  0.404477  0.001706  0.00178  -0.030742  0.000764  3.988724  0.002
C  C176  1  0.54562637  0.83291617  0.11802601  1  0.286508  0.003265  0.008402  -0.093569  0.001575  3.893551  0.002
C  C177  1  0.80576161  0.83095087  0.89245303  1  -0.008703  -0.000101  -0.003189  0.095118  -0.000152  4.001096  0.0
C  C178  1  0.85630419  0.84582363  0.82785357  1  0.003863  0.000581  -0.086946  -0.22072  0.000269  3.930505  0.0
C  C179  1  0.88052852  0.77134987  0.77941897  1  0.295313  -0.000102  0.102284  0.198546  -0.000164  4.023887  0.0
C  C180  1  0.85575756  0.68104240  0.79286402  1  0.008842  0.000892  -0.080494  -0.239803  0.000458  3.888104  0.001
C  C181  1  0.80638375  0.66742175  0.85778962  1  0.344304  0.000164  0.105882  0.201593  -2.1e-05  4.018171  0.0
C  C182  1  0.78316407  0.74139585  0.90738349  1  0.005401  0.000142  -0.083876  -0.213095  1.9e-05  3.926325  0.0
C  C183  1  0.74757694  0.48341625  0.82428945  1  0.311474  0.003345  0.011762  -0.073359  0.001666  3.863402  0.002
C  C184  1  0.73448181  0.42132763  0.86664231  1  0.36829  0.003226  -9.3e-05  -0.026301  0.001857  3.986889  0.003
C  C185  1  0.78360650  0.56952175  0.94551495  1  0.919677  0.004021  0.151662  0.115783  0.002494  3.855619  0.004
C  C186  1  0.01564059  0.87579430  0.70957195  1  0.252744  -5e-06  -0.013637  -0.129238  -1.8e-05  3.975575  0.0
C  C187  1  0.02500730  0.86371120  0.63485841  1  0.42158  5.2e-05  -0.021833  -0.058511  3.3e-05  4.094954  0.0
C  C188  1  0.88752366  0.72569910  0.64127745  1  0.953118  -7.2e-05  0.143501  0.121745  -0.000133  3.872207  0.0
C  C189  1  0.40474285  0.16193099  0.23322010  1  1.513212  -0.005483  0.190417  0.545038  -0.007772  4.204181  -0.006
C  C190  1  0.42979418  0.26413960  0.23139495  1  -0.039081  0.001219  -0.021901  -0.040987  0.000455  3.995298  0.001
C  C191  1  0.49212197  0.29679703  0.17513739  1  -0.033077  0.001083  -0.073738  -0.089579  0.000345  3.914435  0.001
C  C192  1  0.52075930  0.39258564  0.17135478  1  0.009328  0.004211  -0.021915  -0.039848  0.002066  3.983102  0.003
C  C193  1  0.59479913  0.42812270  0.11401354  1  1.526661  0.002405  0.195712  0.563285  0.002259  4.219028  0.001
C  C194  1  0.48878935  0.45722432  0.22548308  1  -0.005233  7.4e-05  -0.074018  -0.104682  -0.000623  3.931331  0.0
C  C195  1  0.42913213  0.42628343  0.28310176  1  -0.069275  0.004651  -0.021419  -0.043927  0.002363  3.987988  0.003
C  C196  1  0.39870555  0.32922311  0.28551773  1  -0.033168  0.000316  -0.073343  -0.098509  -0.000197  3.927714  0.0
C  C197  1  0.40048054  0.49887467  0.34186728  1  1.537865  0.00136  0.19736  0.558369  0.000966  4.207367  0.0
C  C198  1  0.59832773  0.68122867  0.52511792  1  0.371558  0.001051  0.004673  -0.018742  0.000239  3.952028  0.001
C  C199  1  0.69110324  0.77061983  0.53157371  1  0.301995  0.004964  0.007869  -0.079996  0.00251  3.87719  0.003
C  C200  1  0.52501461  0.77879858  0.50431286  1  0.972181  -0.001143  0.147643  0.113607  -0.001821  3.886097  0.0
C  C201  1  0.70419102  0.93190220  0.51691253  1  0.367388  0.000362  0.106787  0.208033  2.3e-05  4.030618  0.0
C  C202  1  0.80882415  0.99749960  0.56347299  1  0.003684  -0.000469  -0.080708  -0.207342  -0.000664  3.876383  0.0
C  C203  1  0.86500202  0.09639827  0.56176777  1  -0.023181  -5e-06  0.007348  0.111336  -0.00015  3.969138  0.0
C  C204  1  0.81164722  0.12841908  0.51522406  1  -0.005039  -0.000145  -0.084491  -0.21365  -0.000233  3.918087  0.0
C  C205  1  0.70987562  0.06108498  0.46707105  1  0.25199  0.000428  0.097681  0.188745  0.000143  4.059936  0.0
C  C206  1  0.65617831  0.96189270  0.46649613  1  0.059105  -0.000701  -0.096305  -0.282949  -0.000817  3.968221  0.0
C  C207  1  0.54981755  0.04063333  0.37953345  1  0.919105  0.00091  0.1372  0.081764  0.000373  3.915584  0.001
C  C208  1  0.64130539  0.15825623  0.32972315  1  0.411682  -0.00029  0.004795  -0.022276  -0.00122  3.97483  0.0
C  C209  1  0.72048892  0.16732609  0.38439112  1  0.259308  0.00559  0.010431  -0.089353  0.002966  3.887576  0.004
C  C210  1  0.97632044  0.16904211  0.60960576  1  -0.013641  -5.6e-05  -0.002518  0.094703  -0.000106  4.003599  0.0
C  C211  1  0.01297318  0.15519779  0.67432087  1  0.002811  0.000618  -0.089648  -0.224916  0.000307  3.938727  0.0
C  C212  1  0.11245130  0.22989509  0.72186149  1  0.324977  -3.5e-05  0.10162  0.197108  -9e-05  4.026938  0.0
C  C213  1  0.17768236  0.31972149  0.70761289  1  0.02921  0.00076  -0.0808  -0.239675  0.000388  3.887493  0.0
C  C214  1  0.14087783  0.33244784  0.64252745  1  0.311429  0.000286  0.10558  0.201738  8.6e-05  4.014877  0.0
C  C215  1  0.04307440  0.25794734  0.59362384  1  -0.018207  6.4e-05  -0.086253  -0.216234  -2.7e-05  3.923906  0.0
C  C216  1  0.26453753  0.51662217  0.67471612  1  0.297784  0.003305  0.009672  -0.079012  0.001653  3.86261  0.002
C  C217  1  0.31217429  0.57822537  0.63180264  1  0.42955  0.002904  -0.00053  -0.025463  0.001713  3.983809  0.002
C  C218  1  0.21407632  0.42935893  0.55375460  1  0.951507  0.003927  0.150147  0.114327  0.002462  3.856661  0.004
C  C219  1  0.14022267  0.12463596  0.79178880  1  0.271047  2.4e-05  -0.01312  -0.129688  4e-06  3.974896  0.0
C  C220  1  0.15989773  0.13604143  0.86652806  1  0.410279  6.2e-05  -0.021149  -0.058678  3.6e-05  4.096877  0.0
C  C221  1  0.16519927  0.27560330  0.86007743  1  0.924137  -6.9e-05  0.142949  0.118755  -0.000133  3.87393  0.0
N  N222  1  0.19289704  0.68803488  0.00863264  1  -1.221665  0.065416  -0.357311  -0.294664  0.033973  3.638061  0.045
N  N223  1  0.18878732  0.83252205  0.01825130  1  -1.246168  0.002527  -0.221763  0.00853  0.000808  3.769678  0.002
N  N224  1  0.42961810  0.09148958  0.91549062  1  -1.276948  0.002759  -0.226955  0.005344  0.001038  3.792911  0.002
N  N225  1  0.54362044  0.07933230  0.82741842  1  -1.217104  0.057306  -0.354114  -0.284636  0.030648  3.630929  0.045
N  N226  1  0.21891609  0.42224762  0.12472218  1  -1.257669  0.005861  -0.221166  0.010971  0.002645  3.764164  0.004
N  N227  1  0.24281225  0.52340111  0.05682274  1  -1.207324  0.064914  -0.361012  -0.305185  0.033746  3.656212  0.041
N  N228  1  0.06992862  0.21379836  0.28813091  1  -1.263167  8.2e-05  -0.230891  0.010692  3.5e-05  3.778726  0.0
N  N229  1  0.05457918  0.23037381  0.40865563  1  -1.182579  0.000154  -0.349311  -0.331339  5.7e-05  3.332788  0.0
N  N230  1  0.50556727  0.31003423  0.49042983  1  -1.197842  0.065846  -0.356664  -0.293851  0.034129  3.642769  0.045
N  N231  1  0.35701956  0.16670431  0.48386619  1  -1.260671  0.002499  -0.2223  0.008275  0.000818  3.774247  0.002
N  N232  1  0.34371986  0.90780429  0.58519277  1  -1.262915  0.002045  -0.225707  0.003567  0.000791  3.787085  0.002
N  N233  1  0.47535160  0.92312611  0.67143177  1  -1.199944  0.060221  -0.350013  -0.283967  0.032413  3.607365  0.046
N  N234  1  0.79764983  0.57738962  0.37489740  1  -1.265305  0.006062  -0.220464  0.012014  0.002737  3.76566  0.005
N  N235  1  0.71804440  0.47560779  0.44187726  1  -1.231752  0.066498  -0.364583  -0.310438  0.034429  3.667511  0.041
N  N236  1  0.86011807  0.78773119  0.21325411  1  -1.257251  8.6e-05  -0.230713  0.008985  3.9e-05  3.782806  0.0
N  N237  1  0.82482324  0.76966007  0.09272676  1  -1.190817  0.00015  -0.348243  -0.328395  5.4e-05  3.327082  0.0
N  N238  1  0.80392716  0.30983224  0.99027353  1  -1.199432  0.065927  -0.356254  -0.29374  0.034096  3.642379  0.045
N  N239  1  0.80958748  0.16671031  0.98384134  1  -1.262424  0.002541  -0.222227  0.008102  0.000835  3.774082  0.002
N  N240  1  0.56463491  0.90772842  0.08532970  1  -1.265451  0.002024  -0.225537  0.0059  0.000788  3.783787  0.002
N  N241  1  0.44812402  0.92278894  0.17148109  1  -1.197578  0.060049  -0.349911  -0.285163  0.032416  3.60779  0.046
N  N242  1  0.77956194  0.57742715  0.87491602  1  -1.252226  0.006067  -0.220531  0.011542  0.00274  3.764779  0.005
N  N243  1  0.75734222  0.47565618  0.94191280  1  -1.208793  0.066472  -0.364207  -0.309493  0.034416  3.665392  0.041
N  N244  1  0.92759160  0.78762397  0.71316205  1  -1.279023  8.6e-05  -0.230402  0.009095  3.9e-05  3.781651  0.0
N  N245  1  0.94469320  0.76970612  0.59264474  1  -1.202537  0.000152  -0.348583  -0.329762  5.4e-05  3.325368  0.0
N  N246  1  0.49537341  0.68764543  0.50841599  1  -1.201559  0.065264  -0.356854  -0.292759  0.033948  3.637983  0.045
N  N247  1  0.64384285  0.83224826  0.51802686  1  -1.257791  0.002519  -0.221817  0.009789  0.000807  3.771158  0.002
N  N248  1  0.66162499  0.09128945  0.41546976  1  -1.275637  0.002763  -0.226558  0.005676  0.001043  3.793809  0.002
N  N249  1  0.53540980  0.07923897  0.32746957  1  -1.178556  0.057134  -0.353745  -0.284278  0.030555  3.628194  0.045
N  N250  1  0.20318887  0.42209792  0.62460530  1  -1.268736  0.005852  -0.220292  0.012482  0.00264  3.762289  0.004
N  N251  1  0.28039511  0.52323722  0.55668288  1  -1.241288  0.065026  -0.361599  -0.306141  0.033762  3.656284  0.041
N  N252  1  0.14342955  0.21377409  0.78817341  1  -1.252155  8.2e-05  -0.23124  0.009874  3.5e-05  3.780768  0.0
N  N253  1  0.17559145  0.23060525  0.90873332  1  -1.215799  0.000154  -0.349452  -0.331824  5.7e-05  3.33322  0.0
O  O254  1  0.10766650  0.47293420  0.90134191  1  -1.145273  0.100804  -0.328871  -0.558837  0.051391  2.361434  0.079
O  O255  1  0.16914719  0.57928376  0.83319689  1  -1.168077  0.02078  -0.323029  -0.542921  0.009875  2.105131  0.016
O  O256  1  0.78836872  0.11748844  0.77149315  1  -1.140124  0.083022  -0.32279  -0.537432  0.043076  2.180637  0.067
O  O257  1  0.65493168  0.11966536  0.69685768  1  -1.167847  0.070317  -0.316447  -0.55721  0.035612  2.263576  0.063
O  O258  1  0.75490689  0.35976752  0.55918080  1  -1.140764  0.106033  -0.344095  -0.574009  0.053938  2.322187  0.08
O  O259  1  0.87117718  0.51982969  0.62231492  1  -1.157684  0.02933  -0.320735  -0.555741  0.014193  2.129854  0.023
O  O260  1  0.63252818  0.52305240  0.59815722  1  -1.143707  0.103863  -0.330999  -0.561666  0.052858  2.368353  0.081
O  O261  1  0.58593030  0.41753209  0.66736782  1  -1.161534  0.018318  -0.32477  -0.54459  0.008631  2.097633  0.014
O  O262  1  0.66952496  0.86743567  0.70997419  1  -1.154299  0.051265  -0.316233  -0.542431  0.025724  2.141062  0.045
O  O263  1  0.57508660  0.89738182  0.80694693  1  -1.156971  0.0895  -0.335108  -0.567206  0.046891  2.293148  0.072
O  O264  1  0.39475904  0.64570953  0.93980107  1  -1.136099  0.10294  -0.341747  -0.570769  0.052403  2.312537  0.078
O  O265  1  0.35097611  0.48572772  0.87796790  1  -1.175363  0.032803  -0.320233  -0.557738  0.01598  2.137388  0.027
O  O266  1  0.89037077  0.52272596  0.09809524  1  -1.147697  0.103794  -0.33136  -0.56168  0.05278  2.368285  0.081
O  O267  1  0.83130843  0.41717269  0.16728684  1  -1.174084  0.018233  -0.324324  -0.543868  0.008582  2.09836  0.014
O  O268  1  0.19795893  0.86717452  0.20982411  1  -1.154382  0.051387  -0.316324  -0.54249  0.025788  2.140782  0.045
O  O269  1  0.32211086  0.89703701  0.30689252  1  -1.154887  0.089374  -0.334523  -0.566655  0.046917  2.293647  0.072
O  O270  1  0.25114424  0.64561975  0.43966733  1  -1.141717  0.102727  -0.341666  -0.571083  0.052383  2.31264  0.078
O  O271  1  0.13458214  0.48564450  0.37808560  1  -1.155314  0.032919  -0.320829  -0.558687  0.016  2.137006  0.027
O  O272  1  0.36507389  0.47261057  0.40125391  1  -1.145679  0.100907  -0.32921  -0.559348  0.051458  2.361855  0.079
O  O273  1  0.41006116  0.57890528  0.33308643  1  -1.160769  0.020803  -0.323513  -0.544019  0.009881  2.106611  0.016
O  O274  1  0.32880956  0.11702844  0.27156070  1  -1.142933  0.08297  -0.322481  -0.536782  0.043052  2.182282  0.067
O  O275  1  0.46386873  0.11891166  0.19657093  1  -1.164562  0.070283  -0.316073  -0.556239  0.035542  2.265997  0.063
O  O276  1  0.60450528  0.35929727  0.05906428  1  -1.146672  0.106068  -0.343993  -0.573138  0.05389  2.322396  0.08
O  O277  1  0.64852122  0.51934784  0.12224109  1  -1.157652  0.02955  -0.320408  -0.555705  0.014334  2.131786  0.024
