# generated using pymatgen
data_CuSiH12C16(N2F3)2
_symmetry_space_group_name_H-M   'P 1'
_cell_length_a   8.19270987
_cell_length_b   8.99947209
_cell_length_c   8.99941714
_cell_angle_alpha   88.53763416
_cell_angle_beta   79.81105144
_cell_angle_gamma   79.81112632
_symmetry_Int_Tables_number   1
_chemical_formula_structural   CuSiH12C16(N2F3)2
_chemical_formula_sum   'Cu1 Si1 H12 C16 N4 F6'
_cell_volume   642.75336707
_cell_formula_units_Z   1
loop_
 _symmetry_equiv_pos_site_id
 _symmetry_equiv_pos_as_xyz
  1  'x, y, z'
loop_
 _atom_site_type_symbol
 _atom_site_label
 _atom_site_symmetry_multiplicity
 _atom_site_fract_x
 _atom_site_fract_y
 _atom_site_fract_z
 _atom_site_occupancy
 _atom_site_pbe_bader_charge
 _atom_site_pbe_bader_spin_density
 _atom_site_pbe_cm5_charge
 _atom_site_pbe_ddec_charge
 _atom_site_pbe_ddec_spin_density
 _atom_site_pbe_ddec_sum_bond_order
 _atom_site_pbe_magmom
Cu  Cu0  1  0.50000233  0.49999630  0.49999572  1  1.064384  0.557024  0.779583  0.676759  0.717243  2.261691  0.555
Si  Si1  1  0.00000742  0.49999291  0.50000540  1  3.226513  -0.000156  0.247593  1.721474  -0.000257  3.945615  0.0
H  H2  1  0.28226808  0.49964292  0.27476349  1  0.223055  0.002611  0.121955  0.110806  0.001255  1.059603  0.002
H  H3  1  0.79466919  0.50037767  0.24882259  1  0.187689  0.002216  0.120494  0.111992  0.001061  1.035823  0.002
H  H4  1  0.84461760  0.49985369  0.96433896  1  0.117755  0.001337  0.124523  0.139473  0.000682  0.974652  0.001
H  H5  1  0.71773355  0.50035872  0.72523373  1  0.223019  0.002609  0.121934  0.110756  0.001254  1.059737  0.002
H  H6  1  0.20533050  0.49962062  0.75118167  1  0.187829  0.002216  0.120478  0.11197  0.001062  1.035727  0.002
H  H7  1  0.15538662  0.50014683  0.03566568  1  0.117745  0.001337  0.124484  0.139367  0.000682  0.97464  0.001
H  H8  1  0.28228680  0.27475934  0.49957725  1  0.222316  0.002608  0.121969  0.110864  0.001253  1.060003  0.002
H  H9  1  0.79467550  0.24881673  0.50034894  1  0.187777  0.00222  0.120536  0.112  0.001063  1.035691  0.002
H  H10  1  0.84461204  0.96433242  0.49985507  1  0.117655  0.001336  0.124518  0.139479  0.000681  0.974886  0.001
H  H11  1  0.71772079  0.72523208  0.50039711  1  0.222645  0.002611  0.121912  0.110798  0.001255  1.059804  0.002
H  H12  1  0.20532658  0.75118375  0.49963157  1  0.187814  0.002218  0.120534  0.112013  0.001062  1.035781  0.002
H  H13  1  0.15539263  0.03566128  0.50012078  1  0.117718  0.001337  0.124553  0.139432  0.000682  0.97482  0.001
C  C14  1  0.40422097  0.50000748  0.20325109  1  0.512919  -0.002588  0.072099  0.066791  -0.003403  3.833887  -0.002
C  C15  1  0.69317770  0.50015771  0.18538032  1  0.317741  0.001737  0.040118  0.065933  0.001202  3.909934  0.001
C  C16  1  0.71932884  0.50001535  0.03009536  1  0.063843  0.005747  -0.062416  -0.136266  0.004031  3.914451  0.005
C  C17  1  0.58098327  0.49993648  0.95574788  1  -0.000619  0.004221  0.011568  0.059551  0.002667  3.993976  0.004
C  C18  1  0.59578476  0.49999190  0.79674891  1  0.512886  -0.002588  0.072103  0.066872  -0.003402  3.833851  -0.002
C  C19  1  0.30682819  0.49984055  0.81462413  1  0.317669  0.001738  0.040088  0.065883  0.001203  3.909993  0.001
C  C20  1  0.28067423  0.49998517  0.96990278  1  0.063909  0.005745  -0.062344  -0.136079  0.00403  3.914263  0.005
C  C21  1  0.41902348  0.50006402  0.04425305  1  -0.059415  0.004221  0.011605  0.059607  0.002669  3.993854  0.004
C  C22  1  0.40421436  0.20326710  0.49996187  1  0.51367  -0.002595  0.072108  0.066849  -0.003409  3.833411  -0.002
C  C23  1  0.69317529  0.18539260  0.50013227  1  0.318241  0.001733  0.040058  0.065899  0.001197  3.909388  0.001
C  C24  1  0.71933521  0.03007499  0.50001426  1  0.063971  0.005759  -0.062312  -0.136209  0.004039  3.913951  0.005
C  C25  1  0.58097010  0.95576030  0.49994190  1  -0.059964  0.004227  0.011586  0.059656  0.002673  3.993939  0.004
C  C26  1  0.59577966  0.79673680  0.50001754  1  0.513433  -0.00259  0.07224  0.06697  -0.003405  3.833486  -0.002
C  C27  1  0.30682428  0.81460790  0.49985084  1  0.317825  0.001735  0.040091  0.065893  0.001199  3.909642  0.001
C  C28  1  0.28067799  0.96991868  0.49997142  1  0.063938  0.005754  -0.062389  -0.136126  0.004036  3.914406  0.005
C  C29  1  0.41902786  0.04422893  0.50004285  1  -0.000269  0.004231  0.011548  0.059487  0.002674  3.994209  0.004
N  N30  1  0.53636545  0.49994908  0.26987460  1  -1.202535  0.095946  -0.329434  -0.20268  0.063867  3.589569  0.084
N  N31  1  0.46363702  0.50004805  0.73012372  1  -1.202479  0.095927  -0.329386  -0.202681  0.063854  3.589521  0.084
N  N32  1  0.53638137  0.26987415  0.49990702  1  -1.203213  0.09595  -0.329455  -0.202752  0.063872  3.589966  0.084
N  N33  1  0.46362855  0.73012404  0.50007460  1  -1.202826  0.095951  -0.329519  -0.202829  0.063872  3.590157  0.084
F  F34  1  0.20651449  0.51368021  0.51370737  1  -0.844183  -0.001452  -0.204812  -0.535012  -0.001705  1.307423  -0.001
F  F35  1  0.79350043  0.48631576  0.48630134  1  -0.844322  -0.001452  -0.204808  -0.534997  -0.001706  1.307397  -0.001
F  F36  1  0.00002972  0.63608287  0.36390824  1  -0.840734  0.00024  -0.254991  -0.549199  0.000217  1.061507  0.0
F  F37  1  0.99998291  0.36389955  0.63609337  1  -0.840582  0.00024  -0.255057  -0.549248  0.000217  1.061562  0.0
F  F38  1  0.07296906  0.36367196  0.36368407  1  -0.841427  0.000318  -0.251686  -0.546255  0.000266  1.070179  0.0
F  F39  1  0.92704693  0.63631836  0.63632462  1  -0.841399  0.000318  -0.251671  -0.546242  0.000266  1.070129  0.0
