# generated using pymatgen
data_CdH4C6NClO2
_symmetry_space_group_name_H-M   'P 1'
_cell_length_a   9.92731410
_cell_length_b   9.92729981
_cell_length_c   15.81132938
_cell_angle_alpha   89.99992079
_cell_angle_beta   89.99989002
_cell_angle_gamma   90.00002311
_symmetry_Int_Tables_number   1
_chemical_formula_structural   CdH4C6NClO2
_chemical_formula_sum   'Cd8 H32 C48 N8 Cl8 O16'
_cell_volume   1558.22901545
_cell_formula_units_Z   8
loop_
 _symmetry_equiv_pos_site_id
 _symmetry_equiv_pos_as_xyz
  1  'x, y, z'
loop_
 _atom_site_type_symbol
 _atom_site_label
 _atom_site_symmetry_multiplicity
 _atom_site_fract_x
 _atom_site_fract_y
 _atom_site_fract_z
 _atom_site_occupancy
 _atom_site_hle17_bader_spin_density
 _atom_site_hle17_ddec_charge
 _atom_site_hle17_ddec_spin_density
 _atom_site_hle17_ddec_sum_bond_order
 _atom_site_hle17_magmom
 _atom_site_hse06_10hf_bader_spin_density
 _atom_site_hse06_10hf_ddec_charge
 _atom_site_hse06_10hf_ddec_spin_density
 _atom_site_hse06_10hf_ddec_sum_bond_order
 _atom_site_hse06_10hf_magmom
 _atom_site_hse06_bader_spin_density
 _atom_site_hse06_ddec_charge
 _atom_site_hse06_ddec_spin_density
 _atom_site_hse06_ddec_sum_bond_order
 _atom_site_hse06_magmom
 _atom_site_pbe_bader_spin_density
 _atom_site_pbe_cm5_charge
 _atom_site_pbe_ddec_charge
 _atom_site_pbe_ddec_spin_density
 _atom_site_pbe_ddec_sum_bond_order
 _atom_site_pbe_magmom
Cd  Cd0  1  0.56771118  0.25784542  0.21975589  1  0  1.059141  0  1.8222  0  0  0.883553  0  2.282949  0  0  0.937494  0  2.233223  0  0  0.67456  0.844852  0  2.31712  0
Cd  Cd1  1  0.74215434  0.06771163  0.71975557  1  0  1.059151  0  1.822184  0  0  0.883573  0  2.28293  0  0  0.93751  0  2.233205  0  0  0.674569  0.844862  0  2.317116  0
Cd  Cd2  1  0.75784445  0.43228912  0.71975604  1  0  1.059103  0  1.822238  0  0  0.883522  0  2.282986  0  0  0.937459  0  2.233263  0  0  0.674545  0.844821  0  2.317153  0
Cd  Cd3  1  0.93228914  0.24215542  0.21975568  1  0  1.059133  0  1.822211  0  0  0.883547  0  2.282961  0  0  0.937486  0  2.233235  0  0  0.674557  0.844842  0  2.317138  0
Cd  Cd4  1  0.43228910  0.74215572  0.78024374  1  0  1.059139  0  1.822192  0  0  0.883556  0  2.282943  0  0  0.937496  0  2.233216  0  0  0.674558  0.844855  0  2.317114  0
Cd  Cd5  1  0.25784493  0.93228951  0.28024406  1  0  1.059137  0  1.822181  0  0  0.883544  0  2.282933  0  0  0.937487  0  2.233206  0  0  0.67456  0.844844  0  2.317106  0
Cd  Cd6  1  0.24215481  0.56771101  0.28024360  1  0  1.059138  0  1.822208  0  0  0.883552  0  2.282958  0  0  0.937494  0  2.233231  0  0  0.674562  0.844852  0  2.317128  0
Cd  Cd7  1  0.06771113  0.75784471  0.78024395  1  0  1.059151  0  1.822217  0  0  0.883563  0  2.282969  0  0  0.937505  0  2.233241  0  0  0.674571  0.844862  0  2.317139  0
H  H8  1  0.28314670  0.46720055  0.97029312  1  0  0.109185  0  0.962284  0  0  0.115928  0  1.030883  0  0  0.119464  0  1.028849  0  0  0.103564  0.113505  0  1.032105  0
H  H9  1  0.53280116  0.78314709  0.47029186  1  0  0.109194  0  0.96231  0  0  0.115938  0  1.03091  0  0  0.119475  0  1.028874  0  0  0.103577  0.11351  0  1.032139  0
H  H10  1  0.96719961  0.71685322  0.47029289  1  0  0.109204  0  0.962286  0  0  0.115935  0  1.030899  0  0  0.119486  0  1.028847  0  0  0.103578  0.113507  0  1.032126  0
H  H11  1  0.21685376  0.03280044  0.97029271  1  0  0.109179  0  0.962287  0  0  0.115917  0  1.030897  0  0  0.119468  0  1.028845  0  0  0.103568  0.11349  0  1.032124  0
H  H12  1  0.71685257  0.53280058  0.02970715  1  0  0.109214  0  0.962288  0  0  0.115948  0  1.030895  0  0  0.119499  0  1.028845  0  0  0.10358  0.11352  0  1.032123  0
H  H13  1  0.46719912  0.21685203  0.52970777  1  0  0.109199  0  0.9623  0  0  0.115953  0  1.030888  0  0  0.119492  0  1.028853  0  0  0.103579  0.113525  0  1.032117  0
H  H14  1  0.03280067  0.28314691  0.52970737  1  0  0.109172  0  0.962321  0  0  0.115912  0  1.030927  0  0  0.119465  0  1.028877  0  0  0.10357  0.113485  0  1.032155  0
H  H15  1  0.78314753  0.96719968  0.02970692  1  0  0.109211  0  0.962272  0  0  0.115951  0  1.030876  0  0  0.119487  0  1.028843  0  0  0.103581  0.113528  0  1.032099  0
H  H16  1  0.38352043  0.33640280  0.84976498  1  0  0.10572  0  0.945554  0  0  0.114445  0  1.006796  0  0  0.117466  0  1.004763  0  0  0.099154  0.111773  0  1.009248  0
H  H17  1  0.66359807  0.88352298  0.34976424  1  0  0.105717  0  0.945529  0  0  0.11445  0  1.006771  0  0  0.117471  0  1.004739  0  0  0.099169  0.111779  0  1.009223  0
H  H18  1  0.83640306  0.61647960  0.34976488  1  0  0.105717  0  0.945551  0  0  0.114441  0  1.006793  0  0  0.117463  0  1.00476  0  0  0.099155  0.11177  0  1.009245  0
H  H19  1  0.11647938  0.16359745  0.84976459  1  0  0.105711  0  0.945541  0  0  0.114442  0  1.006781  0  0  0.117463  0  1.004748  0  0  0.099152  0.111771  0  1.009232  0
H  H20  1  0.61647984  0.66359632  0.15023465  1  0  0.10572  0  0.945553  0  0  0.114445  0  1.006796  0  0  0.117467  0  1.004761  0  0  0.099157  0.111774  0  1.009247  0
H  H21  1  0.33640221  0.11647715  0.65023603  1  0  0.105717  0  0.945517  0  0  0.114452  0  1.006759  0  0  0.117472  0  1.004726  0  0  0.099176  0.11178  0  1.00921  0
H  H22  1  0.16359721  0.38352052  0.65023475  1  0  0.105721  0  0.945532  0  0  0.114455  0  1.006772  0  0  0.117477  0  1.004738  0  0  0.099159  0.111784  0  1.009224  0
H  H23  1  0.88352089  0.83640268  0.15023505  1  0  0.105698  0  0.945541  0  0  0.114435  0  1.00678  0  0  0.117457  0  1.004745  0  0  0.09915  0.111764  0  1.009232  0
H  H24  1  0.55373355  0.15524478  0.88310434  1  0  0.116925  0  0.966253  0  0  0.124539  0  1.029353  0  0  0.12792  0  1.027471  0  0  0.105417  0.122029  0  1.030982  0
H  H25  1  0.84475662  0.05373541  0.38310451  1  0  0.116883  0  0.966254  0  0  0.124498  0  1.02936  0  0  0.127878  0  1.027479  0  0  0.105403  0.121988  0  1.030988  0
H  H26  1  0.65524421  0.44626708  0.38310509  1  0  0.116923  0  0.966255  0  0  0.124538  0  1.029359  0  0  0.127918  0  1.027477  0  0  0.105405  0.122027  0  1.030988  0
H  H27  1  0.94626675  0.34475460  0.88310466  1  0  0.116915  0  0.96627  0  0  0.124531  0  1.029366  0  0  0.127911  0  1.027485  0  0  0.105418  0.122021  0  1.030995  0
H  H28  1  0.44626672  0.84475636  0.11689529  1  0  0.116912  0  0.966247  0  0  0.124528  0  1.029348  0  0  0.127907  0  1.027468  0  0  0.10542  0.122018  0  1.030977  0
H  H29  1  0.15524265  0.94626472  0.61689513  1  0  0.116873  0  0.966266  0  0  0.12449  0  1.029371  0  0  0.127871  0  1.027489  0  0  0.105402  0.121981  0  1.030998  0
H  H30  1  0.34475607  0.55373305  0.61689518  1  0  0.116896  0  0.966271  0  0  0.124485  0  1.029395  0  0  0.127865  0  1.027515  0  0  0.105396  0.121976  0  1.03102  0
H  H31  1  0.05373352  0.65524452  0.11689561  1  0  0.116921  0  0.966239  0  0  0.124536  0  1.029337  0  0  0.127917  0  1.027456  0  0  0.105422  0.122026  0  1.030968  0
H  H32  1  0.61833540  0.11742678  0.03410550  1  0  0.075079  0  0.952205  0  0  0.08104  0  1.022467  0  0  0.08369  0  1.019969  0  0  0.110989  0.078884  0  1.024559  0
H  H33  1  0.88257328  0.11833590  0.53410568  1  0  0.075074  0  0.952181  0  0  0.081037  0  1.022441  0  0  0.083686  0  1.019946  0  0  0.110986  0.078881  0  1.024534  0
H  H34  1  0.61742709  0.38166324  0.53410572  1  0  0.075066  0  0.952181  0  0  0.081032  0  1.022441  0  0  0.08368  0  1.019945  0  0  0.110986  0.078874  0  1.024535  0
H  H35  1  0.88166347  0.38257245  0.03410523  1  0  0.075065  0  0.952204  0  0  0.08103  0  1.022459  0  0  0.083678  0  1.019965  0  0  0.110991  0.078869  0  1.024555  0
H  H36  1  0.38166387  0.88257335  0.96589477  1  0  0.075058  0  0.95222  0  0  0.081014  0  1.022476  0  0  0.083662  0  1.01998  0  0  0.110976  0.078857  0  1.024568  0
H  H37  1  0.11742599  0.88166423  0.46589459  1  0  0.075061  0  0.952204  0  0  0.081026  0  1.022465  0  0  0.083675  0  1.019969  0  0  0.11098  0.07887  0  1.024558  0
H  H38  1  0.38257318  0.61833588  0.46589391  1  0  0.075051  0  0.952196  0  0  0.081017  0  1.022455  0  0  0.083665  0  1.019959  0  0  0.110983  0.07886  0  1.024547  0
H  H39  1  0.11833579  0.61742667  0.96589441  1  0  0.075058  0  0.952193  0  0  0.081023  0  1.022456  0  0  0.083673  0  1.019957  0  0  0.110984  0.078867  0  1.024547  0
C  C40  1  0.39878256  0.36082723  0.06376401  1  0  0.094723  0  3.747536  0  0  0.099434  0  3.986262  0  0  0.099154  0  4.007927  0  0  0.107536  0.099277  0  3.972195  0
C  C41  1  0.63917221  0.89878369  0.56376333  1  0  0.094633  0  3.747713  0  0  0.099358  0  3.986428  0  0  0.099078  0  4.008095  0  0  0.107516  0.099211  0  3.972344  0
C  C42  1  0.86082626  0.60121843  0.56376396  1  0  0.094686  0  3.747496  0  0  0.099403  0  3.986218  0  0  0.099123  0  4.007886  0  0  0.107526  0.099245  0  3.97215  0
C  C43  1  0.10121865  0.13917274  0.06376428  1  0  0.094729  0  3.747491  0  0  0.099442  0  3.986232  0  0  0.099163  0  4.007899  0  0  0.107526  0.099288  0  3.972158  0
C  C44  1  0.60121771  0.63917390  0.93623626  1  0  0.094732  0  3.747499  0  0  0.099448  0  3.986233  0  0  0.099168  0  4.007902  0  0  0.107557  0.099306  0  3.972139  0
C  C45  1  0.36082807  0.10121543  0.43623694  1  0  0.094607  0  3.747743  0  0  0.099333  0  3.986454  0  0  0.099052  0  4.008121  0  0  0.107509  0.099187  0  3.972369  0
C  C46  1  0.13917402  0.39878170  0.43623567  1  0  0.094734  0  3.747492  0  0  0.099447  0  3.986225  0  0  0.099168  0  4.007895  0  0  0.107539  0.09929  0  3.972158  0
C  C47  1  0.89878163  0.86082638  0.93623598  1  0  0.094651  0  3.747508  0  0  0.099371  0  3.986239  0  0  0.099092  0  4.007902  0  0  0.107506  0.099212  0  3.972174  0
C  C48  1  0.35736614  0.38863942  0.98137693  1  0  -0.103842  0  3.705271  0  0  -0.12911  0  3.95709  0  0  -0.133554  0  3.979425  0  0  -0.075385  -0.125806  0  3.941943  0
C  C49  1  0.61136017  0.85736667  0.48137561  1  0  -0.103845  0  3.705359  0  0  -0.129119  0  3.957193  0  0  -0.133565  0  3.979527  0  0  -0.075409  -0.125812  0  3.942046  0
C  C50  1  0.88863955  0.64263361  0.48137680  1  0  -0.103844  0  3.705275  0  0  -0.129108  0  3.957096  0  0  -0.133564  0  3.979423  0  0  -0.075396  -0.125798  0  3.941953  0
C  C51  1  0.14263529  0.11136055  0.98137655  1  0  -0.103825  0  3.705293  0  0  -0.129097  0  3.957125  0  0  -0.133552  0  3.979452  0  0  -0.075377  -0.125787  0  3.941975  0
C  C52  1  0.64263313  0.61136071  0.01862333  1  0  -0.103937  0  3.705339  0  0  -0.129208  0  3.957176  0  0  -0.133667  0  3.979505  0  0  -0.075435  -0.125902  0  3.942027  0
C  C53  1  0.38863910  0.14263145  0.51862403  1  0  -0.103861  0  3.705363  0  0  -0.129142  0  3.957189  0  0  -0.133591  0  3.979528  0  0  -0.075401  -0.125832  0  3.942032  0
C  C54  1  0.11136072  0.35736752  0.51862347  1  0  -0.103839  0  3.705329  0  0  -0.129108  0  3.95716  0  0  -0.133569  0  3.97949  0  0  -0.075391  -0.125798  0  3.942011  0
C  C55  1  0.85736700  0.88863958  0.01862308  1  0  -0.10388  0  3.705266  0  0  -0.129153  0  3.957107  0  0  -0.133597  0  3.979442  0  0  -0.075414  -0.125848  0  3.941962  0
C  C56  1  0.41303284  0.31513311  0.91481074  1  0  8e-05  0  3.69053  0  0  -0.017439  0  3.940614  0  0  -0.016321  0  3.960073  0  0  -0.062673  -0.017996  0  3.927221  0
C  C57  1  0.68486657  0.91303446  0.41480998  1  0  5.6e-05  0  3.690473  0  0  -0.017481  0  3.940586  0  0  -0.016361  0  3.960042  0  0  -0.062692  -0.018035  0  3.927184  0
C  C58  1  0.81513336  0.58696697  0.41481067  1  0  9.5e-05  0  3.690487  0  0  -0.017416  0  3.940564  0  0  -0.0163  0  3.960027  0  0  -0.062674  -0.017973  0  3.927167  0
C  C59  1  0.08696778  0.18486600  0.91481099  1  0  7.3e-05  0  3.69047  0  0  -0.017446  0  3.94055  0  0  -0.01633  0  3.960013  0  0  -0.062685  -0.018004  0  3.927155  0
C  C60  1  0.58696542  0.68486601  0.08518953  1  0  0.000119  0  3.690467  0  0  -0.017392  0  3.940547  0  0  -0.016273  0  3.960008  0  0  -0.062651  -0.017949  0  3.927153  0
C  C61  1  0.31513270  0.08696466  0.58518966  1  0  9.5e-05  0  3.690429  0  0  -0.01744  0  3.940544  0  0  -0.016321  0  3.960003  0  0  -0.062687  -0.017995  0  3.927146  0
C  C62  1  0.18486591  0.41303416  0.58518896  1  0  9.6e-05  0  3.690521  0  0  -0.017435  0  3.940612  0  0  -0.016316  0  3.960073  0  0  -0.062675  -0.017991  0  3.927216  0
C  C63  1  0.91303451  0.81513413  0.08518928  1  0  0.000119  0  3.690433  0  0  -0.017415  0  3.940524  0  0  -0.016295  0  3.959981  0  0  -0.062667  -0.01797  0  3.927125  0
C  C64  1  0.50725465  0.21506662  0.93272446  1  0  -0.088023  0  3.677108  0  0  -0.101609  0  3.922803  0  0  -0.106286  0  3.942636  0  0  -0.071356  -0.098592  0  3.909144  0
C  C65  1  0.78493471  0.00725644  0.43272468  1  0  -0.087978  0  3.677065  0  0  -0.101561  0  3.922772  0  0  -0.106237  0  3.942605  0  0  -0.071372  -0.098544  0  3.909116  0
C  C66  1  0.71506697  0.49274494  0.43272515  1  0  -0.088071  0  3.677055  0  0  -0.101663  0  3.922759  0  0  -0.106338  0  3.942589  0  0  -0.071359  -0.098645  0  3.909101  0
C  C67  1  0.99274449  0.28493365  0.93272477  1  0  -0.088037  0  3.677057  0  0  -0.101625  0  3.922755  0  0  -0.106301  0  3.942586  0  0  -0.07138  -0.098608  0  3.909095  0
C  C68  1  0.49274461  0.78493451  0.06727517  1  0  -0.088029  0  3.677069  0  0  -0.101629  0  3.922772  0  0  -0.106305  0  3.942604  0  0  -0.071385  -0.098612  0  3.909114  0
C  C69  1  0.21506455  0.99274369  0.56727559  1  0  -0.08798  0  3.677004  0  0  -0.101565  0  3.922725  0  0  -0.106241  0  3.942555  0  0  -0.071371  -0.098549  0  3.909068  0
C  C70  1  0.28493431  0.50725519  0.56727449  1  0  -0.088054  0  3.677095  0  0  -0.10161  0  3.922806  0  0  -0.106286  0  3.942635  0  0  -0.071359  -0.098594  0  3.909149  0
C  C71  1  0.00725477  0.71506547  0.06727486  1  0  -0.08805  0  3.677024  0  0  -0.101627  0  3.922728  0  0  -0.106305  0  3.942562  0  0  -0.071384  -0.09861  0  3.909071  0
C  C72  1  0.54408575  0.19351797  0.01677047  1  0  0.13859  0  3.693478  0  0  0.109269  0  3.943063  0  0  0.115382  0  3.961595  0  0  0.052336  0.105427  0  3.930227  0
C  C73  1  0.80648121  0.04408610  0.51677008  1  0  0.138626  0  3.693476  0  0  0.109307  0  3.943069  0  0  0.11542  0  3.961602  0  0  0.052362  0.105466  0  3.930233  0
C  C74  1  0.69351720  0.45591408  0.51677061  1  0  0.138655  0  3.693374  0  0  0.109327  0  3.942977  0  0  0.115442  0  3.961508  0  0  0.052347  0.105486  0  3.930142  0
C  C75  1  0.95591418  0.30648231  0.01677018  1  0  0.138667  0  3.693434  0  0  0.109347  0  3.943027  0  0  0.115461  0  3.961558  0  0  0.05237  0.105509  0  3.930192  0
C  C76  1  0.45591352  0.80648317  0.98322979  1  0  0.138636  0  3.693447  0  0  0.109347  0  3.943007  0  0  0.115462  0  3.961538  0  0  0.052388  0.105506  0  3.930172  0
C  C77  1  0.19351806  0.95591302  0.48322955  1  0  0.138635  0  3.693443  0  0  0.109304  0  3.943045  0  0  0.115419  0  3.961577  0  0  0.052358  0.105462  0  3.930211  0
C  C78  1  0.30648308  0.54408605  0.48322903  1  0  0.138702  0  3.693399  0  0  0.109375  0  3.942992  0  0  0.11549  0  3.961524  0  0  0.052364  0.105534  0  3.930158  0
C  C79  1  0.04408609  0.69351682  0.98322946  1  0  0.138661  0  3.693378  0  0  0.109331  0  3.942979  0  0  0.115445  0  3.96151  0  0  0.052369  0.10549  0  3.930142  0
C  C80  1  0.34254067  0.43708755  0.13803291  1  0  0.609043  0  3.906073  0  0  0.558544  0  4.193933  0  0  0.592702  0  4.188761  0  0  0.198395  0.535569  0  4.196348  0
C  C81  1  0.56291178  0.84254171  0.63803293  1  0  0.609088  0  3.905783  0  0  0.558592  0  4.193643  0  0  0.592749  0  4.188473  0  0  0.198413  0.535614  0  4.196059  0
C  C82  1  0.93708747  0.65745923  0.63803279  1  0  0.609068  0  3.905972  0  0  0.558583  0  4.19382  0  0  0.59274  0  4.188648  0  0  0.198395  0.535608  0  4.196235  0
C  C83  1  0.15745931  0.06291225  0.13803318  1  0  0.609061  0  3.906037  0  0  0.558559  0  4.193903  0  0  0.592717  0  4.188732  0  0  0.198406  0.535583  0  4.196317  0
C  C84  1  0.65745860  0.56291258  0.86196673  1  0  0.609069  0  3.905894  0  0  0.558577  0  4.193749  0  0  0.592734  0  4.18858  0  0  0.19841  0.535598  0  4.196165  0
C  C85  1  0.43708850  0.15745842  0.36196733  1  0  0.609134  0  3.905832  0  0  0.558639  0  4.193687  0  0  0.592797  0  4.188517  0  0  0.198436  0.53566  0  4.196104  0
C  C86  1  0.06291281  0.34254090  0.36196685  1  0  0.609023  0  3.906009  0  0  0.558538  0  4.193856  0  0  0.592695  0  4.188687  0  0  0.198394  0.535563  0  4.196272  0
C  C87  1  0.84254096  0.93708787  0.86196646  1  0  0.609091  0  3.905981  0  0  0.558588  0  4.193843  0  0  0.592746  0  4.188671  0  0  0.198427  0.535614  0  4.196255  0
N  N88  1  0.49164349  0.26513555  0.08062026  1  0  -0.344116  0  3.285814  0  0  -0.272414  0  3.542315  0  0  -0.291252  0  3.563326  0  0  -0.326846  -0.259563  0  3.527783  0
N  N89  1  0.73486475  0.99164378  0.58061950  1  0  -0.344073  0  3.285963  0  0  -0.272382  0  3.542464  0  0  -0.29122  0  3.563476  0  0  -0.326812  -0.259533  0  3.527928  0
N  N90  1  0.76513568  0.50835628  0.58062033  1  0  -0.344082  0  3.285814  0  0  -0.27239  0  3.542325  0  0  -0.29123  0  3.563337  0  0  -0.326826  -0.259539  0  3.527793  0
N  N91  1  0.00835667  0.23486438  0.08061993  1  0  -0.344145  0  3.285776  0  0  -0.272451  0  3.542291  0  0  -0.29129  0  3.563301  0  0  -0.326841  -0.259601  0  3.527756  0
N  N92  1  0.50835679  0.73486458  0.91938001  1  0  -0.344083  0  3.285802  0  0  -0.272406  0  3.542313  0  0  -0.291245  0  3.563321  0  0  -0.32686  -0.259559  0  3.527776  0
N  N93  1  0.26513553  0.00835635  0.41938077  1  0  -0.344056  0  3.285957  0  0  -0.272359  0  3.542458  0  0  -0.291199  0  3.56347  0  0  -0.326809  -0.259513  0  3.527923  0
N  N94  1  0.23486460  0.49164284  0.41937931  1  0  -0.34413  0  3.285781  0  0  -0.272435  0  3.542296  0  0  -0.291275  0  3.563307  0  0  -0.326836  -0.259585  0  3.527765  0
N  N95  1  0.99164361  0.76513575  0.91937970  1  0  -0.344072  0  3.285814  0  0  -0.272374  0  3.542322  0  0  -0.291213  0  3.563333  0  0  -0.326822  -0.259523  0  3.527789  0
Cl  Cl96  1  0.74165952  0.06502264  0.20722751  1  0  -0.557139  0  0.959672  0  0  -0.486808  0  1.235695  0  0  -0.506999  0  1.212001  0  0  -0.277048  -0.472031  0  1.252403  0
Cl  Cl97  1  0.93497795  0.24165928  0.70722766  1  0  -0.557138  0  0.959671  0  0  -0.486806  0  1.23569  0  0  -0.506996  0  1.211998  0  0  -0.277047  -0.47203  0  1.252403  0
Cl  Cl98  1  0.56502189  0.25834048  0.70722724  1  0  -0.557126  0  0.959653  0  0  -0.486809  0  1.235688  0  0  -0.506998  0  1.211994  0  0  -0.277045  -0.472024  0  1.252385  0
Cl  Cl99  1  0.75834084  0.43497823  0.20722734  1  0  -0.557153  0  0.959681  0  0  -0.486823  0  1.235707  0  0  -0.507015  0  1.212014  0  0  -0.277053  -0.472042  0  1.252407  0
Cl  Cl100  1  0.25834076  0.93497749  0.79277275  1  0  -0.557156  0  0.959688  0  0  -0.486822  0  1.235711  0  0  -0.507014  0  1.212018  0  0  -0.277052  -0.472046  0  1.25242  0
Cl  Cl101  1  0.06502233  0.75834085  0.29277261  1  0  -0.557157  0  0.959674  0  0  -0.486824  0  1.2357  0  0  -0.507017  0  1.212006  0  0  -0.277051  -0.472045  0  1.252402  0
Cl  Cl102  1  0.43497838  0.74165965  0.29277239  1  0  -0.55714  0  0.959653  0  0  -0.486814  0  1.235679  0  0  -0.507006  0  1.211984  0  0  -0.277053  -0.472036  0  1.252383  0
Cl  Cl103  1  0.24165943  0.56502291  0.79277229  1  0  -0.55715  0  0.959672  0  0  -0.48682  0  1.235698  0  0  -0.507012  0  1.212003  0  0  -0.277051  -0.472043  0  1.252405  0
O  O104  1  0.24876508  0.52095728  0.12671699  1  0  -0.586596  0  1.934508  0  0  -0.528384  0  2.164049  0  0  -0.555832  0  2.15699  0  0  -0.309419  -0.509013  0  2.167818  0
O  O105  1  0.47904216  0.74876394  0.62671645  1  0  -0.586631  0  1.934233  0  0  -0.528424  0  2.163788  0  0  -0.555864  0  2.156713  0  0  -0.309457  -0.509053  0  2.167558  0
O  O106  1  0.02095753  0.75123481  0.62671673  1  0  -0.586618  0  1.93448  0  0  -0.528408  0  2.164018  0  0  -0.555857  0  2.156962  0  0  -0.309426  -0.509037  0  2.167787  0
O  O107  1  0.25123513  0.97904257  0.12671742  1  0  -0.586607  0  1.934489  0  0  -0.528391  0  2.164041  0  0  -0.555837  0  2.156976  0  0  -0.309424  -0.509021  0  2.16781  0
O  O108  1  0.75123519  0.47904285  0.87328265  1  0  -0.586615  0  1.934386  0  0  -0.528407  0  2.163936  0  0  -0.55585  0  2.156869  0  0  -0.309438  -0.509036  0  2.167706  0
O  O109  1  0.52095711  0.25123619  0.37328318  1  0  -0.586669  0  1.934339  0  0  -0.52846  0  2.163896  0  0  -0.555907  0  2.156833  0  0  -0.309475  -0.50909  0  2.167667  0
O  O110  1  0.97904274  0.24876431  0.37328290  1  0  -0.586594  0  1.934481  0  0  -0.52839  0  2.164032  0  0  -0.555834  0  2.156964  0  0  -0.309429  -0.509019  0  2.167801  0
O  O111  1  0.74876414  0.02095756  0.87328285  1  0  -0.586617  0  1.934502  0  0  -0.528403  0  2.164042  0  0  -0.555856  0  2.156992  0  0  -0.309438  -0.509031  0  2.167809  0
O  O112  1  0.39254199  0.41347280  0.21165225  1  0  -0.628777  0  2.080721  0  0  -0.550992  0  2.339367  0  0  -0.583033  0  2.327976  0  0  -0.329221  -0.528321  0  2.346386  0
O  O113  1  0.58652733  0.89254214  0.71165163  1  0  -0.628741  0  2.080687  0  0  -0.55096  0  2.339338  0  0  -0.583  0  2.327947  0  0  -0.329201  -0.52829  0  2.346361  0
O  O114  1  0.91347270  0.60745864  0.71165219  1  0  -0.628786  0  2.080715  0  0  -0.551009  0  2.339364  0  0  -0.583049  0  2.327973  0  0  -0.329231  -0.528338  0  2.346384  0
O  O115  1  0.10745776  0.08652785  0.21165193  1  0  -0.628769  0  2.080698  0  0  -0.550978  0  2.339345  0  0  -0.58302  0  2.327954  0  0  -0.329218  -0.528306  0  2.346365  0
O  O116  1  0.60745829  0.58652733  0.78834802  1  0  -0.628779  0  2.080733  0  0  -0.550998  0  2.339377  0  0  -0.583039  0  2.327987  0  0  -0.329222  -0.528327  0  2.346399  0
O  O117  1  0.41347194  0.10745900  0.28834801  1  0  -0.628754  0  2.080673  0  0  -0.550966  0  2.339312  0  0  -0.583009  0  2.327922  0  0  -0.329212  -0.528297  0  2.346334  0
O  O118  1  0.08652757  0.39254149  0.28834808  1  0  -0.628764  0  2.080719  0  0  -0.550983  0  2.339364  0  0  -0.583024  0  2.327974  0  0  -0.329226  -0.528313  0  2.346385  0
O  O119  1  0.89254150  0.91347228  0.78834770  1  0  -0.628784  0  2.080708  0  0  -0.550995  0  2.339351  0  0  -0.583035  0  2.32796  0  0  -0.329224  -0.528322  0  2.346368  0
