# generated using pymatgen
data_CdH13C20N5O6
_symmetry_space_group_name_H-M   'P 1'
_cell_length_a   10.43328286
_cell_length_b   11.22237206
_cell_length_c   18.05286609
_cell_angle_alpha   90.00022187
_cell_angle_beta   90.00071993
_cell_angle_gamma   103.05470432
_symmetry_Int_Tables_number   1
_chemical_formula_structural   CdH13C20N5O6
_chemical_formula_sum   'Cd4 H52 C80 N20 O24'
_cell_volume   2059.11119502
_cell_formula_units_Z   4
loop_
 _symmetry_equiv_pos_site_id
 _symmetry_equiv_pos_as_xyz
  1  'x, y, z'
loop_
 _atom_site_type_symbol
 _atom_site_label
 _atom_site_symmetry_multiplicity
 _atom_site_fract_x
 _atom_site_fract_y
 _atom_site_fract_z
 _atom_site_occupancy
 _atom_site_pbe_bader_charge
 _atom_site_pbe_bader_spin_density
 _atom_site_pbe_cm5_charge
 _atom_site_pbe_ddec_charge
 _atom_site_pbe_ddec_spin_density
 _atom_site_pbe_ddec_sum_bond_order
 _atom_site_pbe_magmom
Cd  Cd0  1  0.61853356  0.94344857  0.07883021  1  1.265444  0  0.782104  0.903114  0  2.156756  0
Cd  Cd1  1  0.88147159  0.05655732  0.57883550  1  1.265283  0  0.782137  0.903163  0  2.156656  0
Cd  Cd2  1  0.38149017  0.05656083  0.92115936  1  1.265178  0  0.782094  0.903113  0  2.156809  0
Cd  Cd3  1  0.11851527  0.94343831  0.42116847  1  1.265338  0  0.782132  0.903056  0  2.156893  0
H  H4  1  0.63942916  0.35990875  0.74809784  1  0.064575  0  0.099553  0.095537  0  1.033394  0
H  H5  1  0.86051756  0.64005053  0.24808476  1  0.064258  0  0.09956  0.095548  0  1.033378  0
H  H6  1  0.36050734  0.64004109  0.25191499  1  0.06477  0  0.09956  0.095534  0  1.033404  0
H  H7  1  0.13946436  0.35992863  0.75190758  1  0.06472  0  0.099566  0.095478  0  1.033418  0
H  H8  1  0.54062590  0.50478286  0.81357036  1  0.07105  0  0.10248  0.108094  0  1.026738  0
H  H9  1  0.95933155  0.49518724  0.31356042  1  0.070665  0  0.102469  0.10797  0  1.0268  0
H  H10  1  0.45932159  0.49518072  0.18643915  1  0.070696  0  0.102499  0.108005  0  1.026864  0
H  H11  1  0.04065140  0.50480015  0.68643690  1  0.070664  0  0.102461  0.108  0  1.026804  0
H  H12  1  0.81025586  0.50663299  0.99563552  1  0.065793  0  0.10278  0.103025  0  0.998561  0
H  H13  1  0.68977013  0.49340237  0.49564187  1  0.066578  0  0.102798  0.103012  0  0.99873  0
H  H14  1  0.18976336  0.49339743  0.00435128  1  0.066401  0  0.1028  0.103037  0  0.998589  0
H  H15  1  0.31023826  0.50661889  0.50436321  1  0.066691  0  0.102786  0.103013  0  0.998617  0
H  H16  1  0.91048324  0.35996475  0.92899367  1  0.051628  0  0.103569  0.106108  0  0.991686  0
H  H17  1  0.58953444  0.64005795  0.42900018  1  0.051453  0  0.10361  0.106179  0  0.99168  0
H  H18  1  0.08952780  0.64005560  0.07099424  1  0.051563  0  0.103595  0.106197  0  0.991552  0
H  H19  1  0.41047314  0.35995599  0.57100157  1  0.051459  0  0.103566  0.106129  0  0.991663  0
H  H20  1  0.74281034  0.25526188  0.67721684  1  0.106803  0  0.114013  0.111134  0  1.033156  0
H  H21  1  0.75718708  0.74474695  0.17721819  1  0.106845  0  0.113969  0.110983  0  1.033198  0
H  H22  1  0.25716170  0.74472001  0.32278991  1  0.106825  0  0.113972  0.111063  0  1.033082  0
H  H23  1  0.24282020  0.25525785  0.82278135  1  0.106932  0  0.11402  0.111118  0  1.033142  0
H  H24  1  0.02925930  0.07646653  0.75394032  1  0.125267  0  0.133654  0.099415  0  1.012767  0
H  H25  1  0.47072248  0.92352884  0.25393591  1  0.126143  0  0.133636  0.099377  0  1.01283  0
H  H26  1  0.97073317  0.92353643  0.24605812  1  0.125106  0  0.133635  0.099376  0  1.012749  0
H  H27  1  0.52927124  0.07647137  0.74605145  1  0.125063  0  0.133624  0.099295  0  1.012833  0
H  H28  1  0.75513030  0.70728549  0.03207110  1  0.135217  0  0.115525  0.123979  0  1.02451  0
H  H29  1  0.74487070  0.29272717  0.53207539  1  0.135471  0  0.115518  0.12398  0  1.024437  0
H  H30  1  0.24486718  0.29271838  0.96792401  1  0.135233  0  0.115544  0.124047  0  1.024459  0
H  H31  1  0.25512870  0.70727671  0.46793080  1  0.135239  0  0.115523  0.124025  0  1.024454  0
H  H32  1  0.38662085  0.76634099  0.96816494  1  0.164214  0  0.143502  0.116168  0  0.974829  0
H  H33  1  0.11338410  0.23367971  0.46817234  1  0.164246  0  0.143567  0.116222  0  0.975034  0
H  H34  1  0.61338864  0.23368484  0.03182131  1  0.164378  0  0.143566  0.116176  0  0.975013  0
H  H35  1  0.88661051  0.76632416  0.53183053  1  0.164186  0  0.143535  0.11623  0  0.974889  0
H  H36  1  0.96666373  0.19813257  0.18208181  1  0.149998  0  0.116646  0.130286  0  1.025749  0
H  H37  1  0.53337040  0.80185716  0.68205694  1  0.150706  0  0.116593  0.130255  0  1.025708  0
H  H38  1  0.03336893  0.80185031  0.81794210  1  0.150682  0  0.116585  0.130232  0  1.025765  0
H  H39  1  0.46663703  0.19815222  0.31794593  1  0.150801  0  0.116563  0.130206  0  1.025868  0
H  H40  1  0.38108962  0.21002495  0.21096926  1  0.149536  0  0.112219  0.117979  0  1.057635  0
H  H41  1  0.11893663  0.78994804  0.71098210  1  0.149117  0  0.112254  0.118011  0  1.057599  0
H  H42  1  0.61894710  0.78997075  0.78901865  1  0.149314  0  0.112264  0.118027  0  1.05743  0
H  H43  1  0.88107044  0.21004396  0.28903239  1  0.149519  0  0.112271  0.118001  0  1.057528  0
H  H44  1  0.15241534  0.95674621  0.05676608  1  0.13912  0  0.110426  0.115145  0  1.022945  0
H  H45  1  0.34757118  0.04326246  0.55678051  1  0.139161  0  0.110357  0.115108  0  1.022927  0
H  H46  1  0.84760072  0.04327506  0.94322238  1  0.139042  0  0.110335  0.115065  0  1.023025  0
H  H47  1  0.65240949  0.95673133  0.44322568  1  0.139106  0  0.110389  0.115102  0  1.022971  0
H  H48  1  0.43529814  0.60020882  0.88436604  1  0.510814  0  0.324558  0.280935  0  0.951435  0
H  H49  1  0.06469749  0.39979263  0.38436959  1  0.510861  0  0.324588  0.280984  0  0.951421  0
H  H50  1  0.56469993  0.39980146  0.11562851  1  0.510853  0  0.324577  0.281032  0  0.95125  0
H  H51  1  0.93530014  0.60020393  0.61563161  1  0.510806  0  0.324591  0.280951  0  0.951374  0
H  H52  1  0.97903861  0.19828121  0.86064115  1  0.546863  0  0.315733  0.285902  0  0.961067  0
H  H53  1  0.52093406  0.80171597  0.36063701  1  0.546845  0  0.315674  0.285772  0  0.961139  0
H  H54  1  0.02094530  0.80171808  0.13936117  1  0.546796  0  0.315705  0.285801  0  0.961137  0
H  H55  1  0.47904624  0.19828423  0.63935311  1  0.546687  0  0.315712  0.285828  0  0.961222  0
C  C56  1  0.67775209  0.39127747  0.80241904  1  0.09355  0  -0.09067  -0.107525  0  3.984417  0
C  C57  1  0.82221689  0.60870166  0.30241335  1  0.093883  0  -0.090661  -0.107442  0  3.98475  0
C  C58  1  0.32220986  0.60869436  0.19758881  1  0.093244  0  -0.090604  -0.107438  0  3.984752  0
C  C59  1  0.17776747  0.39128756  0.69758232  1  0.09318  0  -0.090618  -0.107364  0  3.984515  0
C  C60  1  0.62081366  0.47335677  0.84009660  1  -0.147968  0  -0.0959  -0.126514  0  3.977832  0
C  C61  1  0.87915873  0.52662920  0.34009335  1  -0.147299  0  -0.095968  -0.126546  0  3.977806  0
C  C62  1  0.37915432  0.52662421  0.15990793  1  -0.147355  0  -0.095975  -0.126548  0  3.977855  0
C  C63  1  0.12082909  0.47336643  0.65990785  1  -0.147178  0  -0.095964  -0.126535  0  3.977874  0
C  C64  1  0.66822772  0.51808063  0.91000927  1  0.031009  0  -0.014426  0.041752  0  4.063096  0
C  C65  1  0.83176686  0.48192353  0.41001166  1  0.031413  0  -0.014371  0.041839  0  4.062915  0
C  C66  1  0.33176600  0.48191958  0.08998806  1  0.03148  0  -0.014401  0.041903  0  4.062936  0
C  C67  1  0.16823180  0.51808126  0.58999287  1  0.031279  0  -0.014481  0.041684  0  4.063008  0
C  C68  1  0.77316637  0.47497415  0.94091107  1  -0.053291  0  -0.089984  -0.12165  0  3.993001  0
C  C69  1  0.72683596  0.52503953  0.44091279  1  -0.054488  0  -0.090124  -0.121841  0  3.993231  0
C  C70  1  0.22683125  0.52503430  0.05908515  1  -0.054374  0  -0.09008  -0.121852  0  3.99306  0
C  C71  1  0.27316424  0.47497167  0.55908952  1  -0.054168  0  -0.089942  -0.121585  0  3.993051  0
C  C72  1  0.82972595  0.39169553  0.90310112  1  0.050008  0  -0.090564  -0.119009  0  3.979181  0
C  C73  1  0.67027598  0.60831588  0.40310317  1  0.050307  0  -0.090569  -0.118945  0  3.979267  0
C  C74  1  0.17027005  0.60831017  0.09689455  1  0.050191  0  -0.090648  -0.119114  0  3.979176  0
C  C75  1  0.32972636  0.39169623  0.59689693  1  0.050041  0  -0.090643  -0.119105  0  3.979359  0
C  C76  1  0.78376602  0.34888469  0.83255088  1  -0.068999  0  -0.010226  0.047239  0  4.053166  0
C  C77  1  0.71621423  0.65110668  0.33254894  1  -0.069456  0  -0.010141  0.047252  0  4.05347  0
C  C78  1  0.21620536  0.65109446  0.16745420  1  -0.069574  0  -0.010143  0.047334  0  4.053365  0
C  C79  1  0.28377639  0.34889261  0.66744838  1  -0.06906  0  -0.010157  0.047274  0  4.053248  0
C  C80  1  0.84010071  0.26540550  0.78822285  1  0.310423  0  0.082467  0.109057  0  3.999573  0
C  C81  1  0.65988886  0.73459270  0.28822291  1  0.310207  0  0.082466  0.108985  0  3.999475  0
C  C82  1  0.15987737  0.73458555  0.21177669  1  0.310478  0  0.082523  0.109058  0  3.99942  0
C  C83  1  0.34011017  0.26540569  0.71177054  1  0.309909  0  0.082548  0.109092  0  3.999441  0
C  C84  1  0.81164780  0.22919548  0.71539936  1  0.445083  0  -0.003172  -0.086633  0  3.97437  0
C  C85  1  0.68834347  0.77080829  0.21539971  1  0.444762  0  -0.003127  -0.086448  0  3.974327  0
C  C86  1  0.18832557  0.77079191  0.28460295  1  0.444751  0  -0.003116  -0.086511  0  3.974206  0
C  C87  1  0.31166145  0.22919468  0.78459484  1  0.444925  0  -0.003153  -0.086557  0  3.974558  0
C  C88  1  0.95998754  0.13507243  0.75207541  1  1.036398  0  0.14244  0.156669  0  3.95722  0
C  C89  1  0.53999740  0.86492169  0.25207213  1  1.034994  0  0.142452  0.156761  0  3.957312  0
C  C90  1  0.04000028  0.86492320  0.24792468  1  1.036036  0  0.14253  0.156899  0  3.957099  0
C  C91  1  0.45999610  0.13507761  0.74791634  1  1.036989  0  0.142646  0.156991  0  3.957285  0
C  C92  1  0.61242984  0.60869856  0.94782754  1  0.331587  0  0.081795  0.108349  0  4.027745  0
C  C93  1  0.88757001  0.39130422  0.44782958  1  0.332568  0  0.081711  0.108213  0  4.027657  0
C  C94  1  0.38755820  0.39129799  0.05216868  1  0.332422  0  0.081791  0.108243  0  4.027847  0
C  C95  1  0.11242843  0.60869966  0.55217440  1  0.331455  0  0.081788  0.108354  0  4.027635  0
C  C96  1  0.66097495  0.69041612  0.00394888  1  0.421249  0  -0.004822  -0.093128  0  3.957705  0
C  C97  1  0.83903038  0.30959714  0.50395612  1  0.420814  0  -0.004791  -0.093089  0  3.957474  0
C  C98  1  0.33902289  0.30959324  0.99604180  1  0.421101  0  -0.004801  -0.093077  0  3.957696  0
C  C99  1  0.16096968  0.69040948  0.49605007  1  0.421639  0  -0.004829  -0.093284  0  3.957598  0
C  C100  1  0.47232630  0.72726893  0.97163557  1  0.991133  0  0.151771  0.170622  0  3.935733  0
C  C101  1  0.02768102  0.27274542  0.47164188  1  0.990928  0  0.151555  0.170375  0  3.936135  0
C  C102  1  0.52768068  0.27275050  0.02835400  1  0.990579  0  0.151747  0.170585  0  3.93591  0
C  C103  1  0.97231882  0.72726029  0.52836154  1  0.991025  0  0.151649  0.170439  0  3.936076  0
C  C104  1  0.04511699  0.06940728  0.11700937  1  0.034625  0  -0.010518  -0.019314  0  3.949487  0
C  C105  1  0.45489518  0.93059114  0.61700342  1  0.03386  0  -0.010253  -0.01913  0  3.948859  0
C  C106  1  0.95490690  0.93059480  0.88299737  1  0.034195  0  -0.010256  -0.019091  0  3.94902  0
C  C107  1  0.54509950  0.06940907  0.38300056  1  0.034082  0  -0.01015  -0.018898  0  3.949078  0
C  C108  1  0.05375233  0.16488104  0.16780920  1  0.018053  0  -0.061135  -0.116635  0  3.880399  0
C  C109  1  0.44626660  0.83510517  0.66779576  1  0.016573  0  -0.061105  -0.11635  0  3.879699  0
C  C110  1  0.94627355  0.83510550  0.83220474  1  0.016352  0  -0.061101  -0.116363  0  3.879647  0
C  C111  1  0.55373117  0.16489596  0.33220987  1  0.016415  0  -0.061108  -0.116468  0  3.879859  0
C  C112  1  0.17472967  0.21173157  0.20209346  1  0.190211  0  0.080242  0.070195  0  3.933099  0
C  C113  1  0.32529356  0.78824954  0.70208178  1  0.190428  0  0.080059  0.069595  0  3.933346  0
C  C114  1  0.82530027  0.78825588  0.79791439  1  0.190716  0  0.080033  0.069703  0  3.933239  0
C  C115  1  0.67470620  0.21174794  0.29792108  1  0.191045  0  0.080061  0.069719  0  3.933195  0
C  C116  1  0.28775105  0.17155128  0.18407564  1  0.028989  0  -0.065588  -0.119995  0  3.901216  0
C  C117  1  0.21226408  0.82842962  0.68408039  1  0.029233  0  -0.065529  -0.119675  0  3.901419  0
C  C118  1  0.71228198  0.82844899  0.81592114  1  0.029486  0  -0.065454  -0.119651  0  3.901132  0
C  C119  1  0.78772994  0.17156785  0.31593244  1  0.028717  0  -0.065601  -0.11978  0  3.901275  0
C  C120  1  0.15826784  0.02993765  0.09714918  1  -0.107766  0  -0.063237  -0.088433  0  3.908574  0
C  C121  1  0.34173241  0.97005687  0.59715911  1  -0.107907  0  -0.063346  -0.088516  0  3.908332  0
C  C122  1  0.84175287  0.97006717  0.90284704  1  -0.107748  0  -0.063286  -0.088527  0  3.908534  0
C  C123  1  0.65825401  0.02993693  0.40285041  1  -0.108494  0  -0.063389  -0.088619  0  3.908683  0
C  C124  1  0.27954422  0.08158934  0.12964148  1  0.024641  0  -0.01422  -0.014468  0  3.958018  0
C  C125  1  0.22046125  0.91840006  0.62965593  1  0.023392  0  -0.014259  -0.014646  0  3.957837  0
C  C126  1  0.72047863  0.91841639  0.87034920  1  0.023176  0  -0.014337  -0.014594  0  3.957714  0
C  C127  1  0.77953210  0.08159466  0.37035912  1  0.025524  0  -0.014278  -0.014639  0  3.957816  0
C  C128  1  0.39881116  0.03628338  0.10848512  1  1.541269  0  0.189476  0.550197  0  4.237955  0
C  C129  1  0.10119210  0.96371859  0.60850821  1  1.543811  0  0.189583  0.550106  0  4.237457  0
C  C130  1  0.60120645  0.96373241  0.89149060  1  1.542931  0  0.18946  0.549975  0  4.237625  0
C  C131  1  0.89881099  0.03628072  0.39150407  1  1.541212  0  0.189502  0.550141  0  4.237571  0
C  C132  1  0.91237637  0.99746703  0.09194451  1  1.571962  0  0.201184  0.572738  0  4.228079  0
C  C133  1  0.58762586  0.00254540  0.59194031  1  1.571939  0  0.201196  0.572718  0  4.227954  0
C  C134  1  0.08764766  0.00255150  0.90805614  1  1.571202  0  0.201145  0.572492  0  4.228252  0
C  C135  1  0.41236351  0.99745663  0.40806034  1  1.571541  0  0.201162  0.572599  0  4.228041  0
N  N136  1  0.57342274  0.76316731  0.01769660  1  -1.221834  0  -0.363403  -0.303928  0  3.557351  0
N  N137  1  0.92658602  0.23684704  0.51770265  1  -1.222259  0  -0.363291  -0.303863  0  3.55725  0
N  N138  1  0.42658189  0.23685029  0.98229297  1  -1.222131  0  -0.363429  -0.303996  0  3.557316  0
N  N139  1  0.07341308  0.76315958  0.48230077  1  -1.222158  0  -0.363362  -0.303835  0  3.557316  0
N  N140  1  0.49260304  0.63470626  0.92864846  1  -1.261874  0  -0.375421  -0.251169  0  3.663992  0
N  N141  1  0.00739904  0.36530210  0.42865317  1  -1.262267  0  -0.375356  -0.25105  0  3.664032  0
N  N142  1  0.50739215  0.36530401  0.07134388  1  -1.262095  0  -0.375498  -0.251246  0  3.663947  0
N  N143  1  0.99260220  0.63470544  0.57134970  1  -1.261914  0  -0.375354  -0.250988  0  3.66399  0
N  N144  1  0.88588059  0.14858228  0.69418407  1  -1.234941  0  -0.358668  -0.299191  0  3.536664  0
N  N145  1  0.61410826  0.85142124  0.19418130  1  -1.23435  0  -0.358636  -0.299279  0  3.536517  0
N  N146  1  0.11409647  0.85141242  0.30582045  1  -1.234161  0  -0.358662  -0.299286  0  3.536542  0
N  N147  1  0.38589557  0.14857715  0.80580938  1  -1.235039  0  -0.358777  -0.299448  0  3.536625  0
N  N148  1  0.93620920  0.20450465  0.80976708  1  -1.319427  0  -0.376241  -0.25907  0  3.649921  0
N  N149  1  0.56377190  0.79548830  0.30976380  1  -1.31883  0  -0.376211  -0.258886  0  3.649666  0
N  N150  1  0.06377169  0.79549006  0.19023412  1  -1.318919  0  -0.376343  -0.259097  0  3.649813  0
N  N151  1  0.43622137  0.20451008  0.69022577  1  -1.319046  0  -0.376391  -0.259064  0  3.649783  0
N  N152  1  0.18277638  0.30166133  0.26178827  1  0.361985  0  0.062135  0.525959  0  4.179223  0
N  N153  1  0.31726548  0.69832415  0.76177466  1  0.363486  0  0.062202  0.526385  0  4.178701  0
N  N154  1  0.81725599  0.69832430  0.73822457  1  0.363162  0  0.061952  0.526006  0  4.178907  0
N  N155  1  0.68274867  0.30167334  0.23823042  1  0.362372  0  0.062048  0.526178  0  4.178889  0
O  O156  1  0.89822993  0.88308511  0.08443582  1  -1.156994  0  -0.326566  -0.573099  0  2.126806  0
O  O157  1  0.60176666  0.11692449  0.58443033  1  -1.156844  0  -0.326535  -0.573049  0  2.12681  0
O  O158  1  0.10179388  0.11693252  0.91556317  1  -1.156677  0  -0.326653  -0.572997  0  2.126831  0
O  O159  1  0.39821533  0.88307479  0.41556035  1  -1.156832  0  -0.326595  -0.573005  0  2.126768  0
O  O160  1  0.82277890  0.05781451  0.08364688  1  -1.158349  0  -0.335571  -0.54347  0  2.236223  0
O  O161  1  0.67722873  0.94220516  0.58364334  1  -1.157827  0  -0.335697  -0.543593  0  2.236121  0
O  O162  1  0.17724778  0.94220312  0.91635100  1  -1.157529  0  -0.335579  -0.543518  0  2.236275  0
O  O163  1  0.32276108  0.05779871  0.41636229  1  -1.157524  0  -0.33565  -0.543573  0  2.236173  0
O  O164  1  0.39076610  0.96231269  0.05370264  1  -1.179006  0  -0.332684  -0.574242  0  2.24483  0
O  O165  1  0.10922868  0.03769870  0.55373025  1  -1.179335  0  -0.332791  -0.574194  0  2.244552  0
O  O166  1  0.60925010  0.03771315  0.94627087  1  -1.178736  0  -0.332637  -0.574065  0  2.244641  0
O  O167  1  0.89076578  0.96230060  0.44628480  1  -1.178738  0  -0.332689  -0.574237  0  2.244658  0
O  O168  1  0.50361229  0.07207510  0.14603637  1  -1.159701  0  -0.326536  -0.545424  0  2.194259  0
O  O169  1  0.99639730  0.92791144  0.64606340  1  -1.159904  0  -0.326527  -0.545384  0  2.194026  0
O  O170  1  0.49641115  0.92792514  0.85393547  1  -1.159748  0  -0.326488  -0.545344  0  2.1941  0
O  O171  1  0.00360085  0.07208329  0.35394777  1  -1.15977  0  -0.326474  -0.545271  0  2.194252  0
O  O172  1  0.28145738  0.32270729  0.30213018  1  -0.453378  0  -0.125781  -0.32527  0  1.912926  0
O  O173  1  0.21859909  0.67727958  0.80212576  1  -0.454398  0  -0.125677  -0.325426  0  1.912946  0
O  O174  1  0.71858074  0.67727835  0.69787103  1  -0.454415  0  -0.12565  -0.325369  0  1.912804  0
O  O175  1  0.78142605  0.32271976  0.19788541  1  -0.453686  0  -0.125655  -0.325394  0  1.912716  0
O  O176  1  0.08856456  0.35221611  0.26984543  1  -0.504817  0  -0.132906  -0.361311  0  1.998374  0
O  O177  1  0.41147668  0.64776214  0.76982243  1  -0.505131  0  -0.132981  -0.361491  0  1.998281  0
O  O178  1  0.91145299  0.64775578  0.73017682  1  -0.505034  0  -0.132801  -0.361216  0  1.998465  0
O  O179  1  0.58854138  0.35223170  0.23017324  1  -0.504886  0  -0.132889  -0.36132  0  1.998489  0
