# generated using pymatgen
data_CoH20C24N8(ClO2)2
_symmetry_space_group_name_H-M   'P 1'
_cell_length_a   8.27572285
_cell_length_b   10.00372875
_cell_length_c   9.93781300
_cell_angle_alpha   56.64684784
_cell_angle_beta   86.10147473
_cell_angle_gamma   81.16627790
_symmetry_Int_Tables_number   1
_chemical_formula_structural   CoH20C24N8(ClO2)2
_chemical_formula_sum   'Co1 H20 C24 N8 Cl2 O4'
_cell_volume   678.94006689
_cell_formula_units_Z   1
loop_
 _symmetry_equiv_pos_site_id
 _symmetry_equiv_pos_as_xyz
  1  'x, y, z'
loop_
 _atom_site_type_symbol
 _atom_site_label
 _atom_site_symmetry_multiplicity
 _atom_site_fract_x
 _atom_site_fract_y
 _atom_site_fract_z
 _atom_site_occupancy
 _atom_site_hle17_ddec_charge
 _atom_site_hle17_ddec_spin_density
 _atom_site_hle17_ddec_sum_bond_order
 _atom_site_hle17_magmom
 _atom_site_hse06_10hf_ddec_charge
 _atom_site_hse06_10hf_ddec_spin_density
 _atom_site_hse06_10hf_ddec_sum_bond_order
 _atom_site_hse06_10hf_magmom
 _atom_site_hse06_ddec_charge
 _atom_site_hse06_ddec_spin_density
 _atom_site_hse06_ddec_sum_bond_order
 _atom_site_hse06_magmom
 _atom_site_pbe_cm5_charge
 _atom_site_pbe_ddec_charge
 _atom_site_pbe_ddec_spin_density
 _atom_site_pbe_ddec_sum_bond_order
 _atom_site_pbe_magmom
Co  Co0  1  0.99999418  0.50000146  0.50000326  1  0.501504  -1.099206  2.563873  -0.959  0.486706  -1.023251  2.965438  -0.935  0.549452  -1.025447  2.906199  -0.952  0.596959  0.45382  -1.013252  2.998295  -0.909
H  H1  1  0.96475550  0.85188810  0.30568496  1  0.105302  0.000197  0.958291  0.0  0.111014  0.000221  1.020755  0.0  0.114306  0.000177  1.017117  0.0  0.1119  0.107757  0.00025  1.024662  0.0
H  H2  1  0.03525895  0.14811608  0.69431801  1  0.105327  0.000198  0.958315  0.0  0.111021  0.000221  1.020774  0.0  0.114313  0.000177  1.017138  0.0  0.11189  0.107725  0.00025  1.024725  0.0
H  H3  1  0.83544724  0.50955180  0.76944830  1  0.101694  0.000314  0.994463  0.0  0.105545  0.000296  1.062  0.0  0.108991  0.00022  1.057477  0.0  0.113107  0.102724  0.000331  1.065393  0.0
H  H4  1  0.16453047  0.49045575  0.23054089  1  0.101836  0.000315  0.994408  0.0  0.105624  0.000296  1.062008  0.0  0.109069  0.000221  1.057489  0.0  0.113148  0.102802  0.000331  1.065398  0.0
H  H5  1  0.78539664  0.33698076  0.77734841  1  0.103485  0.000326  1.000479  0.0  0.10819  0.000295  1.064608  0.0  0.111391  0.000226  1.060495  0.0  0.111135  0.105697  0.000347  1.067422  0.0
H  H6  1  0.21458661  0.66301507  0.22265763  1  0.103461  0.000327  1.000495  0.0  0.108172  0.000295  1.064643  0.0  0.111373  0.000227  1.060527  0.0  0.111102  0.105663  0.000347  1.067479  0.0
H  H7  1  0.79875176  0.44792968  0.31023855  1  0.093098  0.000294  0.973203  0.0  0.098427  0.000324  1.038573  0.0  0.10125  0.00025  1.035637  0.0  0.104873  0.095725  0.00034  1.041706  0.0
H  H8  1  0.20124929  0.55207215  0.68976388  1  0.093136  0.000293  0.973218  0.0  0.09849  0.000324  1.038542  0.0  0.101314  0.00025  1.035606  0.0  0.104893  0.095784  0.00034  1.041682  0.0
H  H9  1  0.84882038  0.07693766  0.33988703  1  0.111888  0.000285  0.925657  0.0  0.125342  1.3e-05  0.974438  0.0  0.127931  2.6e-05  0.974797  0.0  0.112976  0.123389  -3.3e-05  0.974571  0.0
H  H10  1  0.15119376  0.92306597  0.66011215  1  0.111946  0.000284  0.925626  0.0  0.1254  1.3e-05  0.974401  0.0  0.127987  2.6e-05  0.974764  0.0  0.112971  0.123464  -3.2e-05  0.974512  0.0
H  H11  1  0.54598699  0.32246570  0.34984005  1  0.10259  0.000292  0.96425  0.0  0.110527  4e-05  1.026093  0.0  0.112746  4.2e-05  1.026785  0.0  0.104668  0.109432  3e-05  1.02483  0.0
H  H12  1  0.45402922  0.67751042  0.65017122  1  0.102609  0.000293  0.964192  0.0  0.110539  4e-05  1.026033  0.0  0.112759  4.2e-05  1.026726  0.0  0.104672  0.109447  3e-05  1.024765  0.0
H  H13  1  0.70177180  0.01317781  0.59467513  1  0.11572  -1.3e-05  0.981673  0.0  0.122919  0.000124  1.045835  0.0  0.12604  7.1e-05  1.043729  0.0  0.106505  0.120381  0.000266  1.04816  0.0
H  H14  1  0.29823665  0.98683478  0.40531862  1  0.115748  -1.3e-05  0.981708  0.0  0.122925  0.000125  1.045877  0.0  0.126043  7.1e-05  1.043775  0.0  0.106508  0.120387  0.000266  1.048204  0.0
H  H15  1  0.62716933  0.59134833  0.89814401  1  0.317655  0.0  0.9075  0.0  0.294524  1e-05  0.9809  0.0  0.302794  5e-06  0.973901  0.0  0.313581  0.288462  1e-05  0.986084  0.0
H  H16  1  0.37283164  0.40866499  0.10184819  1  0.317733  0.0  0.907552  0.0  0.29454  1e-05  0.981037  0.0  0.30281  5e-06  0.974039  0.0  0.31362  0.288474  1e-05  0.986225  0.0
H  H17  1  0.39965484  0.16414551  0.87862626  1  0.316893  1.2e-05  0.864495  0.0  0.296576  -4.4e-05  0.929431  0.0  0.305003  -2e-05  0.922484  0.0  0.318634  0.290271  -4.1e-05  0.934943  0.0
H  H18  1  0.60033513  0.83585295  0.12137380  1  0.316986  1.2e-05  0.864511  0.0  0.296595  -4.4e-05  0.929544  0.0  0.305023  -2e-05  0.922596  0.0  0.318634  0.290292  -4.1e-05  0.935058  0.0
H  H19  1  0.39260373  0.22483235  0.60954466  1  0.11076  7.2e-05  0.95268  0.0  0.118992  0.000204  1.017286  0.0  0.121293  0.000129  1.016445  0.0  0.110263  0.117284  0.000272  1.018111  0.0
H  H20  1  0.60739545  0.77515297  0.39045723  1  0.110737  7.2e-05  0.952667  0.0  0.118984  0.000204  1.017259  0.0  0.121287  0.000129  1.016416  0.0  0.110234  0.117273  0.000272  1.018092  0.0
C  C21  1  0.90651820  0.82847636  0.41669464  1  0.094612  0.014123  3.659481  0.01  0.05879  0.00518  3.919595  0.003  0.068719  0.00432  3.933986  0.003  0.034211  0.050684  0.005957  3.914224  0.004
C  C22  1  0.09349155  0.17152363  0.58330868  1  0.09456  0.014099  3.659506  0.01  0.05875  0.005176  3.919581  0.003  0.068678  0.004318  3.933958  0.003  0.03415  0.050676  0.005952  3.914233  0.004
C  C23  1  0.82767023  0.63627989  0.67280722  1  0.020739  0.014249  3.6246  0.01  -0.016972  0.005296  3.883778  0.003  -0.008676  0.004236  3.897252  0.003  0.042801  -0.024024  0.006653  3.876814  0.004
C  C24  1  0.17232593  0.36372941  0.32718425  1  0.020555  0.014234  3.624639  0.01  -0.017104  0.005291  3.883745  0.003  -0.008815  0.004235  3.897224  0.003  0.042812  -0.024155  0.00665  3.876788  0.004
C  C25  1  0.72112791  0.34516789  0.68113888  1  0.031611  0.013799  3.607564  0.009  -0.005391  0.00541  3.860323  0.003  0.003384  0.004347  3.873651  0.003  0.045374  -0.010662  0.006086  3.851262  0.004
C  C26  1  0.27886124  0.65482896  0.31886505  1  0.031547  0.013815  3.60751  0.009  -0.005513  0.005406  3.860383  0.003  0.003268  0.004348  3.873701  0.003  0.045354  -0.010778  0.006085  3.851338  0.004
C  C27  1  0.73375848  0.39568073  0.42335790  1  0.097684  0.013374  3.662861  0.009  0.061382  0.00505  3.92394  0.003  0.071342  0.004196  3.939116  0.003  0.031004  0.054302  0.005903  3.914905  0.004
C  C28  1  0.26623900  0.60430980  0.57665507  1  0.097639  0.013392  3.662977  0.009  0.061344  0.005048  3.923993  0.003  0.071303  0.004196  3.939173  0.003  0.030964  0.054264  0.005902  3.914957  0.004
C  C29  1  0.83839694  0.95239889  0.43656775  1  -0.10661  -0.003931  3.770059  -0.005  -0.117942  -0.000598  4.02542  -0.001  -0.125061  -0.000812  4.046455  -0.001  -0.084924  -0.113663  -0.000432  4.013528  -0.001
C  C30  1  0.16161255  0.04760572  0.56343455  1  -0.106721  -0.003922  3.769957  -0.005  -0.118048  -0.000597  4.025311  -0.001  -0.12517  -0.000812  4.046353  -0.001  -0.084935  -0.113785  -0.000432  4.013407  -0.001
C  C31  1  0.74950218  0.75554850  0.69740660  1  0.212945  -0.00327  3.777677  -0.005  0.212075  -0.00041  4.022566  -0.001  0.214665  -0.000617  4.043648  -0.001  0.103016  0.210042  -0.000364  4.008491  -0.001
C  C32  1  0.25050036  0.24445997  0.30258760  1  0.213017  -0.003263  3.777872  -0.005  0.212219  -0.000408  4.022702  -0.001  0.214814  -0.000617  4.043777  -0.001  0.10305  0.210186  -0.000363  4.00862  -0.001
C  C33  1  0.57200987  0.28580630  0.70772945  1  0.224531  -0.003026  3.770569  -0.005  0.222789  -0.000323  4.016622  -0.001  0.225577  -0.000587  4.036598  -0.001  0.108811  0.220469  -0.000313  4.003517  -0.001
C  C34  1  0.42798776  0.71418697  0.29227210  1  0.224653  -0.003033  3.770404  -0.005  0.222874  -0.000321  4.016511  -0.001  0.225661  -0.000587  4.036489  -0.001  0.10877  0.220554  -0.000312  4.003399  -0.001
C  C35  1  0.59150203  0.32825707  0.44636812  1  -0.112775  -0.003555  3.771317  -0.005  -0.123439  -0.000502  4.030071  -0.001  -0.130718  -0.000739  4.051285  -0.001  -0.088965  -0.118201  -0.000387  4.014897  -0.001
C  C36  1  0.40850502  0.67172584  0.55363908  1  -0.112794  -0.003564  3.771233  -0.005  -0.12347  -0.000501  4.029951  -0.001  -0.130755  -0.00074  4.051169  -0.001  -0.088968  -0.118233  -0.000386  4.014782  -0.001
C  C37  1  0.75689818  0.91823740  0.57712475  1  -0.106757  0.015121  3.686695  0.01  -0.132655  0.005434  3.934209  0.003  -0.128964  0.003952  3.949718  0.002  -0.077737  -0.136049  0.007304  3.925367  0.004
C  C38  1  0.24311652  0.08177039  0.42286843  1  -0.106828  0.015102  3.686634  0.01  -0.132723  0.00543  3.934147  0.003  -0.129036  0.003949  3.949666  0.002  -0.077726  -0.136124  0.007301  3.925316  0.004
C  C39  1  0.50668393  0.27446303  0.58896366  1  -0.083538  0.01443  3.665228  0.009  -0.113375  0.005429  3.922756  0.003  -0.109059  0.003969  3.938087  0.002  -0.069424  -0.116699  0.006872  3.912648  0.004
C  C40  1  0.49331031  0.72552582  0.41103922  1  -0.083545  0.014443  3.665157  0.01  -0.113349  0.005426  3.922616  0.003  -0.109031  0.003969  3.937948  0.002  -0.069377  -0.11667  0.006869  3.912505  0.004
C  C41  1  0.61799701  0.79196982  0.90655069  1  0.447115  -0.000666  3.84528  0.0  0.407557  -0.000494  4.128767  0.0  0.432656  -0.000344  4.127596  0.0  0.241592  0.389181  -0.000546  4.131976  0.0
C  C42  1  0.38200144  0.20804587  0.09344174  1  0.447111  -0.000666  3.845062  0.0  0.407577  -0.000495  4.128588  0.0  0.432683  -0.000344  4.127402  0.0  0.241591  0.389202  -0.000546  4.131797  0.0
C  C43  1  0.49106489  0.29251788  0.94662803  1  0.458759  -0.000488  3.818373  -0.001  0.418667  -0.000144  4.0999  0.0  0.444427  -0.000117  4.098167  0.0  0.249894  0.400885  -0.000195  4.102077  0.0
C  C44  1  0.50893362  0.70748320  0.05337297  1  0.458885  -0.00049  3.818197  -0.001  0.418781  -0.000144  4.099738  0.0  0.444538  -0.000117  4.098017  0.0  0.250008  0.401008  -0.000195  4.1019  0.0
N  N45  1  0.09989854  0.32910468  0.46601545  1  -0.222385  0.010221  3.409489  0.005  -0.170237  0.007553  3.686955  0.005  -0.19607  0.007424  3.708568  0.005  -0.330487  -0.155341  0.006675  3.674432  0.005
N  N46  1  0.90009956  0.67089602  0.53398068  1  -0.222517  0.010212  3.409614  0.005  -0.170416  0.007551  3.687192  0.005  -0.196251  0.007424  3.70879  0.005  -0.330549  -0.15551  0.006674  3.674667  0.005
N  N47  1  0.79743351  0.40520198  0.53930065  1  -0.22013  0.012032  3.407867  0.007  -0.168672  0.008346  3.685229  0.006  -0.195577  0.008137  3.707856  0.006  -0.332564  -0.152231  0.007411  3.669737  0.005
N  N48  1  0.20256501  0.59479087  0.46071117  1  -0.220091  0.012024  3.407995  0.007  -0.168615  0.008349  3.685322  0.006  -0.195521  0.008137  3.707953  0.006  -0.332475  -0.152169  0.007412  3.669822  0.005
N  N49  1  0.66329827  0.70396463  0.84032488  1  -0.422863  0.000331  3.374749  0.0  -0.367948  1.6e-05  3.605731  0.0  -0.389656  4.1e-05  3.615915  0.0  -0.388325  -0.352849  5.7e-05  3.599848  0.0
N  N50  1  0.33670499  0.29604581  0.15967854  1  -0.422899  0.000331  3.374658  0.0  -0.368056  1.6e-05  3.605838  0.0  -0.389767  4.1e-05  3.616021  0.0  -0.388452  -0.352954  5.7e-05  3.599947  0.0
N  N51  1  0.49000092  0.23399335  0.85232982  1  -0.402364  0.000696  3.40329  0.001  -0.349638  0.000167  3.635675  0.0  -0.370701  0.000196  3.646004  0.0  -0.379717  -0.335571  0.000165  3.629828  0.0
N  N52  1  0.50998830  0.76600127  0.14767408  1  -0.402444  0.000699  3.403477  0.001  -0.349658  0.000167  3.635917  0.0  -0.370718  0.000195  3.646251  0.0  -0.379669  -0.335594  0.000165  3.630067  0.0
Cl  Cl53  1  0.08387424  0.30453874  0.80840100  1  -0.627082  -0.044371  0.800347  -0.07  -0.612882  -0.034498  1.017559  -0.051  -0.637364  -0.025297  0.998472  -0.039  -0.349583  -0.586227  -0.044856  1.027519  -0.066
Cl  Cl54  1  0.91613206  0.69545991  0.19159008  1  -0.627099  -0.044365  0.80036  -0.07  -0.612876  -0.034494  1.017548  -0.051  -0.637352  -0.025295  0.998458  -0.039  -0.349582  -0.586225  -0.044852  1.027511  -0.066
O  O55  1  0.65187742  0.92762933  0.85628816  1  -0.484723  -0.000822  1.968507  -0.001  -0.449782  -0.000644  2.181944  0.0  -0.468137  -0.000568  2.178833  0.0  -0.275846  -0.437907  -0.000997  2.184867  -0.001
O  O56  1  0.34812629  0.07237616  0.14371844  1  -0.484745  -0.000821  1.968418  -0.001  -0.44978  -0.000644  2.181841  0.0  -0.468145  -0.000568  2.178738  0.0  -0.275824  -0.437904  -0.000997  2.184751  -0.001
O  O57  1  0.57161407  0.39752639  0.92517438  1  -0.528505  -0.000413  1.99099  -0.001  -0.487598  -0.000119  2.213244  0.0  -0.507107  -0.000138  2.206767  0.0  -0.285218  -0.474032  -0.000135  2.217427  0.0
O  O58  1  0.42836703  0.60248435  0.07479876  1  -0.528653  -0.000414  1.990747  -0.001  -0.487718  -0.00012  2.213002  0.0  -0.507237  -0.000137  2.206538  0.0  -0.285332  -0.474151  -0.000135  2.217177  0.0
