# generated using pymatgen
data_CuH12C14(NO2)2
_symmetry_space_group_name_H-M   'P 1'
_cell_length_a   8.47589729
_cell_length_b   14.06702806
_cell_length_c   15.92698431
_cell_angle_alpha   62.44060318
_cell_angle_beta   74.63560405
_cell_angle_gamma   72.44131067
_symmetry_Int_Tables_number   1
_chemical_formula_structural   CuH12C14(NO2)2
_chemical_formula_sum   'Cu4 H48 C56 N8 O16'
_cell_volume   1587.31611939
_cell_formula_units_Z   4
loop_
 _symmetry_equiv_pos_site_id
 _symmetry_equiv_pos_as_xyz
  1  'x, y, z'
loop_
 _atom_site_type_symbol
 _atom_site_label
 _atom_site_symmetry_multiplicity
 _atom_site_fract_x
 _atom_site_fract_y
 _atom_site_fract_z
 _atom_site_occupancy
 _atom_site_pbe_bader_charge
 _atom_site_pbe_bader_spin_density
 _atom_site_pbe_cm5_charge
 _atom_site_pbe_ddec_charge
 _atom_site_pbe_ddec_spin_density
 _atom_site_pbe_ddec_sum_bond_order
 _atom_site_pbe_magmom
Cu  Cu0  1  0.99999995  0.00000870  0.99999710  1  1.04716  0.553293  0.735489  0.742927  0.717876  2.161006  0.554
Cu  Cu1  1  0.49998368  0.50000369  0.00000383  1  1.039881  0.545784  0.737411  0.741292  0.709849  2.180631  0.548
Cu  Cu2  1  0.00000103  0.99999573  0.49999752  1  1.041393  0.546667  0.737875  0.740362  0.710955  2.18334  0.548
Cu  Cu3  1  0.99999918  0.49999652  0.50000698  1  1.048004  0.552613  0.736231  0.743013  0.717028  2.161869  0.554
H  H4  1  0.58801457  0.09160124  0.37600615  1  0.038261  0.000271  0.096029  0.140779  0.000105  0.987007  0.0
H  H5  1  0.32871880  0.53797852  0.62327488  1  0.049974  0.000145  0.089474  0.126363  6.5e-05  1.009891  0.0
H  H6  1  0.83574230  0.43662440  0.14740488  1  0.107623  0.000217  0.096841  0.157524  8.5e-05  1.026641  0.0
H  H7  1  0.42463461  0.73591964  0.86804253  1  0.102225  0.001641  0.116616  0.098142  0.000665  1.025439  0.002
H  H8  1  0.02826850  0.76401756  0.63207791  1  0.117101  0.001622  0.116569  0.097596  0.000665  1.026165  0.002
H  H9  1  0.94865152  0.95910422  0.34403633  1  0.145602  0.001717  0.124065  0.107788  0.000725  1.005243  0.002
H  H10  1  0.22140602  0.78980003  0.01929140  1  0.159584  0.001933  0.120862  0.109104  0.00105  1.028462  0.002
H  H11  1  0.41923445  0.06351904  0.35188197  1  0.11277  0.000217  0.096788  0.15782  8.7e-05  1.024993  0.0
H  H12  1  0.29344999  0.23783085  0.40816288  1  0.13044  0.000647  0.11814  0.131687  0.000438  0.96748  0.0
H  H13  1  0.67128403  0.46201450  0.37671597  1  0.050066  0.000145  0.089461  0.126314  6.5e-05  1.009896  0.0
H  H14  1  0.53735741  0.74794016  0.36144426  1  0.141516  0.00023  0.11954  0.132202  8.4e-05  0.971586  0.0
H  H15  1  0.36679502  0.46114224  0.41822398  1  0.11906  0.001652  0.118903  0.096232  0.000683  1.014886  0.001
H  H16  1  0.57535687  0.26408913  0.13195409  1  0.102261  0.00164  0.116628  0.098161  0.000665  1.02551  0.002
H  H17  1  0.06033861  0.73780409  0.90845012  1  0.115479  0.000627  0.11837  0.132463  0.000426  0.967252  0.0
H  H18  1  0.74392555  0.58408015  0.33794767  1  0.080191  0.000312  0.095027  0.146456  6.3e-05  1.018106  0.0
H  H19  1  0.05135845  0.04090028  0.65595043  1  0.14567  0.001719  0.124111  0.107826  0.000726  1.005237  0.002
H  H20  1  0.66678027  0.91577478  0.16259605  1  0.054486  0.000323  0.094956  0.146295  7e-05  1.017296  0.0
H  H21  1  0.25607426  0.41591102  0.66204745  1  0.080283  0.000312  0.095056  0.14647  6.3e-05  1.018094  0.0
H  H22  1  0.94324729  0.59213975  0.87610620  1  0.052611  0.000281  0.096323  0.140706  0.000112  0.987312  0.0
H  H23  1  0.16423820  0.56337372  0.85260925  1  0.107672  0.000217  0.096841  0.157469  8.5e-05  1.026724  0.0
H  H24  1  0.97051383  0.28957763  0.51955456  1  0.174255  0.001919  0.120499  0.109024  0.001054  1.027419  0.002
H  H25  1  0.64100104  0.56909824  0.26259420  1  0.082239  8.9e-05  0.096176  0.147997  5.3e-05  1.013413  0.0
H  H26  1  0.04758446  0.58446058  0.76601311  1  0.049778  0.000111  0.092124  0.135473  6.2e-05  1.014013  0.0
H  H27  1  0.70656314  0.76214654  0.59184806  1  0.130614  0.000646  0.118144  0.13168  0.000438  0.967679  0.0
H  H28  1  0.47350663  0.93051505  0.23783730  1  0.086658  8.9e-05  0.095738  0.147376  5.3e-05  1.013746  0.0
H  H29  1  0.97172755  0.23597780  0.36792811  1  0.116863  0.001624  0.116563  0.097607  0.000665  1.026044  0.002
H  H30  1  0.39853706  0.91551349  0.73437180  1  0.058648  0.000126  0.092393  0.136068  7e-05  1.013058  0.0
H  H31  1  0.05673037  0.40787753  0.12389612  1  0.052769  0.000281  0.09635  0.140741  0.000112  0.987199  0.0
H  H32  1  0.02949898  0.71041503  0.48044253  1  0.174133  0.00192  0.120526  0.109089  0.001054  1.027477  0.002
H  H33  1  0.64786387  0.75193856  0.13883348  1  0.130616  0.000241  0.118912  0.130939  9e-05  0.973586  0.0
H  H34  1  0.41199567  0.90838410  0.62397834  1  0.038423  0.000271  0.09601  0.140776  0.000105  0.986998  0.0
H  H35  1  0.58077399  0.93647528  0.64810003  1  0.112713  0.000217  0.09679  0.157782  8.7e-05  1.025054  0.0
H  H36  1  0.25184951  0.54114940  0.15578407  1  0.157865  0.001679  0.124081  0.108113  0.000715  1.004112  0.002
H  H37  1  0.93967146  0.26220777  0.09154832  1  0.115654  0.000626  0.118365  0.13246  0.000426  0.96725  0.0
H  H38  1  0.33322729  0.08422639  0.83740677  1  0.05431  0.000323  0.094924  0.14622  7e-05  1.017292  0.0
H  H39  1  0.95240175  0.41554594  0.23399453  1  0.049567  0.000111  0.092158  0.135513  6.2e-05  1.013929  0.0
H  H40  1  0.35899444  0.43089853  0.73740131  1  0.082523  8.9e-05  0.096085  0.14779  5.3e-05  1.013481  0.0
H  H41  1  0.74812606  0.45884524  0.84423459  1  0.157844  0.001677  0.124011  0.108039  0.000713  1.004243  0.002
H  H42  1  0.77859063  0.21021523  0.98070392  1  0.159496  0.00193  0.120893  0.109044  0.001048  1.028603  0.002
H  H43  1  0.52650210  0.06948647  0.76217338  1  0.086926  8.9e-05  0.095699  0.147302  5.3e-05  1.013774  0.0
H  H44  1  0.46265763  0.25204941  0.63855052  1  0.141434  0.00023  0.119525  0.13225  8.3e-05  0.971673  0.0
H  H45  1  0.35212843  0.24806073  0.86117411  1  0.130501  0.000242  0.118914  0.130967  9e-05  0.973495  0.0
H  H46  1  0.51041520  0.03783044  0.12386203  1  0.008274  0.000171  0.089567  0.126803  7.9e-05  1.00907  0.0
H  H47  1  0.24691316  0.03888032  0.08184688  1  0.117952  0.001663  0.11839  0.095727  0.000689  1.013712  0.001
H  H48  1  0.63321345  0.53884874  0.58177436  1  0.11917  0.001651  0.118918  0.096219  0.000683  1.014849  0.001
H  H49  1  0.75309143  0.96112621  0.91816064  1  0.11708  0.001667  0.118416  0.095836  0.000691  1.013549  0.001
H  H50  1  0.48958822  0.96217219  0.87614335  1  0.008329  0.000171  0.089544  0.126745  7.9e-05  1.009149  0.0
H  H51  1  0.60146205  0.08449394  0.26560600  1  0.058869  0.000126  0.092465  0.136242  7e-05  1.013066  0.0
C  C52  1  0.32856213  0.28406730  0.33152245  1  -0.066629  -0.00406  -0.057217  -0.107475  -0.004668  3.872157  -0.003
C  C53  1  0.05093827  0.61212730  0.81940413  1  -0.074786  0.001043  -0.240148  -0.424997  0.00073  3.933363  0.001
C  C54  1  0.06735563  0.95604857  0.84360716  1  1.558074  -0.000169  0.194521  0.543784  -0.000479  4.267927  -0.002
C  C55  1  0.96365395  0.20185315  0.32057170  1  0.474307  -0.000838  0.043546  0.021493  -0.001164  3.880484  0.0
C  C56  1  0.13258769  0.45616864  0.34323745  1  1.561168  -0.000135  0.194882  0.542894  -0.000412  4.267895  -0.002
C  C57  1  0.25734694  0.39547483  0.28852480  1  -0.000246  0.014138  -0.012512  -0.064554  0.009977  3.992391  0.011
C  C58  1  0.47485522  0.59981463  0.37964906  1  0.001347  0.006829  0.001486  0.136668  0.004628  3.977501  0.006
C  C59  1  0.35828842  0.44829603  0.66251843  1  -0.07762  0.001173  -0.242567  -0.42858  0.000834  3.945303  0.001
C  C60  1  0.48595917  0.29821736  0.17929855  1  0.475072  -0.000854  0.043776  0.021785  -0.001202  3.880679  0.0
C  C61  1  0.04773733  0.73238198  0.77640494  1  0.006105  0.006425  0.001752  0.142006  0.004251  3.979258  0.005
C  C62  1  0.94138115  0.10468927  0.21124046  1  -0.009624  0.013876  -0.011091  -0.062335  0.009769  3.991051  0.011
C  C63  1  0.05568533  0.78399005  0.83176742  1  -0.056714  -0.004081  -0.058036  -0.109797  -0.004687  3.874412  -0.003
C  C64  1  0.30453666  0.95748818  0.08400773  1  0.468143  -0.001129  0.048683  0.032524  -0.001431  3.877014  0.0
C  C65  1  0.29077779  0.81934452  0.04739458  1  0.448196  -0.001204  0.046689  0.063567  -0.001872  3.905389  -0.001
C  C66  1  0.48292046  0.88796638  0.68094621  1  -0.075066  0.001  -0.23983  -0.426208  0.000702  3.931489  0.001
C  C67  1  0.76374924  0.15227384  0.56621704  1  1.576548  -9e-06  0.20195  0.561955  -0.000213  4.24282  -0.002
C  C68  1  0.55668525  0.76758641  0.72380827  1  -0.007819  0.006439  0.002016  0.141828  0.004259  3.978911  0.005
C  C69  1  0.34513491  0.54255735  0.41599079  1  0.448475  -0.001132  0.047982  0.031512  -0.001469  3.878469  0.0
C  C70  1  0.94432723  0.21601795  0.16822834  1  -0.056725  -0.004082  -0.058004  -0.109897  -0.004688  3.873672  -0.003
C  C71  1  0.86741006  0.54381469  0.65678227  1  1.561091  -0.000134  0.194844  0.54277  -0.000409  4.267738  -0.002
C  C72  1  0.69441831  0.54580546  0.80902308  1  0.473991  -0.000512  0.052466  0.068857  -0.001202  3.912525  0.0
C  C73  1  0.54471440  0.09986637  0.87953272  1  0.050921  0.006863  0.001882  0.135966  0.004638  3.976734  0.006
C  C74  1  0.55974698  0.29911420  0.61503489  1  -0.057775  -0.00311  -0.056695  -0.109939  -0.003778  3.870317  -0.002
C  C75  1  0.84348306  0.31917693  0.54755416  1  0.465815  -0.00127  0.046835  0.062938  -0.001856  3.903765  -0.001
C  C76  1  0.47283922  0.20096809  0.88480394  1  -0.10381  -0.003121  -0.056599  -0.108739  -0.003798  3.872925  -0.002
C  C77  1  0.27947774  0.74169834  0.42239353  1  -0.021071  0.015572  -0.012273  -0.062942  0.010882  3.967511  0.012
C  C78  1  0.53166380  0.94811359  0.16295377  1  -0.025553  0.001144  -0.242483  -0.428625  0.000811  3.943513  0.001
C  C79  1  0.05863545  0.89532127  0.78875315  1  -0.009988  0.013881  -0.010977  -0.062459  0.009772  3.991279  0.011
C  C80  1  0.44330468  0.23240894  0.27619801  1  -0.007823  0.00644  0.002115  0.141954  0.004259  3.978852  0.005
C  C81  1  0.51838399  0.65205047  0.06662556  1  1.589449  3.4e-05  0.201515  0.560153  -0.000146  4.244113  -0.002
C  C82  1  0.15651908  0.68081474  0.45244609  1  0.465726  -0.00127  0.046911  0.063002  -0.001858  3.903503  -0.001
C  C83  1  0.46833924  0.05188653  0.83705323  1  -0.025544  0.001144  -0.242379  -0.428416  0.000811  3.943514  0.001
C  C84  1  0.65486617  0.45743021  0.58401115  1  0.447362  -0.00113  0.047958  0.031359  -0.001469  3.878771  0.0
C  C85  1  0.67144715  0.71592503  0.66848029  1  -0.066582  -0.004062  -0.057212  -0.107505  -0.00467  3.872045  -0.003
C  C86  1  0.44025674  0.70087270  0.38496440  1  -0.057856  -0.003108  -0.056698  -0.109861  -0.003777  3.87041  -0.002
C  C87  1  0.72054211  0.25829519  0.57760222  1  -0.021229  0.01557  -0.012178  -0.062967  0.010881  3.967694  0.012
C  C88  1  0.51708534  0.11202856  0.31903908  1  -0.075269  0.001  -0.239944  -0.426461  0.000702  3.931632  0.001
C  C89  1  0.04941047  0.95397725  0.69113942  1  0.49484  -0.000628  0.05201  0.068381  -0.001268  3.910171  0.0
C  C90  1  0.52515409  0.40017740  0.62034499  1  0.001976  0.006825  0.001446  0.13668  0.004626  3.977543  0.006
C  C91  1  0.69545825  0.04252159  0.91599933  1  0.468926  -0.001131  0.048627  0.032229  -0.001429  3.877373  0.0
C  C92  1  0.55543683  0.24170889  0.92234038  1  0.012798  0.015659  -0.011679  -0.061508  0.010969  3.969725  0.012
C  C93  1  0.45528335  0.90013128  0.12047533  1  0.050882  0.006861  0.001817  0.135843  0.004636  3.976662  0.006
C  C94  1  0.95059852  0.04602299  0.30885160  1  0.494012  -0.000628  0.052069  0.068353  -0.001269  3.910045  0.0
C  C95  1  0.48160216  0.34796322  0.93336935  1  1.589002  3.5e-05  0.201435  0.55993  -0.000145  4.2446  -0.002
C  C96  1  0.30557441  0.45418895  0.19098567  1  0.472992  -0.000509  0.052594  0.069026  -0.001203  3.912283  0.0
C  C97  1  0.64171503  0.55169520  0.33747551  1  -0.077418  0.001173  -0.242668  -0.4288  0.000834  3.945521  0.001
C  C98  1  0.51403453  0.70178485  0.82070021  1  0.475662  -0.000852  0.043753  0.021799  -0.0012  3.8809  0.0
C  C99  1  0.70922146  0.18067043  0.95260614  1  0.447366  -0.001203  0.046635  0.063576  -0.001874  3.905479  -0.001
C  C100  1  0.44455859  0.75829908  0.07765597  1  0.011812  0.01566  -0.011727  -0.061687  0.010969  3.969579  0.012
C  C101  1  0.03635267  0.79814341  0.67942732  1  0.474535  -0.00084  0.043604  0.021571  -0.001166  3.879958  0.0
C  C102  1  0.94905036  0.38787929  0.18060252  1  -0.07481  0.001043  -0.240239  -0.425174  0.00073  3.933088  0.001
C  C103  1  0.74265096  0.60451521  0.71148986  1  -0.001407  0.014138  -0.012388  -0.064356  0.009974  3.992389  0.011
C  C104  1  0.95226656  0.26762293  0.22360265  1  0.006309  0.006425  0.001848  0.142146  0.004251  3.978913  0.005
C  C105  1  0.93263944  0.04397120  0.15637979  1  1.557949  -0.000171  0.194646  0.543762  -0.00048  4.268232  -0.002
C  C106  1  0.52715779  0.79903535  0.11520142  1  -0.103463  -0.00312  -0.056576  -0.108663  -0.003797  3.872843  -0.002
C  C107  1  0.23625662  0.84772126  0.43377950  1  1.576701  -1e-05  0.202051  0.561929  -0.000213  4.243223  -0.002
N  N108  1  0.03538163  0.90657212  0.63796589  1  -1.22842  0.090795  -0.345402  -0.225688  0.061125  3.643869  0.08
N  N109  1  0.57986267  0.59327309  0.86211939  1  -1.212305  0.090961  -0.345127  -0.226621  0.061326  3.648071  0.08
N  N110  1  0.18944686  0.58216926  0.45067466  1  -1.225213  0.089657  -0.33914  -0.214905  0.060292  3.628939  0.078
N  N111  1  0.77680451  0.08200525  0.95086865  1  -1.230647  0.089958  -0.338281  -0.214763  0.06047  3.626469  0.079
N  N112  1  0.22319279  0.91800087  0.04913190  1  -1.231134  0.089946  -0.338293  -0.214885  0.060463  3.626435  0.079
N  N113  1  0.96462578  0.09342935  0.36203181  1  -1.227946  0.090787  -0.345397  -0.225675  0.061119  3.643962  0.08
N  N114  1  0.42011449  0.40673112  0.13788666  1  -1.211507  0.090955  -0.345256  -0.226749  0.061323  3.648292  0.08
N  N115  1  0.81055925  0.41782506  0.54932151  1  -1.224733  0.089649  -0.339053  -0.214622  0.060287  3.628852  0.078
O  O116  1  0.95373214  0.45206163  0.69961353  1  -1.164429  0.001536  -0.319235  -0.536698  6.5e-05  2.100133  0.002
O  O117  1  0.65825584  0.09481429  0.59403887  1  -1.16075  0.002567  -0.316563  -0.545172  0.000834  2.136835  0.003
O  O118  1  0.34692455  0.40582059  0.90486990  1  -1.16954  0.002766  -0.315222  -0.542984  0.000974  2.139053  0.003
O  O119  1  0.13028051  0.40492777  0.43569502  1  -1.103628  0.111487  -0.335184  -0.552929  0.071759  2.372941  0.1
O  O120  1  0.42781539  0.63115880  0.02494670  1  -1.120593  0.111401  -0.336545  -0.566597  0.071464  2.419643  0.101
O  O121  1  0.02880556  0.90466982  0.93605461  1  -1.115059  0.110897  -0.33517  -0.552713  0.071338  2.373302  0.1
O  O122  1  0.10376611  0.04801662  0.80092436  1  -1.155942  0.001404  -0.319309  -0.538292  -3.4e-05  2.10194  0.002
O  O123  1  0.89621527  0.95200736  0.19905920  1  -1.155518  0.001403  -0.319286  -0.53818  -3.4e-05  2.102174  0.002
O  O124  1  0.34175854  0.90517009  0.40596235  1  -1.160892  0.002568  -0.31653  -0.545135  0.000835  2.137059  0.003
O  O125  1  0.86973192  0.59505560  0.56432383  1  -1.103151  0.111472  -0.335023  -0.552742  0.071749  2.372778  0.1
O  O126  1  0.97119920  0.09535395  0.06393259  1  -1.114958  0.11089  -0.335287  -0.552839  0.071333  2.373519  0.1
O  O127  1  0.91691250  0.13114172  0.52484830  1  -1.122354  0.111563  -0.335915  -0.565325  0.071574  2.419576  0.101
O  O128  1  0.08309165  0.86884758  0.47515129  1  -1.122259  0.111542  -0.335968  -0.565323  0.07156  2.419731  0.101
O  O129  1  0.57215927  0.36885282  0.97505630  1  -1.120633  0.111398  -0.336467  -0.566526  0.07146  2.419749  0.101
O  O130  1  0.04626193  0.54792170  0.30040609  1  -1.164069  0.001536  -0.319144  -0.536695  6.4e-05  2.100092  0.002
O  O131  1  0.65306982  0.59419028  0.09511797  1  -1.169863  0.002766  -0.315209  -0.543058  0.000974  2.138778  0.003
