# generated using pymatgen
data_Mg2H48C55O6
_symmetry_space_group_name_H-M   'P 1'
_cell_length_a   6.91102825
_cell_length_b   53.88989576
_cell_length_c   53.88930241
_cell_angle_alpha   119.81790941
_cell_angle_beta   92.45045699
_cell_angle_gamma   92.45269458
_symmetry_Int_Tables_number   1
_chemical_formula_structural   Mg2H48C55O6
_chemical_formula_sum   'Mg6 H144 C165 O18'
_cell_volume   17349.65428579
_cell_formula_units_Z   3
loop_
 _symmetry_equiv_pos_site_id
 _symmetry_equiv_pos_as_xyz
  1  'x, y, z'
loop_
 _atom_site_type_symbol
 _atom_site_label
 _atom_site_symmetry_multiplicity
 _atom_site_fract_x
 _atom_site_fract_y
 _atom_site_fract_z
 _atom_site_occupancy
 _atom_site_pbe_bader_charge
 _atom_site_pbe_bader_spin_density
 _atom_site_pbe_cm5_charge
 _atom_site_pbe_ddec_charge
 _atom_site_pbe_ddec_spin_density
 _atom_site_pbe_ddec_sum_bond_order
 _atom_site_pbe_magmom
Mg  Mg0  1  0.19903431  0.64563410  0.31614168  1  1.682724  0  0.907813  1.410305  0  1.329249  0
Mg  Mg1  1  0.55352485  0.67050259  0.35437591  1  1.682838  0  0.907803  1.41013  0  1.329396  0
Mg  Mg2  1  0.88308960  0.68387035  0.32949806  1  1.683004  0  0.907869  1.410539  0  1.32886  0
Mg  Mg3  1  0.98454094  0.35514463  0.68249646  1  1.684209  0  0.905222  1.409478  0  1.327125  0
Mg  Mg4  1  0.62944930  0.32733837  0.64485272  1  1.683881  0  0.905394  1.409462  0  1.327352  0
Mg  Mg5  1  0.30209806  0.31750929  0.67265563  1  1.683073  0  0.905382  1.410612  0  1.325646  0
H  H6  1  0.67106057  0.37976575  0.62275178  1  0.060472  0  0.102553  0.121301  0  1.0198  0
H  H7  1  0.29113130  0.24299912  0.62027894  1  0.064505  0  0.102481  0.120954  0  1.020472  0
H  H8  1  0.04821513  0.37727054  0.75700191  1  0.06499  0  0.102459  0.120941  0  1.019972  0
H  H9  1  0.66963062  0.40389798  0.52888200  1  0.024041  0  0.09926  0.102688  0  1.016374  0
H  H10  1  0.26556568  0.12498043  0.59609212  1  0.022941  0  0.099455  0.103278  0  1.015789  0
H  H11  1  0.14093022  0.47110538  0.87503558  1  0.028374  0  0.099069  0.102789  0  1.0167  0
H  H12  1  0.22398451  0.44539393  0.50244958  1  0.044559  0  0.095636  0.097644  0  1.018082  0
H  H13  1  0.77856947  0.05705350  0.55461900  1  0.028847  0  0.096001  0.098462  0  1.017406  0
H  H14  1  0.72152467  0.49753226  0.94291556  1  0.036187  0  0.095752  0.097987  0  1.018191  0
H  H15  1  0.29006186  0.54952784  0.50314444  1  0.048256  0  0.096871  0.099748  0  1.022298  0
H  H16  1  0.74025330  0.95364908  0.45048109  1  0.042826  0  0.097204  0.1003  0  1.021918  0
H  H17  1  0.78673652  0.49683218  0.04635110  1  0.065379  0  0.096922  0.099722  0  1.022092  0
H  H18  1  0.78488439  0.59633424  0.48437433  1  0.057357  0  0.097754  0.099188  0  1.011017  0
H  H19  1  0.18866251  0.88802403  0.40362471  1  0.064224  0  0.097875  0.100015  0  1.010543  0
H  H20  1  0.30083594  0.51559597  0.11197797  1  0.059274  0  0.097778  0.09945  0  1.009933  0
H  H21  1  0.88100444  0.49324134  0.43863836  1  0.02823  0  0.098696  0.101989  0  1.008456  0
H  H22  1  0.38766958  0.94540348  0.50672905  1  0.079471  0  0.098706  0.101764  0  1.009208  0
H  H23  1  0.44204930  0.56131150  0.05458312  1  0.03191  0  0.098581  0.101704  0  1.009489  0
H  H24  1  0.53585331  0.51062309  0.39753050  1  0.044052  0  0.091966  0.130239  0  1.003501  0
H  H25  1  0.02520815  0.88691706  0.48935535  1  0.048101  0  0.091953  0.129588  0  1.003147  0
H  H26  1  0.13835661  0.60245391  0.11308495  1  0.044409  0  0.091909  0.129774  0  1.003748  0
H  H27  1  0.65182575  0.48311232  0.40035001  1  0.018983  0  0.089644  0.123452  0  0.999299  0
H  H28  1  0.16874555  0.91725362  0.51685153  1  0.035223  0  0.089638  0.123357  0  0.998989  0
H  H29  1  0.25156361  0.59961275  0.08275014  1  0.020598  0  0.0896  0.123106  0  0.999638  0
H  H30  1  0.77321958  0.50264242  0.38646104  1  0.046327  0  0.090179  0.122678  0  0.999276  0
H  H31  1  0.27054095  0.88382994  0.49734757  1  0.037204  0  0.090114  0.12245  0  0.998799  0
H  H32  1  0.38684315  0.61350893  0.11617031  1  0.036915  0  0.090059  0.122281  0  0.998307  0
H  H33  1  0.24396330  0.61051449  0.44166172  1  0.042593  0  0.098514  0.102095  0  1.016446  0
H  H34  1  0.63323714  0.83118360  0.38948072  1  0.049004  0  0.098612  0.102356  0  1.01621  0
H  H35  1  0.80193739  0.55829948  0.16881151  1  0.05626  0  0.098275  0.102223  0  1.016232  0
H  H36  1  0.77641167  0.55029859  0.39436556  1  0.040669  0  0.099292  0.102048  0  1.010999  0
H  H37  1  0.22596147  0.84407892  0.44968792  1  0.047629  0  0.099429  0.102292  0  1.010434  0
H  H38  1  0.38197926  0.60562418  0.15597739  1  0.047547  0  0.099529  0.102367  0  1.010601  0
H  H39  1  0.47706883  0.56480932  0.34647608  1  0.047668  0  0.09129  0.12985  0  1.003608  0
H  H40  1  0.91200992  0.78170352  0.43518835  1  0.045653  0  0.091078  0.129384  0  1.003176  0
H  H41  1  0.13038446  0.65349907  0.21832908  1  0.030647  0  0.091253  0.129518  0  1.003716  0
H  H42  1  0.66520223  0.54499367  0.35010888  1  0.02783  0  0.090094  0.125094  0  0.996512  0
H  H43  1  0.11994102  0.80515975  0.45500337  1  0.014646  0  0.09005  0.124848  0  0.996545  0
H  H44  1  0.31483544  0.64984620  0.19487177  1  0.050422  0  0.089636  0.124367  0  0.996681  0
H  H45  1  0.71537712  0.58104765  0.35925311  1  0.041058  0  0.08824  0.124107  0  1.028695  0
H  H46  1  0.13414097  0.77822643  0.41896399  1  0.026971  0  0.088267  0.124087  0  1.028608  0
H  H47  1  0.35592542  0.64073135  0.22179795  1  0.036404  0  0.088313  0.124048  0  1.029124  0
H  H48  1  0.51818952  0.61670035  0.37120063  1  0.093971  0  0.105  0.123085  0  1.032631  0
H  H49  1  0.90168295  0.75452444  0.38330585  1  0.079395  0  0.105085  0.123156  0  1.032313  0
H  H50  1  0.14665721  0.62878088  0.24548001  1  0.049313  0  0.105112  0.123422  0  1.032116  0
H  H51  1  0.83120714  0.62961619  0.39417191  1  0.082088  0  0.104241  0.105626  0  1.014247  0
H  H52  1  0.20165284  0.76450474  0.37037878  1  0.093579  0  0.104553  0.105943  0  1.013514  0
H  H53  1  0.43673064  0.60585817  0.23549404  1  0.07392  0  0.104451  0.105969  0  1.013553  0
H  H54  1  0.02352765  0.60163000  0.40985518  1  0.05538  0  0.097068  0.102222  0  1.028371  0
H  H55  1  0.42184988  0.80819705  0.39836458  1  0.093456  0  0.097468  0.102716  0  1.028374  0
H  H56  1  0.61315749  0.59016253  0.19179299  1  0.066236  0  0.097256  0.10149  0  1.029792  0
H  H57  1  0.41374540  0.57046838  0.47570238  1  0.030875  0  0.088933  0.123955  0  1.021821  0
H  H58  1  0.84317627  0.90526965  0.42953982  1  0.059137  0  0.089071  0.124344  0  1.021335  0
H  H59  1  0.93792163  0.52431643  0.09474855  1  0.053975  0  0.089028  0.124272  0  1.021379  0
H  H60  1  0.22724254  0.59075629  0.47269991  1  0.049271  0  0.088541  0.126705  0  1.014135  0
H  H61  1  0.63634932  0.88197538  0.40925993  1  0.018653  0  0.088319  0.126314  0  1.014578  0
H  H62  1  0.75439237  0.52731648  0.11803588  1  0.044448  0  0.088452  0.126612  0  1.014415  0
H  H63  1  0.45327495  0.60811166  0.49166805  1  0.011017  0  0.087178  0.117649  0  1.002307  0
H  H64  1  0.84497136  0.88358555  0.39189500  1  0.039808  0  0.087188  0.117718  0  1.001612  0
H  H65  1  0.96130616  0.50831249  0.11639427  1  0.007271  0  0.087168  0.11778  0  1.002092  0
H  H66  1  0.96656574  0.57509370  0.53483175  1  0.063304  0  0.090801  0.128863  0  1.006418  0
H  H67  1  0.39140792  0.95975558  0.42491100  1  0.059048  0  0.091075  0.129341  0  1.006379  0
H  H68  1  0.43176200  0.46514019  0.04026151  1  0.065432  0  0.090757  0.128706  0  1.007322  0
H  H69  1  0.88898497  0.60350004  0.52973806  1  0.027947  0  0.088135  0.121516  0  1.000698  0
H  H70  1  0.28548736  0.92625903  0.39647868  1  0.039249  0  0.088238  0.121748  0  1.000693  0
H  H71  1  0.35933906  0.47022952  0.07376429  1  0.016814  0  0.0883  0.121776  0  1.000427  0
H  H72  1  0.12879439  0.59276564  0.52323677  1  0.019081  0  0.08989  0.12464  0  1.003317  0
H  H73  1  0.53602944  0.93050664  0.40721816  1  0.045547  0  0.089739  0.124592  0  1.003644  0
H  H74  1  0.60564896  0.47672313  0.06951658  1  0.036214  0  0.089998  0.125032  0  1.002704  0
H  H75  1  0.97461242  0.47322523  0.51529538  1  0.05116  0  0.096893  0.100927  0  1.013887  0
H  H76  1  0.50121546  0.04208455  0.52681380  1  0.046467  0  0.097019  0.100817  0  1.014088  0
H  H77  1  0.45934621  0.48471176  0.95790732  1  0.047969  0  0.097212  0.101307  0  1.014168  0
H  H78  1  0.65058123  0.49797544  0.47819531  1  0.05445  0  0.090068  0.12818  0  1.022005  0
H  H79  1  0.15237881  0.98024205  0.50203934  1  0.060134  0  0.090172  0.128371  0  1.021546  0
H  H80  1  0.17237544  0.52177623  0.01973956  1  0.06165  0  0.090255  0.128357  0  1.022105  0
H  H81  1  0.67538713  0.47609519  0.49412686  1  0.031648  0  0.090431  0.128522  0  1.004438  0
H  H82  1  0.19909577  0.01805991  0.52391653  1  0.023977  0  0.090316  0.128186  0  1.005406  0
H  H83  1  0.18124847  0.50584834  0.98192701  1  0.066406  0  0.090289  0.128171  0  1.00491  0
H  H84  1  0.76296156  0.46539507  0.46013217  1  0.041085  0  0.088324  0.120457  0  0.996283  0
H  H85  1  0.29739999  0.99476795  0.53462134  1  0.018042  0  0.088326  0.120344  0  0.996508  0
H  H86  1  0.30277849  0.53984886  0.00522608  1  0.039582  0  0.088232  0.120088  0  0.996685  0
H  H87  1  0.61954078  0.52157592  0.53683567  1  0.040832  0  0.091483  0.128525  0  1.019485  0
H  H88  1  0.09763218  0.01529861  0.47846700  1  0.045763  0  0.091511  0.128619  0  1.019462  0
H  H89  1  0.08265889  0.46316321  0.98474063  1  0.04322  0  0.091541  0.128546  0  1.019348  0
H  H90  1  0.52870750  0.55600465  0.55413141  1  0.010927  0  0.089046  0.120035  0  1.005022  0
H  H91  1  0.97254328  0.99816291  0.44402496  1  0.048776  0  0.088963  0.120062  0  1.005348  0
H  H92  1  0.97445470  0.44586406  0.00186718  1  0.00638  0  0.088542  0.119214  0  1.005463  0
H  H93  1  0.59855078  0.54136838  0.51866983  1  0.020938  0  0.090691  0.127649  0  1.011712  0
H  H94  1  0.05694722  0.97734286  0.45867376  1  0.037865  0  0.09065  0.127421  0  1.011523  0
H  H95  1  0.07968827  0.48133143  0.02269574  1  0.02612  0  0.09057  0.127314  0  1.010873  0
H  H96  1  0.59960091  0.49182831  0.59567819  1  0.050756  0  0.09864  0.102795  0  1.015671  0
H  H97  1  0.10770360  0.10388155  0.50820958  1  0.039793  0  0.098737  0.103002  0  1.015877  0
H  H98  1  0.00425111  0.40433414  0.89614357  1  0.065337  0  0.098794  0.103381  0  1.015768  0
H  H99  1  0.32984526  0.54134078  0.58065142  1  0.058645  0  0.091407  0.127588  0  1.007643  0
H  H100  1  0.78857101  0.03932659  0.45867857  1  0.028929  0  0.091485  0.127635  0  1.008216  0
H  H101  1  0.74940000  0.41935603  0.96067829  1  0.061159  0  0.091551  0.127881  0  1.008554  0
H  H102  1  0.58252545  0.54155068  0.58820767  1  0.024775  0  0.090732  0.123178  0  1.003689  0
H  H103  1  0.04108482  0.04667444  0.45847787  1  0.047651  0  0.090976  0.123406  0  1.003585  0
H  H104  1  0.99453961  0.41178842  0.95333986  1  0.036565  0  0.090959  0.123586  0  1.003093  0
H  H105  1  0.41421568  0.53493139  0.60843979  1  0.030828  0  0.090235  0.123962  0  0.994413  0
H  H106  1  0.87938814  0.07352134  0.46508839  1  0.032669  0  0.089994  0.123468  0  0.994861  0
H  H107  1  0.80596755  0.39156565  0.92648567  1  0.044775  0  0.090106  0.123639  0  0.995171  0
H  H108  1  0.31955875  0.39599772  0.52867066  1  0.047208  0  0.089817  0.125857  0  1.038579  0
H  H109  1  0.92365298  0.13266618  0.60402945  1  0.076855  0  0.08963  0.125818  0  1.039268  0
H  H110  1  0.79101107  0.47134283  0.86731914  1  0.07214  0  0.089477  0.125495  0  1.03905  0
H  H111  1  0.41542418  0.39486364  0.49824667  1  0.041049  0  0.088075  0.118834  0  1.001494  0
H  H112  1  0.02072719  0.10337403  0.60514669  1  0.002298  0  0.088031  0.118901  0  1.00114  0
H  H113  1  0.91735138  0.50175523  0.89661411  1  0.025921  0  0.088292  0.119334  0  1.001214  0
H  H114  1  0.17179827  0.40302705  0.50532315  1  0.041857  0  0.088732  0.122722  0  0.998133  0
H  H115  1  0.76888004  0.10229015  0.59700899  1  0.030323  0  0.088743  0.122933  0  0.997697  0
H  H116  1  0.66663818  0.49467872  0.89769951  1  0.022878  0  0.088845  0.123125  0  0.998096  0
H  H117  1  0.70918053  0.43033880  0.63045484  1  0.03294  0  0.098231  0.102607  0  1.007474  0
H  H118  1  0.27863186  0.20012757  0.56967879  1  0.033265  0  0.098389  0.102659  0  1.006452  0
H  H119  1  0.07843532  0.36955212  0.79985737  1  0.042447  0  0.098179  0.102408  0  1.007313  0
H  H120  1  0.35728753  0.46930566  0.61303414  1  0.052012  0  0.092025  0.129429  0  1.00626  0
H  H121  1  0.88800688  0.14375880  0.53063265  1  0.063702  0  0.092018  0.129094  0  1.006293  0
H  H122  1  0.74429268  0.38692622  0.85625450  1  0.063167  0  0.092317  0.1295  0  1.005549  0
H  H123  1  0.57839345  0.48580978  0.63386888  1  0.018885  0  0.089132  0.119988  0  1.001158  0
H  H124  1  0.09297185  0.14808069  0.51418648  1  0.042876  0  0.089399  0.119957  0  1.001192  0
H  H125  1  0.94461946  0.36610870  0.85193558  1  0.012454  0  0.089218  0.119832  0  1.001444  0
H  H126  1  0.44517821  0.45984188  0.63854761  1  0.031017  0  0.092156  0.128552  0  0.991758  0
H  H127  1  0.98558537  0.17873057  0.54012592  1  0.031907  0  0.092227  0.12843  0  0.992145  0
H  H128  1  0.80671520  0.36142422  0.82128279  1  0.033465  0  0.092212  0.128464  0  0.991805  0
H  H129  1  0.88404767  0.35001297  0.54366291  1  0.060096  0  0.092622  0.129827  0  1.0127  0
H  H130  1  0.53385441  0.19366035  0.64998697  1  0.093297  0  0.092453  0.129598  0  1.012724  0
H  H131  1  0.34032599  0.45634126  0.80634847  1  0.06411  0  0.092299  0.129322  0  1.012272  0
H  H132  1  0.93930045  0.36664819  0.52312802  1  0.013001  0  0.089592  0.121079  0  1.009688  0
H  H133  1  0.57256308  0.15649567  0.63336610  1  0.027447  0  0.089621  0.1212  0  1.009996  0
H  H134  1  0.41616434  0.47688859  0.84351689  1  0.025141  0  0.089743  0.121138  0  1.009705  0
H  H135  1  0.70201771  0.35137574  0.52021688  1  0.041797  0  0.091125  0.125693  0  0.990802  0
H  H136  1  0.35054447  0.16884975  0.64863937  1  0.044737  0  0.091006  0.125527  0  0.991088  0
H  H137  1  0.18173443  0.47978213  0.83116079  1  0.04119  0  0.091141  0.125491  0  0.990909  0
H  H138  1  0.35431088  0.36209604  0.60034606  1  0.077265  0  0.102076  0.110385  0  1.015606  0
H  H139  1  0.99200116  0.23822559  0.63789900  1  0.09662  0  0.10221  0.110369  0  1.016141  0
H  H140  1  0.75392036  0.39963435  0.76177221  1  0.07497  0  0.102345  0.110372  0  1.015619  0
H  H141  1  0.14578257  0.40952551  0.57721822  1  0.05473  0  0.09057  0.12927  0  1.00186  0
H  H142  1  0.73618433  0.16768539  0.59043766  1  0.047337  0  0.090766  0.129201  0  1.00187  0
H  H143  1  0.56848925  0.42277362  0.83232262  1  0.049187  0  0.090713  0.129026  0  1.001738  0
H  H144  1  0.19880769  0.37393385  0.55301652  1  0.029606  0  0.086157  0.115411  0  1.022469  0
H  H145  1  0.82484691  0.17905645  0.62602599  1  0.014372  0  0.086352  0.115563  0  1.022468  0
H  H146  1  0.64577309  0.44698165  0.82094063  1  0.025769  0  0.086158  0.115211  0  1.022249  0
H  H147  1  0.35993918  0.39563350  0.58333768  1  0.046785  0  0.085616  0.120348  0  1.054069  0
H  H148  1  0.96416123  0.18772250  0.60434928  1  0.060052  0  0.085479  0.120201  0  1.054134  0
H  H149  1  0.77651740  0.41665231  0.81230314  1  0.031076  0  0.08551  0.120091  0  1.053468  0
C  C150  1  0.92737623  0.36286108  0.63039690  1  0.598519  0  0.088788  0.365472  0  4.10283  0
C  C151  1  0.56442378  0.26753696  0.63717507  1  0.609621  0  0.089189  0.365914  0  4.102451  0
C  C152  1  0.29694725  0.36960937  0.73246596  1  0.545003  0  0.089122  0.365718  0  4.103496  0
C  C153  1  0.82203773  0.37605253  0.61771561  1  -0.042968  0  -0.111449  -0.274595  0  3.945852  0
C  C154  1  0.44581682  0.24167092  0.62399087  1  -0.057991  0  -0.111491  -0.274583  0  3.945193  0
C  C155  1  0.20423891  0.38230127  0.75833067  1  0.00271  0  -0.111259  -0.273993  0  3.946105  0
C  C156  1  0.90336086  0.38453450  0.59947002  1  -0.017324  0  -0.001771  0.050408  0  3.978435  0
C  C157  1  0.51860159  0.21493686  0.61548686  1  -0.019822  0  -0.00128  0.052195  0  3.978576  0
C  C158  1  0.30376986  0.40054544  0.78506372  1  -0.061864  0  -0.00157  0.051045  0  3.980988  0
C  C159  1  0.78754356  0.39998164  0.58838178  1  0.018633  0  -0.011106  0.012762  0  3.984884  0
C  C160  1  0.38729245  0.18840551  0.60003203  1  -0.007688  0  -0.011501  0.012019  0  3.984821  0
C  C161  1  0.19903068  0.41162493  0.81159587  1  0.008748  0  -0.011942  0.010719  0  3.985811  0
C  C162  1  0.76714526  0.39158567  0.55901293  1  -0.035468  0  -0.010968  0.120187  0  3.966394  0
C  C163  1  0.37535783  0.16743257  0.60842542  1  -0.048952  0  -0.011304  0.119768  0  3.966772  0
C  C164  1  0.20818841  0.44099181  0.83257592  1  0.03741  0  -0.010782  0.120988  0  3.96579  0
C  C165  1  0.67567640  0.40966845  0.55138571  1  -0.037854  0  -0.095898  -0.192503  0  3.978351  0
C  C166  1  0.26572593  0.14172446  0.59033749  1  -0.02423  0  -0.095483  -0.19268  0  3.978119  0
C  C167  1  0.12442417  0.44860585  0.85829240  1  -0.09931  0  -0.094956  -0.192564  0  3.979605  0
C  C168  1  0.58905223  0.43444966  0.57078760  1  -0.01133  0  -0.010542  0.015199  0  3.981031  0
C  C169  1  0.15424458  0.13636083  0.56556995  1  0.014257  0  -0.010717  0.014765  0  3.979909  0
C  C170  1  0.01835320  0.42920028  0.86365534  1  -0.025335  0  -0.010762  0.015956  0  3.980032  0
C  C171  1  0.49237421  0.45133144  0.55960019  1  0.052928  0  -0.013596  0.012296  0  3.985355  0
C  C172  1  0.04073857  0.10829207  0.54869033  1  -0.098434  0  -0.012967  0.014248  0  3.984409  0
C  C173  1  0.93290815  0.44039862  0.89172437  1  -0.027037  0  -0.013322  0.012589  0  3.985642  0
C  C174  1  0.37735207  0.43807418  0.53317295  1  -0.068085  0  -0.015431  0.116784  0  3.959989  0
C  C175  1  0.93915931  0.09510806  0.56194863  1  -0.00125  0  -0.015398  0.116015  0  3.960254  0
C  C176  1  0.84429424  0.46681945  0.90488357  1  -0.037654  0  -0.0158  0.116636  0  3.961796  0
C  C177  1  0.30642339  0.45565587  0.52328684  1  -0.125696  0  -0.099404  -0.198076  0  3.991675  0
C  C178  1  0.85067493  0.06763841  0.54436144  1  -0.053157  0  -0.099962  -0.199289  0  3.991769  0
C  C179  1  0.78318123  0.47669876  0.93234631  1  -0.02053  0  -0.09951  -0.198805  0  3.993524  0
C  C180  1  0.32965692  0.48580672  0.53869341  1  0.049996  0  -0.012668  0.015643  0  3.983705  0
C  C181  1  0.84369280  0.05290741  0.51421154  1  0.020393  0  -0.012527  0.015682  0  3.983574  0
C  C182  1  0.79101493  0.46129617  0.94709150  1  0.007942  0  -0.012474  0.016157  0  3.98384  0
C  C183  1  0.23440744  0.50074676  0.52512485  1  -0.078432  0  -0.013548  0.01337  0  3.980554  0
C  C184  1  0.73339696  0.02440435  0.49927283  1  -0.060496  0  -0.013756  0.012806  0  3.980544  0
C  C185  1  0.70923959  0.47486076  0.97559375  1  -0.039027  0  -0.013861  0.012759  0  3.979591  0
C  C186  1  0.32489300  0.52290384  0.52185624  1  0.004863  0  -0.014299  0.112706  0  3.969542  0
C  C187  1  0.80166719  0.99898010  0.47710732  1  0.006216  0  -0.014157  0.113434  0  3.969893  0
C  C188  1  0.80290542  0.47812842  0.00102334  1  -0.049378  0  -0.01378  0.112699  0  3.969213  0
C  C189  1  0.21966023  0.53274535  0.50610635  1  -0.097888  0  -0.096642  -0.193349  0  3.980875  0
C  C190  1  0.68659387  0.97339221  0.46725867  1  -0.058935  0  -0.097062  -0.193734  0  3.982045  0
C  C191  1  0.71336543  0.49386747  0.02660881  1  -0.078581  0  -0.096678  -0.193112  0  3.980603  0
C  C192  1  0.03262673  0.52162783  0.49301599  1  0.013578  0  -0.014299  0.015408  0  3.991907  0
C  C193  1  0.51066989  0.97140778  0.47836711  1  -0.033083  0  -0.014368  0.013075  0  3.99356  0
C  C194  1  0.53941418  0.50695556  0.02858749  1  0.011499  0  -0.014606  0.01485  0  3.989777  0
C  C195  1  0.93377280  0.53403328  0.47717838  1  -0.096904  0  -0.013086  0.013226  0  3.994201  0
C  C196  1  0.39964337  0.94314833  0.46594078  1  0.017109  0  -0.012884  0.014537  0  3.995092  0
C  C197  1  0.45648437  0.52278126  0.05684029  1  -0.03336  0  -0.012576  0.013985  0  3.993715  0
C  C198  1  0.90757976  0.56370418  0.49040754  1  -0.013231  0  -0.01461  0.110733  0  3.977719  0
C  C199  1  0.34395604  0.92669624  0.43626216  1  -0.063781  0  -0.014889  0.110939  0  3.977382  0
C  C200  1  0.41731554  0.50956108  0.07330067  1  -0.036877  0  -0.015129  0.110623  0  3.976416  0
C  C201  1  0.80719392  0.57349189  0.47428920  1  -0.015325  0  -0.096929  -0.196737  0  3.999434  0
C  C202  1  0.23388590  0.90078024  0.42646641  1  -0.066795  0  -0.096741  -0.197479  0  4.000093  0
C  C203  1  0.33320442  0.52568683  0.09922259  1  -0.085663  0  -0.097012  -0.197084  0  3.997679  0
C  C204  1  0.72939172  0.55546444  0.44601367  1  -0.092178  0  -0.013716  0.012819  0  3.994938  0
C  C205  1  0.17407384  0.89053824  0.44449642  1  -0.008669  0  -0.013791  0.012487  0  3.994262  0
C  C206  1  0.28360432  0.55396106  0.10947243  1  0.008671  0  -0.013709  0.012768  0  3.993515  0
C  C207  1  0.75720264  0.52586883  0.43269669  1  0.026331  0  -0.012508  0.120198  0  3.965037  0
C  C208  1  0.23140863  0.90681812  0.47409551  1  -0.023136  0  -0.012646  0.119412  0  3.965524  0
C  C209  1  0.32448368  0.56726854  0.09317565  1  -0.046615  0  -0.012174  0.120119  0  3.96442  0
C  C210  1  0.85972580  0.51610622  0.44871234  1  0.012571  0  -0.095408  -0.191886  0  3.982531  0
C  C211  1  0.34359266  0.93260266  0.48386183  1  -0.064794  0  -0.095525  -0.19198  0  3.98493  0
C  C212  1  0.41080665  0.55124488  0.06738291  1  -0.014258  0  -0.095765  -0.192348  0  3.984074  0
C  C213  1  0.67475370  0.50450750  0.40274471  1  -0.064139  0  -0.238682  -0.406572  0  3.996229  0
C  C214  1  0.17024590  0.89824142  0.49546503  1  -0.072358  0  -0.238463  -0.4051  0  3.995006  0
C  C215  1  0.27204803  0.59722332  0.10175619  1  -0.051358  0  -0.238412  -0.40496  0  3.99544  0
C  C216  1  0.61444895  0.56815122  0.43183246  1  -0.044784  0  -0.011499  0.017932  0  3.993902  0
C  C217  1  0.04626428  0.86368948  0.43182195  1  -0.001098  0  -0.011143  0.01942  0  3.992183  0
C  C218  1  0.18270877  0.56813595  0.13633608  1  -0.000202  0  -0.011799  0.017484  0  3.992062  0
C  C219  1  0.45768278  0.58476682  0.44509367  1  0.035312  0  -0.014015  0.117029  0  3.967057  0
C  C220  1  0.87277076  0.86035454  0.41523380  1  -0.00911  0  -0.014483  0.115792  0  3.966431  0
C  C221  1  0.01250879  0.55488465  0.13966719  1  -0.071616  0  -0.014065  0.117189  0  3.967092  0
C  C222  1  0.36155443  0.59705113  0.43109304  1  -0.072109  0  -0.096191  -0.188807  0  3.981436  0
C  C223  1  0.76431775  0.83407076  0.40294078  1  -0.073294  0  -0.0957  -0.188641  0  3.980224  0
C  C224  1  0.93017100  0.56888072  0.16593958  1  -0.025399  0  -0.095786  -0.189181  0  3.981851  0
C  C225  1  0.40616238  0.59295160  0.40414757  1  -0.027735  0  -0.01342  0.000783  0  3.97312  0
C  C226  1  0.81312589  0.81120867  0.40701142  1  -0.006205  0  -0.013266  0.002043  0  3.973103  0
C  C227  1  0.00165042  0.59582163  0.18879856  1  0.019081  0  -0.013309  0.001537  0  3.97315  0
C  C228  1  0.55619875  0.57499320  0.39013322  1  0.015285  0  -0.010495  0.126795  0  3.947884  0
C  C229  1  0.98108409  0.81515412  0.42497605  1  0.01567  0  -0.011218  0.124778  0  3.949462  0
C  C230  1  0.16581732  0.60983062  0.18487021  1  -0.005261  0  -0.010567  0.126526  0  3.947964  0
C  C231  1  0.65794496  0.56367037  0.40478442  1  -0.05147  0  -0.096163  -0.198874  0  3.985515  0
C  C232  1  0.09417827  0.84112506  0.43630550  1  -0.081013  0  -0.095991  -0.198404  0  3.984795  0
C  C233  1  0.25310385  0.59518727  0.15891089  1  -0.078537  0  -0.09574  -0.198273  0  3.984656  0
C  C234  1  0.60511847  0.56609462  0.35994111  1  -0.081875  0  -0.24068  -0.410234  0  3.981586  0
C  C235  1  0.03881306  0.79387375  0.43389737  1  -0.038523  0  -0.240278  -0.40902  0  3.980795  0
C  C236  1  0.24493925  0.64002821  0.20615468  1  -0.059553  0  -0.240418  -0.409262  0  3.981642  0
C  C237  1  0.28805737  0.60723805  0.39207342  1  -0.008086  0  -0.000478  0.116068  0  4.009895  0
C  C238  1  0.68086947  0.78483280  0.39273244  1  -0.059022  0  -0.000343  0.115893  0  4.011342  0
C  C239  1  0.89558701  0.60790950  0.21516160  1  -0.03012  0  -0.000946  0.115017  0  4.010951  0
C  C240  1  0.36589477  0.61830173  0.37573428  1  -0.068822  0  -0.107647  -0.269556  0  3.910835  0
C  C241  1  0.74777596  0.75743775  0.38168814  1  0.026517  0  -0.107351  -0.269217  0  3.911597  0
C  C242  1  0.98984282  0.62424789  0.24255951  1  0.017433  0  -0.106905  -0.268631  0  3.911489  0
C  C243  1  0.25443836  0.63236344  0.36462263  1  0.628795  0  0.093725  0.373451  0  4.087779  0
C  C244  1  0.62232828  0.73225176  0.36763652  1  0.550523  0  0.092791  0.372374  0  4.08768  0
C  C245  1  0.88966892  0.63537439  0.26774635  1  0.556686  0  0.0931  0.372882  0  4.086455  0
C  C246  1  0.05758282  0.63694782  0.37209523  1  -0.047715  0  -0.046415  -0.217575  0  3.97618  0
C  C247  1  0.42084460  0.73512692  0.36304731  1  0.043617  0  -0.046433  -0.217575  0  3.97551  0
C  C248  1  0.68531556  0.62790799  0.26487164  1  0.053611  0  -0.046457  -0.217944  0  3.976871  0
C  C249  1  0.98134792  0.62591820  0.38877815  1  -0.027412  0  -0.088349  -0.0659  0  4.048685  0
C  C250  1  0.35554288  0.76282867  0.37407813  1  -0.130542  0  -0.089015  -0.066428  0  4.048902  0
C  C251  1  0.59228655  0.61123075  0.23716687  1  -0.100305  0  -0.088775  -0.066391  0  4.049201  0
C  C252  1  0.09055129  0.61085863  0.39806207  1  -0.059532  0  -0.108655  -0.175875  0  4.014249  0
C  C253  1  0.47970887  0.78718080  0.38913099  1  -0.054177  0  -0.10887  -0.176363  0  4.015846  0
C  C254  1  0.69205866  0.60194437  0.21281098  1  -0.023925  0  -0.10887  -0.175324  0  4.015537  0
C  C255  1  0.93003904  0.65293315  0.36353523  1  1.499238  0  0.234487  0.675606  0  4.134049  0
C  C256  1  0.27731958  0.71058556  0.34705478  1  1.494427  0  0.234065  0.674521  0  4.13348  0
C  C257  1  0.56649044  0.63648184  0.28942794  1  1.4786  0  0.234824  0.676436  0  4.13283  0
C  C258  1  0.38468929  0.58872811  0.47274694  1  -0.045701  0  -0.240384  -0.404596  0  3.983268  0
C  C259  1  0.79582977  0.88405336  0.41128292  1  -0.082773  0  -0.240297  -0.404529  0  3.982263  0
C  C260  1  0.91179219  0.52724982  0.11595536  1  -0.067703  0  -0.240542  -0.405121  0  3.983424  0
C  C261  1  0.97622388  0.58478427  0.52114600  1  -0.066709  0  -0.239745  -0.407435  0  3.99531  0
C  C262  1  0.39143305  0.93637696  0.41519673  1  -0.106839  0  -0.24002  -0.408373  0  3.995917  0
C  C263  1  0.45516159  0.47882130  0.06363681  1  -0.066526  0  -0.239619  -0.407753  0  3.995879  0
C  C264  1  0.94336116  0.49904565  0.49570859  1  0.001492  0  -0.01476  0.114194  0  3.975139  0
C  C265  1  0.44404675  0.99668146  0.50096432  1  0.031346  0  -0.014388  0.115904  0  3.973141  0
C  C266  1  0.44759794  0.50427842  0.00330957  1  0.013879  0  -0.014423  0.115089  0  3.971813  0
C  C267  1  0.04547087  0.48991018  0.51223109  1  -0.01899  0  -0.098771  -0.197899  0  3.986228  0
C  C268  1  0.55533525  0.02234120  0.51011567  1  -0.083083  0  -0.099465  -0.198585  0  3.986216  0
C  C269  1  0.53322232  0.48776526  0.97765219  1  -0.082568  0  -0.09926  -0.198622  0  3.98462  0
C  C270  1  0.74747398  0.48409839  0.48143067  1  -0.09166  0  -0.240325  -0.409536  0  3.988028  0
C  C271  1  0.26313899  0.99735678  0.51591628  1  -0.066352  0  -0.240436  -0.409525  0  3.988504  0
C  C272  1  0.26600108  0.51854992  0.00262957  1  -0.118983  0  -0.240434  -0.409219  0  3.988573  0
C  C273  1  0.52858626  0.53595935  0.53346112  1  -0.01906  0  -0.241228  -0.408592  0  3.978284  0
C  C274  1  0.99235200  0.99753552  0.46407140  1  -0.074611  0  -0.241017  -0.408557  0  3.97889  0
C  C275  1  0.99500855  0.46653478  0.00249072  1  -0.026257  0  -0.240916  -0.40737  0  3.977235  0
C  C276  1  0.43045916  0.49906477  0.56606586  1  -0.009431  0  -0.014023  0.114954  0  3.969298  0
C  C277  1  0.93132473  0.06701674  0.50095641  1  -0.02827  0  -0.01369  0.116481  0  3.968685  0
C  C278  1  0.86463489  0.43393678  0.93299456  1  0.021762  0  -0.013269  0.11631  0  3.968318  0
C  C279  1  0.51441934  0.48142009  0.57508639  1  -0.086198  0  -0.096336  -0.192743  0  3.977397  0
C  C280  1  0.03283735  0.09369252  0.51860688  1  0.027333  0  -0.096576  -0.193853  0  3.978038  0
C  C281  1  0.93959436  0.42491967  0.90633009  1  -0.107221  0  -0.09685  -0.194237  0  3.977781  0
C  C282  1  0.43975054  0.53090508  0.58679315  1  -0.054013  0  -0.238844  -0.40357  0  3.989677  0
C  C283  1  0.90892699  0.05590393  0.46911649  1  -0.076373  0  -0.239251  -0.403984  0  3.990463  0
C  C284  1  0.85319861  0.41320959  0.94410544  1  -0.097422  0  -0.239605  -0.404665  0  3.991287  0
C  C285  1  0.31888467  0.40633143  0.51555742  1  -0.09393  0  -0.240352  -0.406534  0  3.990853  0
C  C286  1  0.91261811  0.10922104  0.59369279  1  -0.075384  0  -0.240117  -0.406708  0  3.990799  0
C  C287  1  0.80347099  0.48444419  0.89076390  1  -0.087876  0  -0.240235  -0.407122  0  3.991221  0
C  C288  1  0.59527816  0.44152746  0.59992185  1  -0.023973  0  -0.01214  0.116359  0  3.95994  0
C  C289  1  0.15347624  0.15841247  0.55848369  1  -0.023457  0  -0.011759  0.116594  0  3.959029  0
C  C290  1  0.99532705  0.40006665  0.84159843  1  0.020738  0  -0.012257  0.116104  0  3.960083  0
C  C291  1  0.69852362  0.42449925  0.60788474  1  -0.041768  0  -0.095602  -0.196178  0  3.979222  0
C  C292  1  0.27375234  0.18339960  0.57551956  1  -0.046734  0  -0.09616  -0.196773  0  3.979017  0
C  C293  1  0.09048328  0.39211770  0.81659940  1  -0.043974  0  -0.095418  -0.195637  0  3.979369  0
C  C294  1  0.48839235  0.46538635  0.62242231  1  -0.056507  0  -0.238061  -0.405767  0  3.990649  0
C  C295  1  0.02309895  0.15705669  0.53459083  1  -0.088202  0  -0.238282  -0.404836  0  3.990049  0
C  C296  1  0.86603571  0.37755255  0.84295521  1  -0.061748  0  -0.238521  -0.405497  0  3.989879  0
C  C297  1  0.82772536  0.36344200  0.53543284  1  -0.067578  0  -0.237765  -0.404636  0  3.98469  0
C  C298  1  0.46414203  0.17199698  0.63656519  1  -0.120807  0  -0.237649  -0.404406  0  3.985868  0
C  C299  1  0.29227915  0.46457400  0.82801099  1  -0.08436  0  -0.237508  -0.403757  0  3.984209  0
C  C300  1  0.10081550  0.38000634  0.59321966  1  0.025225  0  -0.022916  0.092673  0  3.973024  0
C  C301  1  0.72057418  0.21320287  0.61999858  1  0.052198  0  -0.023311  0.089996  0  3.974941  0
C  C302  1  0.50750188  0.40678595  0.78680030  1  0.013814  0  -0.022985  0.091184  0  3.974907  0
C  C303  1  0.20293788  0.36613997  0.60486496  1  -0.06615  0  -0.090822  -0.131881  0  3.995025  0
C  C304  1  0.83661205  0.23871202  0.63387931  1  -0.08356  0  -0.090669  -0.130455  0  3.993261  0
C  C305  1  0.59801629  0.39513076  0.76129095  1  -0.031175  0  -0.091001  -0.130913  0  3.993136  0
C  C306  1  0.12345769  0.35723679  0.62296190  1  -0.011602  0  -0.04682  -0.211837  0  4.004498  0
C  C307  1  0.76610335  0.26572039  0.64279648  1  -0.020856  0  -0.047484  -0.212647  0  4.003837  0
C  C308  1  0.50049378  0.37703867  0.73428660  1  -0.049622  0  -0.047183  -0.212391  0  4.00382  0
C  C309  1  0.25077513  0.34282557  0.63356910  1  1.47908  0  0.2354  0.679082  0  4.126846  0
C  C310  1  0.90799181  0.29072715  0.65717637  1  1.464163  0  0.235556  0.678559  0  4.12752  0
C  C311  1  0.61730171  0.36643104  0.70927704  1  1.521468  0  0.23547  0.678875  0  4.127306  0
C  C312  1  0.20593933  0.39040380  0.57585424  1  -0.086164  0  -0.245215  -0.405768  0  3.980193  0
C  C313  1  0.81539335  0.18544398  0.60957209  1  -0.080622  0  -0.245461  -0.404974  0  3.980626  0
C  C314  1  0.63000455  0.42414189  0.81456466  1  -0.055742  0  -0.245312  -0.404677  0  3.979076  0
O  O315  1  0.76267179  0.65899595  0.37307643  1  -1.24693  0  -0.360068  -0.650567  0  2.151011  0
O  O316  1  0.10391536  0.71406501  0.34097111  1  -1.245482  0  -0.359998  -0.650431  0  2.149369  0
O  O317  1  0.38956590  0.62694811  0.28596038  1  -1.248346  0  -0.360389  -0.651149  0  2.15065  0
O  O318  1  0.99207014  0.66052372  0.34577853  1  -1.293764  0  -0.405942  -0.767823  0  2.423408  0
O  O319  1  0.33166381  0.68524007  0.33947793  1  -1.292232  0  -0.405712  -0.766754  0  2.423575  0
O  O320  1  0.64637951  0.65423995  0.31476506  1  -1.300889  0  -0.405873  -0.767576  0  2.423041  0
O  O321  1  0.33809697  0.64080638  0.34772176  1  -1.312353  0  -0.446989  -0.778727  0  2.305513  0
O  O322  1  0.69758871  0.70691602  0.35921256  1  -1.30724  0  -0.446548  -0.778058  0  2.304463  0
O  O323  1  0.99033986  0.65227687  0.29307960  1  -1.31432  0  -0.446968  -0.778711  0  2.303509  0
O  O324  1  0.41698140  0.33572540  0.62400968  1  -1.245037  0  -0.36121  -0.65112  0  2.150346  0
O  O325  1  0.08128823  0.28826065  0.66425807  1  -1.244689  0  -0.360841  -0.650631  0  2.151028  0
O  O326  1  0.79307698  0.37598729  0.71175392  1  -1.252032  0  -0.360757  -0.650438  0  2.151087  0
O  O327  1  0.19016493  0.33788279  0.65320191  1  -1.294539  0  -0.406094  -0.767666  0  2.425852  0
O  O328  1  0.85236775  0.31530465  0.66210597  1  -1.292776  0  -0.406125  -0.767137  0  2.425278  0
O  O329  1  0.53708943  0.34680535  0.68469369  1  -1.298171  0  -0.406265  -0.767814  0  2.425145  0
O  O330  1  0.84213004  0.35646841  0.64871140  1  -1.316536  0  -0.444226  -0.777233  0  2.292206  0
O  O331  1  0.48566510  0.29224260  0.64354554  1  -1.312399  0  -0.44451  -0.777633  0  2.29182  0
O  O332  1  0.19343951  0.35128582  0.70775769  1  -1.318674  0  -0.444598  -0.777644  0  2.292451  0
