# generated using pymatgen
data_NaYH12(CO)12
_symmetry_space_group_name_H-M   'P 1'
_cell_length_a   6.84262835
_cell_length_b   7.47556743
_cell_length_c   15.62486867
_cell_angle_alpha   90.00001634
_cell_angle_beta   102.63775822
_cell_angle_gamma   89.99988912
_symmetry_Int_Tables_number   1
_chemical_formula_structural   NaYH12(CO)12
_chemical_formula_sum   'Na2 Y2 H24 C24 O24'
_cell_volume   779.88792441
_cell_formula_units_Z   2
loop_
 _symmetry_equiv_pos_site_id
 _symmetry_equiv_pos_as_xyz
  1  'x, y, z'
loop_
 _atom_site_type_symbol
 _atom_site_label
 _atom_site_symmetry_multiplicity
 _atom_site_fract_x
 _atom_site_fract_y
 _atom_site_fract_z
 _atom_site_occupancy
 _atom_site_hle17_bader_spin_density
 _atom_site_hle17_ddec_charge
 _atom_site_hle17_ddec_spin_density
 _atom_site_hle17_ddec_sum_bond_order
 _atom_site_hle17_magmom
 _atom_site_hse06_10hf_bader_spin_density
 _atom_site_hse06_10hf_ddec_charge
 _atom_site_hse06_10hf_ddec_spin_density
 _atom_site_hse06_10hf_ddec_sum_bond_order
 _atom_site_hse06_10hf_magmom
 _atom_site_hse06_bader_spin_density
 _atom_site_hse06_ddec_charge
 _atom_site_hse06_ddec_spin_density
 _atom_site_hse06_ddec_sum_bond_order
 _atom_site_hse06_magmom
 _atom_site_pbe_bader_spin_density
 _atom_site_pbe_cm5_charge
 _atom_site_pbe_ddec_charge
 _atom_site_pbe_ddec_spin_density
 _atom_site_pbe_ddec_sum_bond_order
 _atom_site_pbe_magmom
Na  Na0  1  0.14068243  0.74994169  0.28155794  1  0  0.92266  0  0.356211  0  0  0.89341  0  0.489231  0  0  0.902236  0  0.468595  0  0  0.696893  0.88643  0  0.504629  0
Na  Na1  1  0.85931264  0.24994302  0.71844177  1  0  0.92267  0  0.356187  0  0  0.893441  0  0.489181  0  0  0.902272  0  0.468546  0  0  0.696917  0.886474  0  0.504576  0
Y  Y2  1  0.30441212  0.25010400  0.60875649  1  0  1.970909  0  2.00049  0  0  1.775691  0  2.505642  0  0  1.846066  0  2.442151  0  0  1.311158  1.724881  0  2.549275  0
Y  Y3  1  0.69558145  0.75010711  0.39124308  1  0  1.970905  0  2.000621  0  0  1.775641  0  2.505791  0  0  1.846006  0  2.442311  0  0  1.3111  1.724825  0  2.549429  0
H  H4  1  0.84491701  0.26258803  0.06055946  1  0  0.091483  0  0.96274  0  0  0.101594  0  1.024435  0  0  0.104941  0  1.022213  0  0  0.104214  0.099077  0  1.0263  0
H  H5  1  0.15508402  0.76259108  0.93944083  1  0  0.091428  0  0.962792  0  0  0.101548  0  1.02449  0  0  0.104891  0  1.022268  0  0  0.104186  0.099028  0  1.026355  0
H  H6  1  0.21619718  0.23718583  0.06059473  1  0  0.092306  0  0.963648  0  0  0.102782  0  1.02489  0  0  0.106151  0  1.022656  0  0  0.104811  0.100275  0  1.02673  0
H  H7  1  0.78380540  0.73719312  0.93940634  1  0  0.092306  0  0.963697  0  0  0.102772  0  1.02494  0  0  0.106141  0  1.022706  0  0  0.104799  0.100264  0  1.026779  0
H  H8  1  0.76310793  0.25737537  0.89702530  1  0  0.107792  0  0.956039  0  0  0.117814  0  1.017539  0  0  0.121159  0  1.015298  0  0  0.113462  0.115329  0  1.019357  0
H  H9  1  0.23689011  0.75737912  0.10297534  1  0  0.10781  0  0.956017  0  0  0.117831  0  1.017514  0  0  0.12118  0  1.015264  0  0  0.113478  0.115345  0  1.019335  0
H  H10  1  0.13456334  0.24237104  0.89707432  1  0  0.107216  0  0.955413  0  0  0.116972  0  1.017046  0  0  0.120341  0  1.014827  0  0  0.112779  0.114453  0  1.018894  0
H  H11  1  0.86543623  0.74237903  0.10292710  1  0  0.107222  0  0.955373  0  0  0.116935  0  1.017048  0  0  0.120302  0  1.014833  0  0  0.112751  0.114399  0  1.018922  0
H  H12  1  0.21890448  0.40188107  0.20804480  1  0  0.416577  0  0.872446  0  0  0.390395  0  0.929779  0  0  0.399194  0  0.916672  0  0  0.296692  0.384153  0  0.939085  0
H  H13  1  0.78109325  0.90187890  0.79195583  1  0  0.416645  0  0.872545  0  0  0.390464  0  0.92973  0  0  0.399264  0  0.916622  0  0  0.296712  0.38422  0  0.939039  0
H  H14  1  0.98910507  0.09792218  0.20799360  1  0  0.416574  0  0.87347  0  0  0.39008  0  0.930373  0  0  0.398887  0  0.917277  0  0  0.296515  0.383829  0  0.939678  0
H  H15  1  0.01089481  0.59792005  0.79200912  1  0  0.416559  0  0.873532  0  0  0.390096  0  0.930361  0  0  0.398905  0  0.91726  0  0  0.296546  0.383844  0  0.939668  0
H  H16  1  0.98437423  0.41271702  0.19649903  1  0  0.41709  0  0.887289  0  0  0.386427  0  0.951705  0  0  0.396477  0  0.936681  0  0  0.288515  0.379267  0  0.962415  0
H  H17  1  0.01562349  0.91271756  0.80350033  1  0  0.417104  0  0.887259  0  0  0.386458  0  0.951648  0  0  0.396508  0  0.936621  0  0  0.288525  0.379303  0  0.96235  0
H  H18  1  0.21208001  0.08705681  0.19644940  1  0  0.416889  0  0.887643  0  0  0.386121  0  0.951991  0  0  0.396197  0  0.936959  0  0  0.288162  0.378972  0  0.962657  0
H  H19  1  0.78792139  0.58705731  0.80355282  1  0  0.41691  0  0.887613  0  0  0.386144  0  0.951956  0  0  0.396221  0  0.936923  0  0  0.288188  0.378994  0  0.962623  0
H  H20  1  0.45741300  0.61594903  0.69979142  1  0  0.396955  0  0.894193  0  0  0.365504  0  0.97213  0  0  0.377989  0  0.958483  0  0  0.306413  0.35666  0  0.981759  0
H  H21  1  0.54258835  0.11594933  0.30020888  1  0  0.396982  0  0.89415  0  0  0.365531  0  0.972088  0  0  0.378015  0  0.95844  0  0  0.306428  0.356695  0  0.981699  0
H  H22  1  0.24232864  0.88428069  0.69980295  1  0  0.396791  0  0.894923  0  0  0.365605  0  0.972291  0  0  0.378075  0  0.958663  0  0  0.306641  0.356765  0  0.981894  0
H  H23  1  0.75766915  0.38428463  0.30019512  1  0  0.396758  0  0.894942  0  0  0.365574  0  0.972298  0  0  0.37804  0  0.958691  0  0  0.306647  0.356736  0  0.981896  0
H  H24  1  0.51357745  0.76863702  0.58301500  1  0  0.101303  0  0.925678  0  0  0.106591  0  0.98645  0  0  0.110146  0  0.98308  0  0  0.130387  0.103986  0  0.989071  0
H  H25  1  0.48642657  0.26864151  0.41698494  1  0  0.101266  0  0.925786  0  0  0.106581  0  0.98652  0  0  0.110137  0  0.983152  0  0  0.130376  0.103985  0  0.989139  0
H  H26  1  0.06925316  0.73165159  0.58310922  1  0  0.102157  0  0.925532  0  0  0.107464  0  0.98587  0  0  0.110911  0  0.982659  0  0  0.130995  0.104908  0  0.988429  0
H  H27  1  0.93074646  0.23165261  0.41688709  1  0  0.102047  0  0.925505  0  0  0.107391  0  0.985887  0  0  0.110839  0  0.982675  0  0  0.130965  0.104844  0  0.988441  0
C  C28  1  0.39521879  0.25001702  0.79013526  1  0  0.668947  0  3.870882  0  0  0.62535  0  4.153082  0  0  0.659326  0  4.146716  0  0  0.214177  0.602297  0  4.156588  0
C  C29  1  0.60477778  0.75002152  0.20986460  1  0  0.668921  0  3.870802  0  0  0.625309  0  4.153002  0  0  0.659286  0  4.146636  0  0  0.214112  0.602241  0  4.156526  0
C  C30  1  0.44402325  0.24988725  0.88751183  1  0  -0.058277  0  3.744405  0  0  -0.039595  0  3.981341  0  0  -0.047025  0  4.004056  0  0  -0.009794  -0.034798  0  3.96605  0
C  C31  1  0.55597331  0.74988910  0.11248931  1  0  -0.058305  0  3.744523  0  0  -0.039623  0  3.981455  0  0  -0.047056  0  4.004171  0  0  -0.009779  -0.034817  0  3.966157  0
C  C32  1  0.53570797  0.24990432  0.07088160  1  0  -0.063084  0  3.755865  0  0  -0.045051  0  3.997304  0  0  -0.051867  0  4.021554  0  0  -0.011897  -0.040521  0  3.980757  0
C  C33  1  0.46429158  0.74990815  0.92911983  1  0  -0.063204  0  3.755962  0  0  -0.045167  0  3.997384  0  0  -0.051986  0  4.021632  0  0  -0.011916  -0.040632  0  3.98083  0
C  C34  1  0.68963362  0.25677589  0.02454465  1  0  -0.064194  0  3.726731  0  0  -0.085013  0  3.972751  0  0  -0.086967  0  3.994534  0  0  -0.077884  -0.083538  0  3.957927  0
C  C35  1  0.31036594  0.75677868  0.97545486  1  0  -0.064125  0  3.72673  0  0  -0.084962  0  3.972748  0  0  -0.086908  0  3.994524  0  0  -0.077877  -0.083488  0  3.957921  0
C  C36  1  0.33548011  0.24298327  0.02458137  1  0  -0.065385  0  3.727677  0  0  -0.086728  0  3.974053  0  0  -0.088717  0  3.995857  0  0  -0.078321  -0.085253  0  3.959238  0
C  C37  1  0.66452096  0.74298811  0.97542020  1  0  -0.065382  0  3.727689  0  0  -0.08671  0  3.974041  0  0  -0.088697  0  3.995843  0  0  -0.078293  -0.085231  0  3.959216  0
C  C38  1  0.37668415  0.68692160  0.57326724  1  0  0.052546  0  3.599871  0  0  0.02603  0  3.849029  0  0  0.027663  0  3.85409  0  0  0.006458  0.024749  0  3.845783  0
C  C39  1  0.62331255  0.18692719  0.42673199  1  0  0.052337  0  3.600115  0  0  0.025859  0  3.849296  0  0  0.027486  0  3.854365  0  0  0.00644  0.02457  0  3.846066  0
C  C40  1  0.19640124  0.81326936  0.57330408  1  0  0.050689  0  3.602154  0  0  0.025158  0  3.849601  0  0  0.026836  0  3.854668  0  0  0.004749  0.023858  0  3.846325  0
C  C41  1  0.80359820  0.31326660  0.42669479  1  0  0.050989  0  3.601689  0  0  0.02527  0  3.849528  0  0  0.026948  0  3.8546  0  0  0.004798  0.023959  0  3.846258  0
C  C42  1  0.35251363  0.58728234  0.48660543  1  0  0.699013  0  3.822165  0  0  0.643001  0  4.128451  0  0  0.678327  0  4.118045  0  0  0.240036  0.618833  0  4.134998  0
C  C43  1  0.64748327  0.08730265  0.51339700  1  0  0.699097  0  3.821951  0  0  0.643086  0  4.128201  0  0  0.678412  0  4.117793  0  0  0.240029  0.618914  0  4.134768  0
C  C44  1  0.13396173  0.91290999  0.48663287  1  0  0.697471  0  3.826472  0  0  0.642555  0  4.130711  0  0  0.677878  0  4.120344  0  0  0.239797  0.618371  0  4.137253  0
C  C45  1  0.86604797  0.41289379  0.51336892  1  0  0.697766  0  3.825942  0  0  0.642706  0  4.130526  0  0  0.678031  0  4.120156  0  0  0.239862  0.618533  0  4.137061  0
C  C46  1  0.64448685  0.25462118  0.93342461  1  0  -0.056544  0  3.702247  0  0  -0.080612  0  3.949009  0  0  -0.081121  0  3.969663  0  0  -0.073541  -0.080056  0  3.934942  0
C  C47  1  0.35551569  0.75462469  0.06657711  1  0  -0.056531  0  3.702292  0  0  -0.080602  0  3.949061  0  0  -0.08111  0  3.969713  0  0  -0.073551  -0.080042  0  3.93499  0
C  C48  1  0.28955716  0.24512924  0.93345857  1  0  -0.057017  0  3.701791  0  0  -0.080646  0  3.948426  0  0  -0.081213  0  3.969132  0  0  -0.073788  -0.080052  0  3.934363  0
C  C49  1  0.71044241  0.74513480  0.06654158  1  0  -0.056948  0  3.701694  0  0  -0.080537  0  3.948319  0  0  -0.081104  0  3.969024  0  0  -0.073745  -0.079935  0  3.934268  0
C  C50  1  0.58463807  0.24997922  0.16889369  1  0  0.667218  0  3.834172  0  0  0.608909  0  4.136597  0  0  0.642747  0  4.128684  0  0  0.227105  0.586052  0  4.141051  0
C  C51  1  0.41536299  0.74998040  0.83110661  1  0  0.667282  0  3.834201  0  0  0.609008  0  4.136588  0  0  0.642847  0  4.128671  0  0  0.22711  0.586149  0  4.141044  0
O  O52  1  0.28986929  0.42820149  0.48375401  1  0  -0.636781  0  2.027477  0  0  -0.573396  0  2.269418  0  0  -0.601197  0  2.258978  0  0  -0.338448  -0.554114  0  2.276172  0
O  O53  1  0.71012990  0.92819528  0.51624612  1  0  -0.636923  0  2.027014  0  0  -0.573443  0  2.268877  0  0  -0.601245  0  2.258431  0  0  -0.33846  -0.554169  0  2.275654  0
O  O54  1  0.19386409  0.07195036  0.48377633  1  0  -0.635946  0  2.029331  0  0  -0.573751  0  2.271298  0  0  -0.601543  0  2.260907  0  0  -0.338469  -0.554443  0  2.278013  0
O  O55  1  0.80613586  0.57196003  0.51622255  1  0  -0.636255  0  2.028779  0  0  -0.573997  0  2.270842  0  0  -0.6018  0  2.260458  0  0  -0.338573  -0.554683  0  2.277541  0
O  O56  1  0.39523035  0.66924930  0.42146556  1  0  -0.73117  0  2.055848  0  0  -0.679586  0  2.329107  0  0  -0.707092  0  2.314558  0  0  -0.409742  -0.660135  0  2.338483  0
O  O57  1  0.60477390  0.16925234  0.57853119  1  0  -0.731111  0  2.056083  0  0  -0.679586  0  2.329421  0  0  -0.707091  0  2.314873  0  0  -0.409707  -0.660134  0  2.338798  0
O  O58  1  0.02608023  0.83097114  0.42149789  1  0  -0.729489  0  2.056905  0  0  -0.67827  0  2.329436  0  0  -0.705712  0  2.314808  0  0  -0.408896  -0.658841  0  2.338832  0
O  O59  1  0.97391319  0.33096816  0.57849847  1  0  -0.729545  0  2.057309  0  0  -0.678244  0  2.329914  0  0  -0.705682  0  2.315278  0  0  -0.408849  -0.658812  0  2.339276  0
O  O60  1  0.53530208  0.24370967  0.74756770  1  0  -0.710156  0  1.981692  0  0  -0.655426  0  2.226271  0  0  -0.682282  0  2.216431  0  0  -0.417756  -0.636514  0  2.232443  0
O  O61  1  0.46469450  0.74370909  0.25243344  1  0  -0.710179  0  1.981689  0  0  -0.655395  0  2.226221  0  0  -0.682251  0  2.21638  0  0  -0.417699  -0.636477  0  2.2324  0
O  O62  1  0.21249561  0.25647019  0.74768980  1  0  -0.707977  0  1.983945  0  0  -0.65307  0  2.227787  0  0  -0.680001  0  2.218107  0  0  -0.415728  -0.63412  0  2.233852  0
O  O63  1  0.78750244  0.75647439  0.25231084  1  0  -0.707928  0  1.983851  0  0  -0.653046  0  2.227739  0  0  -0.679974  0  2.218056  0  0  -0.415733  -0.634086  0  2.233807  0
O  O64  1  0.10619519  0.48504007  0.20020916  1  0  -0.873045  0  1.757963  0  0  -0.837958  0  1.917766  0  0  -0.851985  0  1.886686  0  0  -0.658311  -0.827939  0  1.939783  0
O  O65  1  0.89379938  0.98504039  0.79978925  1  0  -0.873123  0  1.758048  0  0  -0.838043  0  1.917702  0  0  -0.852071  0  1.886623  0  0  -0.658341  -0.828027  0  1.939721  0
O  O66  1  0.09394633  0.01475872  0.20012431  1  0  -0.872694  0  1.759746  0  0  -0.837203  0  1.920091  0  0  -0.851303  0  1.888864  0  0  -0.657435  -0.82715  0  1.942188  0
O  O67  1  0.90605373  0.51476036  0.79987713  1  0  -0.872691  0  1.759764  0  0  -0.83724  0  1.920031  0  0  -0.851346  0  1.888804  0  0  -0.657491  -0.827182  0  1.942132  0
O  O68  1  0.44725011  0.20995162  0.20977894  1  0  -0.643932  0  2.011285  0  0  -0.573264  0  2.225583  0  0  -0.599261  0  2.214794  0  0  -0.299195  -0.555096  0  2.232547  0
O  O69  1  0.55275253  0.70994986  0.79022278  1  0  -0.643947  0  2.011289  0  0  -0.573306  0  2.22558  0  0  -0.599306  0  2.214792  0  0  -0.299167  -0.555134  0  2.232547  0
O  O70  1  0.76285726  0.29010178  0.20979045  1  0  -0.645683  0  2.010998  0  0  -0.574979  0  2.225352  0  0  -0.600917  0  2.21449  0  0  -0.300737  -0.556837  0  2.232383  0
O  O71  1  0.23714521  0.79010192  0.79021063  1  0  -0.645714  0  2.010952  0  0  -0.57503  0  2.225313  0  0  -0.600968  0  2.214446  0  0  -0.300774  -0.556889  0  2.232348  0
O  O72  1  0.39469028  0.55649940  0.64139967  1  0  -0.620523  0  2.167748  0  0  -0.561269  0  2.414028  0  0  -0.581501  0  2.401036  0  0  -0.424947  -0.546685  0  2.422594  0
O  O73  1  0.60530970  0.05649829  0.35860049  1  0  -0.620456  0  2.167784  0  0  -0.561203  0  2.414049  0  0  -0.581433  0  2.401066  0  0  -0.424921  -0.546616  0  2.422597  0
O  O74  1  0.24670920  0.94371027  0.64141651  1  0  -0.620624  0  2.168989  0  0  -0.561585  0  2.414404  0  0  -0.581792  0  2.401414  0  0  -0.425068  -0.547023  0  2.423008  0
O  O75  1  0.75328846  0.44371157  0.35858220  1  0  -0.620698  0  2.16891  0  0  -0.561561  0  2.414315  0  0  -0.581754  0  2.401318  0  0  -0.425095  -0.546995  0  2.422911  0
