# generated using pymatgen
data_GdH10C8SO10
_symmetry_space_group_name_H-M   'P 1'
_cell_length_a   7.71496166
_cell_length_b   8.51225521
_cell_length_c   10.52467747
_cell_angle_alpha   71.49108933
_cell_angle_beta   87.58693277
_cell_angle_gamma   67.85657431
_symmetry_Int_Tables_number   1
_chemical_formula_structural   GdH10C8SO10
_chemical_formula_sum   'Gd2 H20 C16 S2 O20'
_cell_volume   604.70937228
_cell_formula_units_Z   2
loop_
 _symmetry_equiv_pos_site_id
 _symmetry_equiv_pos_as_xyz
  1  'x, y, z'
loop_
 _atom_site_type_symbol
 _atom_site_label
 _atom_site_symmetry_multiplicity
 _atom_site_fract_x
 _atom_site_fract_y
 _atom_site_fract_z
 _atom_site_occupancy
 _atom_site_hle17_bader_spin_density
 _atom_site_hle17_ddec_charge
 _atom_site_hle17_ddec_spin_density
 _atom_site_hle17_ddec_sum_bond_order
 _atom_site_hle17_magmom
 _atom_site_hse06_10hf_bader_spin_density
 _atom_site_hse06_10hf_ddec_charge
 _atom_site_hse06_10hf_ddec_spin_density
 _atom_site_hse06_10hf_ddec_sum_bond_order
 _atom_site_hse06_10hf_magmom
 _atom_site_hse06_bader_spin_density
 _atom_site_hse06_ddec_charge
 _atom_site_hse06_ddec_spin_density
 _atom_site_hse06_ddec_sum_bond_order
 _atom_site_hse06_magmom
 _atom_site_pbe_bader_spin_density
 _atom_site_pbe_cm5_charge
 _atom_site_pbe_ddec_charge
 _atom_site_pbe_ddec_spin_density
 _atom_site_pbe_ddec_sum_bond_order
 _atom_site_pbe_magmom
Gd  Gd0  1  0.67919910  0.20576317  0.12235977  1  0  2.235073  0  1.722766  0  0  2.156964  0  2.053919  0  0  2.200584  0  2.011957  0  0  1.468362  2.119991  0  2.092555  0
Gd  Gd1  1  0.32081017  0.79423323  0.87764216  1  0  2.235045  0  1.722848  0  0  2.157015  0  2.053846  0  0  2.200503  0  2.012088  0  0  1.468384  2.12004  0  2.092486  0
H  H2  1  0.22328618  0.37841029  0.71249672  1  0  0.102239  0  0.949748  0  0  0.111088  0  1.009844  0  0  0.114727  0  1.007771  0  0  0.105132  0.108382  0  1.011597  0
H  H3  1  0.77670020  0.62159862  0.28749979  1  0  0.102215  0  0.949781  0  0  0.111081  0  1.009853  0  0  0.114722  0  1.007777  0  0  0.105097  0.108351  0  1.01163  0
H  H4  1  0.27679946  0.76468744  0.34845235  1  0  0.107075  0  0.947348  0  0  0.115539  0  1.008336  0  0  0.119142  0  1.006445  0  0  0.106896  0.112861  0  1.009912  0
H  H5  1  0.72318088  0.23532026  0.65154275  1  0  0.107076  0  0.947298  0  0  0.115518  0  1.00831  0  0  0.119119  0  1.006421  0  0  0.106896  0.11284  0  1.009889  0
H  H6  1  0.24542112  0.17289338  0.58758596  1  0  0.10088  0  0.993481  0  0  0.108403  0  1.060891  0  0  0.112119  0  1.057879  0  0  0.109098  0.105756  0  1.06295  0
H  H7  1  0.75458219  0.82710848  0.41241379  1  0  0.100874  0  0.993456  0  0  0.108373  0  1.060897  0  0  0.112089  0  1.057885  0  0  0.109079  0.10572  0  1.062966  0
H  H8  1  0.23784327  0.67658866  0.59332856  1  0  0.091812  0  0.98832  0  0  0.098938  0  1.056414  0  0  0.102728  0  1.053382  0  0  0.10452  0.096238  0  1.058599  0
H  H9  1  0.76212275  0.32342603  0.40666325  1  0  0.091693  0  0.988333  0  0  0.098798  0  1.056474  0  0  0.102589  0  1.05344  0  0  0.104425  0.0961  0  1.058654  0
H  H10  1  0.94464519  0.38500448  0.14048967  1  0  0.456607  0  0.839242  0  0  0.428143  0  0.896333  0  0  0.438545  0  0.88123  0  0  0.305795  0.420762  0  0.907013  0
H  H11  1  0.05535887  0.61499202  0.85950764  1  0  0.456587  0  0.839271  0  0  0.428112  0  0.896386  0  0  0.438516  0  0.881279  0  0  0.305779  0.42073  0  0.907068  0
H  H12  1  0.74242878  0.54678084  0.07785403  1  0  0.457366  0  0.829783  0  0  0.427364  0  0.891023  0  0  0.438692  0  0.874261  0  0  0.30907  0.419232  0  0.903061  0
H  H13  1  0.25758081  0.45321819  0.92214152  1  0  0.457478  0  0.829651  0  0  0.427491  0  0.890882  0  0  0.438821  0  0.874114  0  0  0.309096  0.419355  0  0.902927  0
H  H14  1  0.08416541  0.92570717  0.13415406  1  0  0.446125  0  0.850535  0  0  0.416226  0  0.912712  0  0  0.427364  0  0.896323  0  0  0.306473  0.408294  0  0.92434  0
H  H15  1  0.91584023  0.07429198  0.86584632  1  0  0.446072  0  0.850599  0  0  0.416177  0  0.912776  0  0  0.427298  0  0.896405  0  0  0.306473  0.408245  0  0.924404  0
H  H16  1  0.07224577  0.11503191  0.04520965  1  0  0.443129  0  0.823548  0  0  0.417379  0  0.891419  0  0  0.426739  0  0.87864  0  0  0.319996  0.410696  0  0.899134  0
H  H17  1  0.92776194  0.88496854  0.95479604  1  0  0.443105  0  0.823515  0  0  0.417352  0  0.891405  0  0  0.426712  0  0.878668  0  0  0.319973  0.410669  0  0.899121  0
H  H18  1  0.97207075  0.06740495  0.35049771  1  0  0.449541  0  0.83573  0  0  0.41996  0  0.896575  0  0  0.429775  0  0.882224  0  0  0.311328  0.412914  0  0.906862  0
H  H19  1  0.02793121  0.93259698  0.64950871  1  0  0.449571  0  0.83569  0  0  0.419996  0  0.896526  0  0  0.429808  0  0.88218  0  0  0.311371  0.412949  0  0.906816  0
H  H20  1  0.80506908  0.03120690  0.43409290  1  0  0.455476  0  0.834824  0  0  0.426095  0  0.894369  0  0  0.436114  0  0.879738  0  0  0.309483  0.418931  0  0.904815  0
H  H21  1  0.19492977  0.96879642  0.56591040  1  0  0.455508  0  0.834744  0  0  0.42612  0  0.894313  0  0  0.436138  0  0.879682  0  0  0.309507  0.418958  0  0.904757  0
C  C22  1  0.24107772  0.41840786  0.60529634  1  0  -0.039202  0  3.704033  0  0  -0.053849  0  3.95825  0  0  -0.056025  0  3.978237  0  0  -0.077716  -0.0524  0  3.944634  0
C  C23  1  0.75890786  0.58159972  0.39469864  1  0  -0.039301  0  3.704038  0  0  -0.053962  0  3.958229  0  0  -0.056142  0  3.978217  0  0  -0.077741  -0.052493  0  3.944611  0
C  C24  1  0.41342036  0.08832019  0.96836682  1  0  0.577423  0  3.884085  0  0  0.531545  0  4.189613  0  0  0.561925  0  4.178911  0  0  0.228972  0.510974  0  4.195835  0
C  C25  1  0.58659480  0.91166412  0.03163808  1  0  0.577371  0  3.884482  0  0  0.531632  0  4.18982  0  0  0.561991  0  4.179143  0  0  0.22893  0.511062  0  4.196036  0
C  C26  1  0.28687580  0.51701115  0.32909877  1  0  -0.067857  0  3.733863  0  0  -0.053191  0  3.962905  0  0  -0.058414  0  3.984735  0  0  -0.007149  -0.049789  0  3.948304  0
C  C27  1  0.71312249  0.48298684  0.67090117  1  0  -0.067853  0  3.73356  0  0  -0.05321  0  3.962656  0  0  -0.058436  0  3.984479  0  0  -0.007159  -0.049811  0  3.948064  0
C  C28  1  0.27910760  0.34828991  0.39803718  1  0  -0.138432  0  3.701912  0  0  -0.119849  0  3.947899  0  0  -0.126026  0  3.970244  0  0  -0.010651  -0.116006  0  3.933237  0
C  C29  1  0.72089097  0.65171074  0.60196397  1  0  -0.138487  0  3.701803  0  0  -0.119904  0  3.947822  0  0  -0.126081  0  3.970162  0  0  -0.010694  -0.116063  0  3.933165  0
C  C30  1  0.32296452  0.57334869  0.18450488  1  0  0.730719  0  3.841458  0  0  0.679901  0  4.139691  0  0  0.715903  0  4.126342  0  0  0.238495  0.655456  0  4.147401  0
C  C31  1  0.67704031  0.42664915  0.81549776  1  0  0.730756  0  3.841415  0  0  0.679909  0  4.139689  0  0  0.715923  0  4.126323  0  0  0.238506  0.655467  0  4.147404  0
C  C32  1  0.26903052  0.63485828  0.40071345  1  0  -0.065514  0  3.701504  0  0  -0.086868  0  3.947894  0  0  -0.088592  0  3.968602  0  0  -0.079214  -0.0856  0  3.933934  0
C  C33  1  0.73095557  0.36514796  0.59928186  1  0  -0.065529  0  3.70141  0  0  -0.086859  0  3.947788  0  0  -0.088581  0  3.968493  0  0  -0.079247  -0.085593  0  3.933838  0
C  C34  1  0.25488697  0.30087978  0.53499707  1  0  -0.052197  0  3.743288  0  0  -0.08063  0  3.996164  0  0  -0.08035  0  4.016209  0  0  -0.080802  -0.080634  0  3.982547  0
C  C35  1  0.74510848  0.69912226  0.46500191  1  0  -0.052089  0  3.743201  0  0  -0.080498  0  3.996066  0  0  -0.080223  0  4.016129  0  0  -0.080732  -0.080496  0  3.982433  0
C  C36  1  0.24807885  0.58530066  0.53821808  1  0  -0.049209  0  3.736089  0  0  -0.067219  0  3.992613  0  0  -0.068084  0  4.012721  0  0  -0.083681  -0.066495  0  3.978813  0
C  C37  1  0.75189574  0.41470853  0.46177775  1  0  -0.049085  0  3.735998  0  0  -0.067053  0  3.992474  0  0  -0.067918  0  4.012584  0  0  -0.083565  -0.066328  0  3.978666  0
S  S38  1  0.28117852  0.19924586  0.30971497  1  0  1.359069  0  5.543853  0  0  1.25326  0  6.070477  0  0  1.302036  0  6.045049  0  0  0.542397  1.219588  0  6.086792  0
S  S39  1  0.71882318  0.80075338  0.69028645  1  0  1.35915  0  5.543805  0  0  1.253357  0  6.070415  0  0  1.30213  0  6.04498  0  0  0.542471  1.219676  0  6.086737  0
O  O40  1  0.16411606  0.31290746  0.18385194  1  0  -0.653503  0  2.035992  0  0  -0.591783  0  2.274235  0  0  -0.613605  0  2.260599  0  0  -0.314269  -0.576392  0  2.283003  0
O  O41  1  0.83588798  0.68708906  0.81614822  1  0  -0.653516  0  2.035912  0  0  -0.591806  0  2.274191  0  0  -0.613631  0  2.260557  0  0  -0.31431  -0.576415  0  2.282961  0
O  O42  1  0.20539921  0.07064048  0.39703455  1  0  -0.684608  0  1.987538  0  0  -0.618245  0  2.22524  0  0  -0.640042  0  2.209534  0  0  -0.323696  -0.603011  0  2.235974  0
O  O43  1  0.79460300  0.92935742  0.60296720  1  0  -0.684639  0  1.987542  0  0  -0.618285  0  2.225229  0  0  -0.640077  0  2.209523  0  0  -0.323707  -0.60303  0  2.235947  0
O  O44  1  0.44651062  0.46273205  0.13854241  1  0  -0.751728  0  2.157005  0  0  -0.713645  0  2.425946  0  0  -0.738226  0  2.413048  0  0  -0.399592  -0.695142  0  2.433731  0
O  O45  1  0.55350045  0.53726299  0.86146173  1  0  -0.751666  0  2.15694  0  0  -0.713584  0  2.425902  0  0  -0.738152  0  2.413014  0  0  -0.3995  -0.695061  0  2.433642  0
O  O46  1  0.47865978  0.10487699  0.28623726  1  0  -0.754388  0  2.030413  0  0  -0.711707  0  2.303951  0  0  -0.734322  0  2.28987  0  0  -0.3947  -0.694838  0  2.312708  0
O  O47  1  0.52134425  0.89511954  0.71376479  1  0  -0.754397  0  2.030489  0  0  -0.711744  0  2.304027  0  0  -0.734342  0  2.289954  0  0  -0.394708  -0.694878  0  2.31279  0
O  O48  1  0.42041997  0.22873959  0.98099752  1  0  -0.645425  0  2.132907  0  0  -0.599588  0  2.369838  0  0  -0.623927  0  2.361741  0  0  -0.335297  -0.582416  0  2.37519  0
O  O49  1  0.57959301  0.77126071  0.01900425  1  0  -0.645293  0  2.133261  0  0  -0.599447  0  2.37006  0  0  -0.623756  0  2.361974  0  0  -0.335189  -0.58228  0  2.375406  0
O  O50  1  0.81008976  0.41508434  0.11551872  1  0  -0.930543  0  1.858483  0  0  -0.889784  0  2.054168  0  0  -0.909111  0  2.021687  0  0  -0.66482  -0.87533  0  2.076926  0
O  O51  1  0.18991820  0.58491210  0.88448324  1  0  -0.930634  0  1.858409  0  0  -0.889905  0  2.054049  0  0  -0.909215  0  2.021574  0  0  -0.664823  -0.875449  0  2.076813  0
O  O52  1  0.01592927  0.05615835  0.12105442  1  0  -0.894445  0  1.885103  0  0  -0.856083  0  2.088783  0  0  -0.874375  0  2.058374  0  0  -0.636932  -0.842421  0  2.108823  0
O  O53  1  0.98408207  0.94383936  0.87895282  1  0  -0.894382  0  1.885139  0  0  -0.856039  0  2.08881  0  0  -0.874295  0  2.058489  0  0  -0.636927  -0.842375  0  2.10885  0
O  O54  1  0.84156198  0.07598900  0.34225929  1  0  -0.905632  0  1.881251  0  0  -0.862069  0  2.073607  0  0  -0.880527  0  2.041663  0  0  -0.641169  -0.848222  0  2.09598  0
O  O55  1  0.15843584  0.92401701  0.65774619  1  0  -0.905708  0  1.881195  0  0  -0.862164  0  2.073516  0  0  -0.880601  0  2.041586  0  0  -0.641236  -0.848318  0  2.095892  0
O  O56  1  0.23336437  0.73532064  0.11003743  1  0  -0.720331  0  2.074202  0  0  -0.667981  0  2.309647  0  0  -0.694197  0  2.298247  0  0  -0.358975  -0.649057  0  2.316801  0
O  O57  1  0.76664776  0.26467169  0.88996073  1  0  -0.720372  0  2.074242  0  0  -0.668002  0  2.309712  0  0  -0.694237  0  2.2983  0  0  -0.359034  -0.64908  0  2.316869  0
O  O58  1  0.27919093  0.07762620  0.91048457  1  0  -0.659461  0  2.014762  0  0  -0.618302  0  2.249976  0  0  -0.640523  0  2.238701  0  0  -0.357332  -0.602317  0  2.257172  0
O  O59  1  0.72082530  0.92236207  0.08952117  1  0  -0.659612  0  2.014843  0  0  -0.618481  0  2.249988  0  0  -0.64072  0  2.238723  0  0  -0.357435  -0.602495  0  2.257179  0
