# generated using pymatgen
data_Zn5H18(C16O9)2
_symmetry_space_group_name_H-M   'P 1'
_cell_length_a   5.69187289
_cell_length_b   16.67671663
_cell_length_c   17.03371180
_cell_angle_alpha   90.48923745
_cell_angle_beta   89.99977613
_cell_angle_gamma   90.00067637
_symmetry_Int_Tables_number   1
_chemical_formula_structural   Zn5H18(C16O9)2
_chemical_formula_sum   'Zn10 H36 C64 O36'
_cell_volume   1616.81081095
_cell_formula_units_Z   2
loop_
 _symmetry_equiv_pos_site_id
 _symmetry_equiv_pos_as_xyz
  1  'x, y, z'
loop_
 _atom_site_type_symbol
 _atom_site_label
 _atom_site_symmetry_multiplicity
 _atom_site_fract_x
 _atom_site_fract_y
 _atom_site_fract_z
 _atom_site_occupancy
 _atom_site_hle17_bader_spin_density
 _atom_site_hle17_ddec_charge
 _atom_site_hle17_ddec_spin_density
 _atom_site_hle17_ddec_sum_bond_order
 _atom_site_hle17_magmom
 _atom_site_hse06_10hf_bader_spin_density
 _atom_site_hse06_10hf_ddec_charge
 _atom_site_hse06_10hf_ddec_spin_density
 _atom_site_hse06_10hf_ddec_sum_bond_order
 _atom_site_hse06_10hf_magmom
 _atom_site_hse06_bader_spin_density
 _atom_site_hse06_ddec_charge
 _atom_site_hse06_ddec_spin_density
 _atom_site_hse06_ddec_sum_bond_order
 _atom_site_hse06_magmom
 _atom_site_pbe_bader_spin_density
 _atom_site_pbe_cm5_charge
 _atom_site_pbe_ddec_charge
 _atom_site_pbe_ddec_spin_density
 _atom_site_pbe_ddec_sum_bond_order
 _atom_site_pbe_magmom
Zn  Zn0  1  0.02183279  0.41672925  0.95742913  1  0  1.227513  0  1.715453  0  0  1.07363  0  2.166475  0  0  1.119585  0  2.105408  0  0  0.652219  1.041013  0  2.208789  0
Zn  Zn1  1  0.52182592  0.08327289  0.04257353  1  0  1.227511  0  1.715356  0  0  1.073587  0  2.166465  0  0  1.119542  0  2.105407  0  0  0.652194  1.040969  0  2.208775  0
Zn  Zn2  1  0.97816943  0.58327352  0.04257279  1  0  1.227513  0  1.71547  0  0  1.073563  0  2.166573  0  0  1.119519  0  2.105507  0  0  0.652179  1.04095  0  2.20889  0
Zn  Zn3  1  0.47817279  0.91673107  0.95742781  1  0  1.227497  0  1.715486  0  0  1.073537  0  2.166601  0  0  1.119495  0  2.105537  0  0  0.652178  1.04092  0  2.208919  0
Zn  Zn4  1  0.52615130  0.29507357  0.99265615  1  0  1.192595  0  1.765052  0  0  1.033599  0  2.227591  0  0  1.081559  0  2.163376  0  0  0.645022  0.999628  0  2.272165  0
Zn  Zn5  1  0.02614604  0.20493158  0.00734476  1  0  1.192556  0  1.765075  0  0  1.033559  0  2.227638  0  0  1.081518  0  2.163425  0  0  0.645026  0.999587  0  2.272213  0
Zn  Zn6  1  0.47384565  0.70492798  0.00733872  1  0  1.192601  0  1.765102  0  0  1.03359  0  2.227653  0  0  1.08155  0  2.163435  0  0  0.645032  0.999624  0  2.272233  0
Zn  Zn7  1  0.97385091  0.79507358  0.99265717  1  0  1.192586  0  1.765037  0  0  1.033591  0  2.227553  0  0  1.081546  0  2.163342  0  0  0.645007  0.999621  0  2.272127  0
Zn  Zn8  1  0.50000700  0.50000085  0.99999975  1  0  1.200394  0  1.793193  0  0  1.056352  0  2.232288  0  0  1.101642  0  2.171728  0  0  0.641746  1.024464  0  2.274072  0
Zn  Zn9  1  0.00000527  0.00000241  0.00000236  1  0  1.200397  0  1.79317  0  0  1.056329  0  2.232319  0  0  1.101646  0  2.171707  0  0  0.641759  1.024439  0  2.274099  0
H  H10  1  0.02774350  0.87804421  0.72742557  1  0  0.105669  0  0.954155  0  0  0.11327  0  1.018025  0  0  0.116352  0  1.017288  0  0  0.106262  0.110983  0  1.018725  0
H  H11  1  0.52774058  0.62195978  0.27257737  1  0  0.105623  0  0.954146  0  0  0.113239  0  1.018015  0  0  0.116322  0  1.017278  0  0  0.106298  0.110952  0  1.018714  0
H  H12  1  0.97227628  0.12195737  0.27257811  1  0  0.105679  0  0.954228  0  0  0.113294  0  1.018065  0  0  0.116376  0  1.01733  0  0  0.106275  0.111005  0  1.018763  0
H  H13  1  0.47225462  0.37804300  0.72742748  1  0  0.105635  0  0.954143  0  0  0.113225  0  1.018031  0  0  0.116306  0  1.017296  0  0  0.106257  0.110937  0  1.01873  0
H  H14  1  0.01316367  0.31285094  0.75480702  1  0  0.11051  0  0.950276  0  0  0.117746  0  1.014002  0  0  0.121847  0  1.011692  0  0  0.105546  0.114694  0  1.015842  0
H  H15  1  0.51317912  0.18714815  0.24518859  1  0  0.110491  0  0.950331  0  0  0.117746  0  1.014052  0  0  0.121846  0  1.011743  0  0  0.105587  0.114707  0  1.015875  0
H  H16  1  0.98680693  0.68714642  0.24518958  1  0  0.110504  0  0.950341  0  0  0.117753  0  1.014055  0  0  0.121853  0  1.011748  0  0  0.105615  0.114714  0  1.015883  0
H  H17  1  0.48682661  0.81285401  0.75480980  1  0  0.110496  0  0.950288  0  0  0.117749  0  1.014006  0  0  0.12185  0  1.011697  0  0  0.105576  0.114718  0  1.015824  0
H  H18  1  0.81095125  0.99938957  0.51633694  1  0  0.098172  0  0.966007  0  0  0.10541  0  1.032756  0  0  0.108449  0  1.031285  0  0  0.105608  0.103215  0  1.033873  0
H  H19  1  0.31095975  0.50060896  0.48366443  1  0  0.09811  0  0.965963  0  0  0.105361  0  1.032719  0  0  0.108399  0  1.031245  0  0  0.105575  0.103166  0  1.033836  0
H  H20  1  0.18907908  0.00061260  0.48366557  1  0  0.098167  0  0.965906  0  0  0.105454  0  1.032621  0  0  0.108488  0  1.031145  0  0  0.105623  0.103261  0  1.033734  0
H  H21  1  0.68906707  0.49938661  0.51633627  1  0  0.098179  0  0.965964  0  0  0.105424  0  1.032711  0  0  0.108461  0  1.031237  0  0  0.105619  0.103229  0  1.033826  0
H  H22  1  0.21984390  0.21380652  0.53047574  1  0  0.104159  0  0.942356  0  0  0.112653  0  1.005189  0  0  0.116531  0  1.002633  0  0  0.107708  0.109845  0  1.007069  0
H  H23  1  0.71985668  0.28618681  0.46952310  1  0  0.104093  0  0.942477  0  0  0.112596  0  1.005304  0  0  0.116468  0  1.002767  0  0  0.107735  0.109806  0  1.007168  0
H  H24  1  0.78013372  0.78617765  0.46952314  1  0  0.104107  0  0.942357  0  0  0.112599  0  1.005201  0  0  0.116474  0  1.002657  0  0  0.107716  0.109786  0  1.007096  0
H  H25  1  0.28015081  0.71381416  0.53047999  1  0  0.104111  0  0.942488  0  0  0.112616  0  1.005303  0  0  0.116494  0  1.002745  0  0  0.10774  0.109818  0  1.007174  0
H  H26  1  0.96889903  0.30662960  0.60944481  1  0  0.102442  0  0.954982  0  0  0.110339  0  1.017775  0  0  0.113547  0  1.016183  0  0  0.1054  0.108032  0  1.019009  0
H  H27  1  0.46891879  0.19336051  0.39054663  1  0  0.102417  0  0.955101  0  0  0.110349  0  1.017858  0  0  0.113538  0  1.016285  0  0  0.105426  0.108038  0  1.019097  0
H  H28  1  0.03106103  0.69335934  0.39054529  1  0  0.10233  0  0.955145  0  0  0.110278  0  1.017887  0  0  0.113463  0  1.016319  0  0  0.105367  0.107967  0  1.019131  0
H  H29  1  0.53107464  0.80663386  0.60945348  1  0  0.102428  0  0.955152  0  0  0.110354  0  1.017895  0  0  0.11357  0  1.016291  0  0  0.105429  0.108044  0  1.019133  0
H  H30  1  0.05404176  0.89357445  0.58206647  1  0  0.098941  0  0.952166  0  0  0.107751  0  1.014423  0  0  0.110753  0  1.013125  0  0  0.10499  0.105614  0  1.015409  0
H  H31  1  0.55403309  0.60642424  0.41793407  1  0  0.098864  0  0.952218  0  0  0.107681  0  1.014491  0  0  0.110684  0  1.013188  0  0  0.104938  0.105541  0  1.015477  0
H  H32  1  0.94598681  0.10642533  0.41793837  1  0  0.098783  0  0.95228  0  0  0.107627  0  1.014518  0  0  0.110629  0  1.013217  0  0  0.104928  0.10549  0  1.015504  0
H  H33  1  0.44595858  0.39357012  0.58206546  1  0  0.098936  0  0.952151  0  0  0.107738  0  1.014413  0  0  0.11074  0  1.013118  0  0  0.104965  0.105602  0  1.015398  0
H  H34  1  0.85433363  0.28623244  0.90237082  1  0  0.414927  0  0.852879  0  0  0.391545  0  0.915232  0  0  0.400077  0  0.906951  0  0  0.29946  0.385465  0  0.921105  0
H  H35  1  0.35433466  0.21376982  0.09762789  1  0  0.414918  0  0.8529  0  0  0.391541  0  0.915247  0  0  0.400072  0  0.906966  0  0  0.299464  0.385463  0  0.921118  0
H  H36  1  0.14566156  0.71377212  0.09762935  1  0  0.414909  0  0.852885  0  0  0.391531  0  0.915237  0  0  0.400064  0  0.906956  0  0  0.29947  0.385451  0  0.92111  0
H  H37  1  0.64565878  0.78623353  0.90237110  1  0  0.414939  0  0.852892  0  0  0.391563  0  0.915234  0  0  0.400094  0  0.906952  0  0  0.299438  0.385485  0  0.921108  0
H  H38  1  0.28147778  0.38709514  0.07160800  1  0  0.429358  0  0.853984  0  0  0.399554  0  0.925847  0  0  0.408976  0  0.912043  0  0  0.297008  0.392881  0  0.934404  0
H  H39  1  0.78148275  0.11290624  0.92839256  1  0  0.429404  0  0.853959  0  0  0.399598  0  0.925797  0  0  0.409019  0  0.911994  0  0  0.297002  0.392923  0  0.934378  0
H  H40  1  0.71853146  0.61290582  0.92839097  1  0  0.429392  0  0.853905  0  0  0.399558  0  0.925853  0  0  0.408984  0  0.912039  0  0  0.296972  0.392886  0  0.934393  0
H  H41  1  0.21852122  0.88709473  0.07160700  1  0  0.429351  0  0.854008  0  0  0.399544  0  0.925858  0  0  0.408967  0  0.912052  0  0  0.296976  0.392869  0  0.934416  0
H  H42  1  0.80138470  0.43373687  0.08772819  1  0  0.435208  0  0.846624  0  0  0.405933  0  0.91395  0  0  0.414836  0  0.901255  0  0  0.295472  0.399612  0  0.922961  0
H  H43  1  0.30138523  0.06626641  0.91227764  1  0  0.435175  0  0.846618  0  0  0.405908  0  0.913973  0  0  0.414811  0  0.901277  0  0  0.295503  0.39959  0  0.922983  0
H  H44  1  0.19861049  0.56626531  0.91227666  1  0  0.435098  0  0.846783  0  0  0.405857  0  0.914019  0  0  0.414762  0  0.901323  0  0  0.295482  0.399546  0  0.923016  0
H  H45  1  0.69861699  0.93373815  0.08772371  1  0  0.435088  0  0.846825  0  0  0.405842  0  0.914045  0  0  0.414746  0  0.901349  0  0  0.295507  0.399527  0  0.923047  0
C  C46  1  0.76366555  0.96045215  0.82927920  1  0  0.680333  0  3.907392  0  0  0.622083  0  4.216453  0  0  0.658224  0  4.204891  0  0  0.217443  0.597418  0  4.223603  0
C  C47  1  0.26366673  0.53954918  0.17071872  1  0  0.680445  0  3.907189  0  0  0.622216  0  4.21623  0  0  0.65836  0  4.204662  0  0  0.217544  0.597551  0  4.223381  0
C  C48  1  0.23634194  0.03955061  0.17071744  1  0  0.680642  0  3.90718  0  0  0.622276  0  4.216408  0  0  0.658417  0  4.204843  0  0  0.217678  0.597607  0  4.22356  0
C  C49  1  0.73634252  0.46044940  0.82928670  1  0  0.68055  0  3.907278  0  0  0.622244  0  4.216424  0  0  0.658388  0  4.204855  0  0  0.217637  0.597579  0  4.223571  0
C  C50  1  0.79559610  0.97855906  0.74342723  1  0  -0.017373  0  3.657102  0  0  -0.006049  0  3.895484  0  0  -0.008673  0  3.913222  0  0  0.011412  -0.004665  0  3.883758  0
C  C51  1  0.29557633  0.52144659  0.25657185  1  0  -0.017387  0  3.656918  0  0  -0.006029  0  3.895295  0  0  -0.008654  0  3.913033  0  0  0.011411  -0.004643  0  3.883567  0
C  C52  1  0.20441139  0.02144311  0.25657293  1  0  -0.017481  0  3.65685  0  0  -0.006144  0  3.895313  0  0  -0.008766  0  3.913051  0  0  0.01137  -0.004759  0  3.883584  0
C  C53  1  0.70441008  0.47855377  0.74342712  1  0  -0.017562  0  3.657139  0  0  -0.006267  0  3.895568  0  0  -0.008897  0  3.913312  0  0  0.011284  -0.004878  0  3.883836  0
C  C54  1  0.93269268  0.92606306  0.69814946  1  0  -0.061908  0  3.679489  0  0  -0.083305  0  3.923593  0  0  -0.084997  0  3.94339  0  0  -0.0701  -0.082034  0  3.910325  0
C  C55  1  0.43265488  0.57394554  0.30185063  1  0  -0.061693  0  3.679384  0  0  -0.083127  0  3.92351  0  0  -0.084819  0  3.943309  0  0  -0.07012  -0.081858  0  3.910241  0
C  C56  1  0.06732183  0.07393911  0.30185305  1  0  -0.06188  0  3.679603  0  0  -0.08327  0  3.923671  0  0  -0.084964  0  3.943466  0  0  -0.070104  -0.081997  0  3.910397  0
C  C57  1  0.56732099  0.42606142  0.69815072  1  0  -0.061756  0  3.679645  0  0  -0.083138  0  3.923749  0  0  -0.084828  0  3.94355  0  0  -0.070069  -0.081867  0  3.910477  0
C  C58  1  0.55951978  0.10498758  0.75478465  1  0  0.397209  0  3.726261  0  0  0.374551  0  3.990209  0  0  0.398286  0  3.99014  0  0  0.163395  0.357935  0  3.9908  0
C  C59  1  0.05952010  0.39501292  0.24522030  1  0  0.397258  0  3.726083  0  0  0.374573  0  3.990137  0  0  0.398236  0  3.990172  0  0  0.163444  0.357982  0  3.9907  0
C  C60  1  0.44048420  0.89500919  0.24521665  1  0  0.397051  0  3.726399  0  0  0.374492  0  3.990254  0  0  0.398248  0  3.990163  0  0  0.163341  0.357872  0  3.990848  0
C  C61  1  0.94047861  0.60499106  0.75478632  1  0  0.397511  0  3.726448  0  0  0.374875  0  3.990294  0  0  0.398633  0  3.990188  0  0  0.16348  0.358266  0  3.990887  0
C  C62  1  0.27459442  0.21901325  0.75871588  1  0  -0.021672  0  3.6594  0  0  -0.01211  0  3.903594  0  0  -0.013655  0  3.920522  0  0  0.007961  -0.011492  0  3.892477  0
C  C63  1  0.77460615  0.28098809  0.24128175  1  0  -0.021623  0  3.659422  0  0  -0.012037  0  3.90362  0  0  -0.013586  0  3.920555  0  0  0.007946  -0.011427  0  3.892513  0
C  C64  1  0.72539374  0.78098950  0.24128193  1  0  -0.021609  0  3.659306  0  0  -0.012055  0  3.903514  0  0  -0.013608  0  3.920453  0  0  0.007947  -0.011441  0  3.892406  0
C  C65  1  0.22539080  0.71901226  0.75871487  1  0  -0.021484  0  3.659399  0  0  -0.011964  0  3.903589  0  0  -0.01351  0  3.920509  0  0  0.00799  -0.011349  0  3.892491  0
C  C66  1  0.29138288  0.22584699  0.84701026  1  0  0.679676  0  3.916818  0  0  0.620972  0  4.225674  0  0  0.656697  0  4.214998  0  0  0.214239  0.596574  0  4.23217  0
C  C67  1  0.79139539  0.27415862  0.15298738  1  0  0.679607  0  3.917184  0  0  0.620924  0  4.226  0  0  0.656652  0  4.215319  0  0  0.21417  0.59654  0  4.232477  0
C  C68  1  0.70860177  0.77415578  0.15299108  1  0  0.679509  0  3.916922  0  0  0.620832  0  4.225746  0  0  0.656561  0  4.215065  0  0  0.214128  0.596434  0  4.232246  0
C  C69  1  0.20860332  0.72584413  0.84700750  1  0  0.67954  0  3.916754  0  0  0.620936  0  4.225486  0  0  0.656664  0  4.214804  0  0  0.214142  0.596532  0  4.23199  0
C  C70  1  0.40713006  0.16354227  0.71441379  1  0  -0.068323  0  3.72139  0  0  -0.068227  0  3.957794  0  0  -0.073661  0  3.980464  0  0  -0.008837  -0.064489  0  3.942734  0
C  C71  1  0.90713616  0.33645483  0.28558776  1  0  -0.068457  0  3.721526  0  0  -0.068421  0  3.958029  0  0  -0.073835  0  3.980718  0  0  -0.008895  -0.064691  0  3.942961  0
C  C72  1  0.59286338  0.83645631  0.28558987  1  0  -0.068303  0  3.721609  0  0  -0.068255  0  3.958013  0  0  -0.073692  0  3.98068  0  0  -0.00881  -0.064506  0  3.942961  0
C  C73  1  0.09285376  0.66354674  0.71441474  1  0  -0.068461  0  3.721554  0  0  -0.068362  0  3.957934  0  0  -0.073797  0  3.980591  0  0  -0.008832  -0.064627  0  3.94287  0
C  C74  1  0.11564433  0.26970007  0.72042899  1  0  -0.072384  0  3.67957  0  0  -0.094414  0  3.929605  0  0  -0.096397  0  3.947902  0  0  -0.074031  -0.092942  0  3.917452  0
C  C75  1  0.61565034  0.23029942  0.27956473  1  0  -0.072262  0  3.679176  0  0  -0.094344  0  3.929269  0  0  -0.096325  0  3.947558  0  0  -0.074012  -0.092883  0  3.917107  0
C  C76  1  0.88434911  0.73029787  0.27956468  1  0  -0.072349  0  3.679087  0  0  -0.094414  0  3.929166  0  0  -0.096393  0  3.94745  0  0  -0.074043  -0.092954  0  3.917012  0
C  C77  1  0.38435364  0.76969794  0.72043422  1  0  -0.072368  0  3.679183  0  0  -0.094432  0  3.929281  0  0  -0.096414  0  3.947577  0  0  -0.074063  -0.092978  0  3.917122  0
C  C78  1  0.38927350  0.16337462  0.63155566  1  0  -0.051366  0  3.767925  0  0  -0.039257  0  4.003344  0  0  -0.044725  0  4.028608  0  0  -0.012636  -0.035565  0  3.98617  0
C  C79  1  0.88929094  0.33661820  0.36844412  1  0  -0.051324  0  3.768036  0  0  -0.039174  0  4.003406  0  0  -0.044636  0  4.028662  0  0  -0.012589  -0.035476  0  3.986235  0
C  C80  1  0.61071115  0.83661855  0.36844327  1  0  -0.05133  0  3.768328  0  0  -0.03921  0  4.003742  0  0  -0.044674  0  4.029005  0  0  -0.012648  -0.035546  0  3.986605  0
C  C81  1  0.11068844  0.66337736  0.63155423  1  0  -0.051429  0  3.768023  0  0  -0.039318  0  4.003411  0  0  -0.044785  0  4.028675  0  0  -0.012545  -0.035615  0  3.986233  0
C  C82  1  0.67841130  0.04272735  0.70701527  1  0  -0.059579  0  3.716192  0  0  -0.059014  0  3.950199  0  0  -0.063867  0  3.972565  0  0  -0.005437  -0.055643  0  3.935296  0
C  C83  1  0.17840268  0.45727421  0.29298308  1  0  -0.059638  0  3.716041  0  0  -0.059101  0  3.950136  0  0  -0.063933  0  3.972519  0  0  -0.005468  -0.055737  0  3.935227  0
C  C84  1  0.32159619  0.95727181  0.29298311  1  0  -0.059387  0  3.715938  0  0  -0.058898  0  3.949973  0  0  -0.063754  0  3.972335  0  0  -0.005379  -0.055528  0  3.935071  0
C  C85  1  0.82158900  0.54272556  0.70702118  1  0  -0.059582  0  3.715913  0  0  -0.058999  0  3.94984  0  0  -0.063852  0  3.972196  0  0  -0.00543  -0.055633  0  3.934938  0
C  C86  1  0.81501096  0.99415691  0.57988214  1  0  -0.054353  0  3.711234  0  0  -0.082978  0  3.966362  0  0  -0.083902  0  3.98672  0  0  -0.075434  -0.082187  0  3.952455  0
C  C87  1  0.31500633  0.50584403  0.42011748  1  0  -0.054291  0  3.711269  0  0  -0.082954  0  3.966469  0  0  -0.083871  0  3.986823  0  0  -0.075422  -0.082164  0  3.952561  0
C  C88  1  0.18500531  0.00584465  0.42011684  1  0  -0.054289  0  3.711304  0  0  -0.08305  0  3.966576  0  0  -0.083964  0  3.986928  0  0  -0.07534  -0.082262  0  3.95267  0
C  C89  1  0.68498184  0.49415333  0.57988030  1  0  -0.054264  0  3.710825  0  0  -0.082927  0  3.965974  0  0  -0.083845  0  3.986324  0  0  -0.075383  -0.082136  0  3.952065  0
C  C90  1  0.23111401  0.21478117  0.59433888  1  0  -0.06542  0  3.711262  0  0  -0.092579  0  3.965108  0  0  -0.094276  0  3.985696  0  0  -0.077146  -0.09123  0  3.951019  0
C  C91  1  0.73111870  0.28521282  0.40566229  1  0  -0.065362  0  3.711376  0  0  -0.092538  0  3.965247  0  0  -0.094237  0  3.985825  0  0  -0.077273  -0.09121  0  3.951146  0
C  C92  1  0.76886537  0.78521260  0.40565947  1  0  -0.065396  0  3.711302  0  0  -0.092563  0  3.965181  0  0  -0.094263  0  3.985762  0  0  -0.077183  -0.091206  0  3.951097  0
C  C93  1  0.26887122  0.71478395  0.59433666  1  0  -0.065329  0  3.711187  0  0  -0.092505  0  3.965064  0  0  -0.094199  0  3.985652  0  0  -0.077278  -0.091169  0  3.950965  0
C  C94  1  0.68364390  0.04879435  0.62438305  1  0  -0.051475  0  3.76141  0  0  -0.039607  0  3.996568  0  0  -0.045378  0  4.02133  0  0  -0.012477  -0.035722  0  3.97976  0
C  C95  1  0.18363236  0.45120185  0.37561937  1  0  -0.051367  0  3.761147  0  0  -0.039514  0  3.996369  0  0  -0.045284  0  4.021128  0  0  -0.012483  -0.035628  0  3.979562  0
C  C96  1  0.31637588  0.95120781  0.37561593  1  0  -0.051382  0  3.761155  0  0  -0.03945  0  3.996319  0  0  -0.045221  0  4.021091  0  0  -0.012508  -0.035566  0  3.979508  0
C  C97  1  0.81635580  0.54879193  0.62438427  1  0  -0.051445  0  3.761  0  0  -0.039534  0  3.996095  0  0  -0.045302  0  4.020861  0  0  -0.012486  -0.035648  0  3.979285  0
C  C98  1  0.09152966  0.26670526  0.63885675  1  0  -0.040404  0  3.726799  0  0  -0.055575  0  3.9823  0  0  -0.056812  0  4.002708  0  0  -0.074947  -0.054688  0  3.968322  0
C  C99  1  0.59154713  0.23328756  0.36114049  1  0  -0.040406  0  3.726579  0  0  -0.055594  0  3.982067  0  0  -0.05681  0  4.002478  0  0  -0.07495  -0.054705  0  3.968096  0
C  C100  1  0.90844445  0.73328730  0.36113983  1  0  -0.040264  0  3.726524  0  0  -0.055461  0  3.981989  0  0  -0.056674  0  4.0024  0  0  -0.07493  -0.05457  0  3.968013  0
C  C101  1  0.40845509  0.76670861  0.63885846  1  0  -0.040384  0  3.726549  0  0  -0.05557  0  3.982041  0  0  -0.056815  0  4.002441  0  0  -0.074929  -0.05468  0  3.968069  0
C  C102  1  0.54479461  0.11106710  0.58327369  1  0  0.381211  0  3.752847  0  0  0.362012  0  4.013736  0  0  0.384036  0  4.016255  0  0  0.159141  0.347043  0  4.011836  0
C  C103  1  0.04479625  0.38892733  0.41672596  1  0  0.381126  0  3.753001  0  0  0.361961  0  4.013827  0  0  0.383976  0  4.016368  0  0  0.159186  0.346988  0  4.011927  0
C  C104  1  0.45521990  0.88893205  0.41672116  1  0  0.380959  0  3.752924  0  0  0.361775  0  4.013771  0  0  0.383791  0  4.016315  0  0  0.159102  0.346817  0  4.011871  0
C  C105  1  0.95519718  0.61106524  0.58327355  1  0  0.38103  0  3.753119  0  0  0.36184  0  4.013963  0  0  0.383848  0  4.016519  0  0  0.159115  0.346867  0  4.012057  0
C  C106  1  0.94456812  0.93432638  0.61666950  1  0  -0.04831  0  3.725191  0  0  -0.062608  0  3.979683  0  0  -0.064219  0  3.999675  0  0  -0.075462  -0.061501  0  3.966052  0
C  C107  1  0.44453612  0.56567987  0.38332998  1  0  -0.048397  0  3.725439  0  0  -0.062676  0  3.979919  0  0  -0.064286  0  3.999913  0  0  -0.075429  -0.061567  0  3.966285  0
C  C108  1  0.05546572  0.06567639  0.38333242  1  0  -0.048313  0  3.725547  0  0  -0.062589  0  3.980008  0  0  -0.064196  0  4.000002  0  0  -0.075504  -0.061484  0  3.966374  0
C  C109  1  0.55543623  0.43432169  0.61667018  1  0  -0.04844  0  3.725113  0  0  -0.062721  0  3.979596  0  0  -0.064332  0  3.999585  0  0  -0.075498  -0.061615  0  3.965966  0
O  O110  1  0.93017310  0.97397089  0.87573103  1  0  -0.616676  0  2.032794  0  0  -0.559305  0  2.290422  0  0  -0.584869  0  2.274994  0  0  -0.303583  -0.541155  0  2.300318  0
O  O111  1  0.43017962  0.52602870  0.12426666  1  0  -0.616766  0  2.03281  0  0  -0.559412  0  2.290444  0  0  -0.584982  0  2.275031  0  0  -0.303648  -0.54126  0  2.300345  0
O  O112  1  0.06984493  0.02602586  0.12426264  1  0  -0.616956  0  2.032998  0  0  -0.559434  0  2.290594  0  0  -0.584992  0  2.275147  0  0  -0.303684  -0.541285  0  2.300494  0
O  O113  1  0.56984017  0.47397407  0.87573937  1  0  -0.616921  0  2.033057  0  0  -0.559426  0  2.290612  0  0  -0.584988  0  2.275182  0  0  -0.303663  -0.541274  0  2.300509  0
O  O114  1  0.14385406  0.18492097  0.88521111  1  0  -0.643259  0  2.043794  0  0  -0.578047  0  2.295516  0  0  -0.606017  0  2.28289  0  0  -0.312349  -0.558041  0  2.303404  0
O  O115  1  0.64386667  0.31508164  0.11478435  1  0  -0.64327  0  2.043947  0  0  -0.578001  0  2.295558  0  0  -0.60597  0  2.28293  0  0  -0.312353  -0.557999  0  2.303439  0
O  O116  1  0.85614992  0.81507761  0.11479255  1  0  -0.643128  0  2.043722  0  0  -0.577981  0  2.295484  0  0  -0.605954  0  2.282857  0  0  -0.312265  -0.557973  0  2.303371  0
O  O117  1  0.35615487  0.68492471  0.88521231  1  0  -0.643199  0  2.043664  0  0  -0.578101  0  2.295453  0  0  -0.606074  0  2.282822  0  0  -0.312303  -0.55809  0  2.303342  0
O  O118  1  0.56528730  0.92724925  0.84477436  1  0  -0.651947  0  2.025495  0  0  -0.584198  0  2.290862  0  0  -0.613425  0  2.275012  0  0  -0.320485  -0.563497  0  2.301054  0
O  O119  1  0.06528630  0.57275427  0.15522207  1  0  -0.651972  0  2.02547  0  0  -0.584232  0  2.290831  0  0  -0.61346  0  2.274978  0  0  -0.320498  -0.563529  0  2.301022  0
O  O120  1  0.43470613  0.07275472  0.15522698  1  0  -0.651922  0  2.025559  0  0  -0.584227  0  2.291077  0  0  -0.613452  0  2.275227  0  0  -0.320559  -0.563527  0  2.301268  0
O  O121  1  0.93471241  0.42724849  0.84477750  1  0  -0.65186  0  2.025608  0  0  -0.584169  0  2.29106  0  0  -0.613393  0  2.275205  0  0  -0.320506  -0.563467  0  2.301246  0
O  O122  1  0.31703935  0.38752123  0.01523895  1  0  -0.986182  0  1.943413  0  0  -0.88014  0  2.251927  0  0  -0.913832  0  2.212109  0  0  -0.56401  -0.856587  0  2.278319  0
O  O123  1  0.81703662  0.11248029  0.98476215  1  0  -0.986224  0  1.943359  0  0  -0.880184  0  2.251878  0  0  -0.913867  0  2.212035  0  0  -0.563973  -0.856636  0  2.278295  0
O  O124  1  0.68296638  0.61247973  0.98476120  1  0  -0.986204  0  1.943312  0  0  -0.880106  0  2.251801  0  0  -0.913801  0  2.211985  0  0  -0.563945  -0.856565  0  2.278188  0
O  O125  1  0.18296208  0.88752607  0.01523862  1  0  -0.986167  0  1.943448  0  0  -0.880071  0  2.25192  0  0  -0.913763  0  2.212098  0  0  -0.563953  -0.856523  0  2.278316  0
O  O126  1  0.86184426  0.30052043  0.95806990  1  0  -0.987382  0  1.976561  0  0  -0.887555  0  2.288734  0  0  -0.92028  0  2.251469  0  0  -0.557489  -0.864264  0  2.31405  0
O  O127  1  0.36184720  0.19948187  0.04192997  1  0  -0.987394  0  1.976587  0  0  -0.887536  0  2.288672  0  0  -0.920282  0  2.251466  0  0  -0.557497  -0.864246  0  2.313984  0
O  O128  1  0.13815444  0.69948353  0.04193085  1  0  -0.987344  0  1.976508  0  0  -0.887527  0  2.288685  0  0  -0.920243  0  2.251399  0  0  -0.557488  -0.864236  0  2.313999  0
O  O129  1  0.63815853  0.80052089  0.95806902  1  0  -0.987441  0  1.976564  0  0  -0.887612  0  2.288726  0  0  -0.920342  0  2.251475  0  0  -0.557479  -0.864322  0  2.314043  0
O  O130  1  0.43754814  0.27667630  0.87427306  1  0  -0.641355  0  2.0069  0  0  -0.576568  0  2.269695  0  0  -0.605308  0  2.254841  0  0  -0.317161  -0.556145  0  2.279201  0
O  O131  1  0.93755218  0.22332870  0.12572614  1  0  -0.641297  0  2.007084  0  0  -0.57654  0  2.269888  0  0  -0.605281  0  2.255033  0  0  -0.31709  -0.556119  0  2.279381  0
O  O132  1  0.56245759  0.72332046  0.12572471  1  0  -0.641378  0  2.006924  0  0  -0.576527  0  2.269623  0  0  -0.605269  0  2.254766  0  0  -0.317167  -0.556102  0  2.279126  0
O  O133  1  0.06245882  0.77667766  0.87427521  1  0  -0.641325  0  2.006876  0  0  -0.576532  0  2.269585  0  0  -0.605272  0  2.254729  0  0  -0.31714  -0.556107  0  2.279095  0
O  O134  1  0.81575337  0.46505157  0.03978042  1  0  -1.011338  0  1.964788  0  0  -0.908809  0  2.267439  0  0  -0.943027  0  2.229632  0  0  -0.573725  -0.884295  0  2.292984  0
O  O135  1  0.31575402  0.03494935  0.96022127  1  0  -1.011211  0  1.964682  0  0  -0.908713  0  2.267444  0  0  -0.942946  0  2.229656  0  0  -0.573755  -0.884182  0  2.292921  0
O  O136  1  0.18425236  0.53494940  0.96022267  1  0  -1.011156  0  1.964809  0  0  -0.90865  0  2.267504  0  0  -0.94288  0  2.229707  0  0  -0.573738  -0.884123  0  2.292987  0
O  O137  1  0.68424995  0.96505401  0.03977890  1  0  -1.011197  0  1.965041  0  0  -0.908638  0  2.267721  0  0  -0.942872  0  2.229922  0  0  -0.573755  -0.884117  0  2.293221  0
O  O138  1  0.58584291  0.10819411  0.82719502  1  0  -0.448625  0  2.00123  0  0  -0.393133  0  2.209893  0  0  -0.410246  0  2.204671  0  0  -0.231325  -0.382  0  2.21394  0
O  O139  1  0.08585450  0.39180888  0.17280639  1  0  -0.448651  0  2.000987  0  0  -0.393155  0  2.209693  0  0  -0.410238  0  2.204503  0  0  -0.231346  -0.382033  0  2.213732  0
O  O140  1  0.41416282  0.89180205  0.17280334  1  0  -0.448641  0  2.001241  0  0  -0.393179  0  2.209855  0  0  -0.410314  0  2.20464  0  0  -0.231328  -0.38204  0  2.213897  0
O  O141  1  0.91416002  0.60820106  0.82719029  1  0  -0.448817  0  2.001568  0  0  -0.393308  0  2.210186  0  0  -0.410446  0  2.204965  0  0  -0.231393  -0.382189  0  2.214242  0
O  O142  1  0.55672973  0.11887739  0.51106992  1  0  -0.458777  0  1.930424  0  0  -0.415722  0  2.140905  0  0  -0.43298  0  2.138147  0  0  -0.252523  -0.404027  0  2.142687  0
O  O143  1  0.05669863  0.38111949  0.48893384  1  0  -0.458763  0  1.930285  0  0  -0.41571  0  2.140747  0  0  -0.432964  0  2.138  0  0  -0.252498  -0.404013  0  2.142524  0
O  O144  1  0.44329357  0.88112118  0.48893256  1  0  -0.458697  0  1.930131  0  0  -0.415655  0  2.140617  0  0  -0.432908  0  2.137862  0  0  -0.252476  -0.403957  0  2.142387  0
O  O145  1  0.94326669  0.61886947  0.51106389  1  0  -0.458729  0  1.930246  0  0  -0.415693  0  2.140715  0  0  -0.432949  0  2.137974  0  0  -0.252544  -0.403996  0  2.142497  0
