# generated using pymatgen
data_Cu3H14C8(BrO6)2
_symmetry_space_group_name_H-M   'P 1'
_cell_length_a   6.17802227
_cell_length_b   9.21700871
_cell_length_c   9.27595146
_cell_angle_alpha   78.92096851
_cell_angle_beta   74.11457075
_cell_angle_gamma   73.96968073
_symmetry_Int_Tables_number   1
_chemical_formula_structural   Cu3H14C8(BrO6)2
_chemical_formula_sum   'Cu3 H14 C8 Br2 O12'
_cell_volume   484.37543630
_cell_formula_units_Z   1
loop_
 _symmetry_equiv_pos_site_id
 _symmetry_equiv_pos_as_xyz
  1  'x, y, z'
loop_
 _atom_site_type_symbol
 _atom_site_label
 _atom_site_symmetry_multiplicity
 _atom_site_fract_x
 _atom_site_fract_y
 _atom_site_fract_z
 _atom_site_occupancy
 _atom_site_pbe_bader_charge
 _atom_site_pbe_bader_spin_density
 _atom_site_pbe_cm5_charge
 _atom_site_pbe_ddec_charge
 _atom_site_pbe_ddec_spin_density
 _atom_site_pbe_ddec_sum_bond_order
 _atom_site_pbe_magmom
Cu  Cu0  1  0.99960855  0.49961273  0.00074317  1  1.131752  0.605721  0.688225  1.001405  0.748592  2.057001  0.604
Cu  Cu1  1  0.46250107  0.43674217  0.16650922  1  1.14107  0.622109  0.688904  1.002082  0.767619  2.113714  0.622
Cu  Cu2  1  0.53774380  0.56261805  0.83343966  1  1.142426  0.622329  0.688242  1.001405  0.767836  2.114965  0.622
H  H3  1  0.33768535  0.02841733  0.89142359  1  0.155558  -0.000119  0.107748  0.120648  -8.4e-05  0.983694  0.0
H  H4  1  0.66221534  0.97120453  0.10871022  1  0.149998  -0.000118  0.107825  0.120786  -8.5e-05  0.983584  0.0
H  H5  1  0.92460947  0.26108752  0.54355937  1  0.094458  0.001937  0.08973  0.156168  0.001089  1.029092  0.001
H  H6  1  0.07220087  0.74106758  0.45688155  1  0.051074  0.002077  0.090104  0.156859  0.001124  1.030131  0.001
H  H7  1  0.10753955  0.17444140  0.38256945  1  0.110653  0.001045  0.101013  0.171831  0.000454  1.007607  0.0
H  H8  1  0.89246404  0.82557698  0.61986182  1  0.097218  0.001006  0.100047  0.171591  0.000432  1.009035  0.0
H  H9  1  0.84702749  0.11420007  0.48067513  1  0.085008  0.00037  0.095184  0.158207  0.000211  1.006296  0.0
H  H10  1  0.15190008  0.88645357  0.52080482  1  0.082846  0.000368  0.09557  0.159241  0.000208  1.006484  0.0
H  H11  1  0.78859798  0.33060552  0.95780488  1  0.637544  -0.000253  0.281056  0.366207  0.000939  0.976292  0.001
H  H12  1  0.21184872  0.66868089  0.04209448  1  0.628908  -0.000249  0.28124  0.366429  0.000929  0.975866  0.001
H  H13  1  0.24868266  0.44868661  0.43435025  1  0.625174  -0.000314  0.319808  0.40692  -0.00012  0.871754  0.0
H  H14  1  0.74975406  0.55513960  0.56597999  1  0.666573  -0.000409  0.321002  0.408502  -0.000145  0.869049  0.0
H  H15  1  0.05917522  0.48095961  0.33095706  1  0.65269  -0.000207  0.284654  0.383398  0.000317  0.968276  0.0
H  H16  1  0.94217809  0.51883659  0.66758433  1  0.651021  -0.000193  0.284281  0.383743  0.000328  0.967743  0.0
C  C17  1  0.29398612  0.19803188  0.04126431  1  1.602042  -0.000799  0.195666  0.585729  -0.001023  4.223812  -0.002
C  C18  1  0.70612041  0.80145830  0.95900176  1  1.603923  -0.000782  0.195584  0.585258  -0.001004  4.223712  -0.002
C  C19  1  0.37548989  0.03614702  0.99775480  1  -0.055309  0.012039  -0.074372  -0.096299  0.008066  3.76717  0.009
C  C20  1  0.62444628  0.96337243  0.00239973  1  -0.018746  0.01193  -0.074826  -0.096713  0.008035  3.767244  0.009
C  C21  1  0.79833872  0.33165675  0.34324263  1  1.532183  -0.000983  0.213495  0.692833  -0.002207  4.102277  -0.003
C  C22  1  0.20278507  0.66757023  0.65564048  1  1.530408  -0.000912  0.213819  0.693044  -0.002143  4.103924  -0.003
C  C23  1  0.92659043  0.21134786  0.44461928  1  -0.153649  0.012989  -0.255688  -0.547431  0.009071  3.881459  0.01
C  C24  1  0.07261877  0.78915742  0.55620938  1  -0.094358  0.012899  -0.25601  -0.550015  0.009071  3.884508  0.01
Br  Br25  1  0.18273886  0.91269977  0.15289423  1  -0.106411  0.003169  0.062641  -0.011694  0.001822  1.43959  0.002
Br  Br26  1  0.81723021  0.08682193  0.84719244  1  -0.107406  0.003164  0.063031  -0.011399  0.001823  1.439203  0.002
O  O27  1  0.15711937  0.29038560  0.96427915  1  -1.104305  0.094572  -0.331933  -0.554311  0.058394  2.389828  0.085
O  O28  1  0.84265511  0.70917045  0.03621904  1  -1.107812  0.094165  -0.331445  -0.553825  0.058174  2.390827  0.085
O  O29  1  0.36521272  0.22571207  0.14445091  1  -1.169635  0.004665  -0.322945  -0.573277  0.002224  2.334526  0.005
O  O30  1  0.63533767  0.77365438  0.85564388  1  -1.170694  0.004584  -0.32326  -0.573588  0.00217  2.332921  0.005
O  O31  1  0.63560129  0.29824184  0.30486666  1  -1.093089  0.128404  -0.321423  -0.53375  0.07913  2.280108  0.115
O  O32  1  0.36397526  0.70136390  0.69548552  1  -1.094006  0.128302  -0.321853  -0.534567  0.079059  2.28056  0.115
O  O33  1  0.85213242  0.45949262  0.29854268  1  -1.192815  0.004434  -0.325119  -0.603278  0.001489  2.257686  0.005
O  O34  1  0.15187858  0.53868067  0.69753774  1  -1.191666  0.004543  -0.324423  -0.602273  0.001554  2.249442  0.005
O  O35  1  0.72254809  0.43574177  0.98162965  1  -1.134467  0.23468  -0.579754  -0.870493  0.149119  2.431896  0.21
O  O36  1  0.27761245  0.56355445  0.01819376  1  -1.125459  0.234986  -0.579803  -0.870081  0.149312  2.431103  0.21
O  O37  1  0.20899654  0.50703626  0.34171494  1  -1.206222  0.079365  -0.573129  -0.754268  0.049075  2.171745  0.069
O  O38  1  0.79085658  0.49434687  0.65727263  1  -1.246479  0.079485  -0.572883  -0.755024  0.049147  2.169389  0.069
