# generated using pymatgen
data_KH8C7NO3
_symmetry_space_group_name_H-M   'P 1'
_cell_length_a   7.41880777
_cell_length_b   7.53295735
_cell_length_c   14.68431774
_cell_angle_alpha   89.99998870
_cell_angle_beta   97.20041167
_cell_angle_gamma   89.99990131
_symmetry_Int_Tables_number   1
_chemical_formula_structural   KH8C7NO3
_chemical_formula_sum   'K4 H32 C28 N4 O12'
_cell_volume   814.16961525
_cell_formula_units_Z   4
loop_
 _symmetry_equiv_pos_site_id
 _symmetry_equiv_pos_as_xyz
  1  'x, y, z'
loop_
 _atom_site_type_symbol
 _atom_site_label
 _atom_site_symmetry_multiplicity
 _atom_site_fract_x
 _atom_site_fract_y
 _atom_site_fract_z
 _atom_site_occupancy
 _atom_site_hle17_bader_spin_density
 _atom_site_hle17_ddec_charge
 _atom_site_hle17_ddec_spin_density
 _atom_site_hle17_ddec_sum_bond_order
 _atom_site_hle17_magmom
 _atom_site_hse06_10hf_bader_spin_density
 _atom_site_hse06_10hf_ddec_charge
 _atom_site_hse06_10hf_ddec_spin_density
 _atom_site_hse06_10hf_ddec_sum_bond_order
 _atom_site_hse06_10hf_magmom
 _atom_site_hse06_bader_spin_density
 _atom_site_hse06_ddec_charge
 _atom_site_hse06_ddec_spin_density
 _atom_site_hse06_ddec_sum_bond_order
 _atom_site_hse06_magmom
 _atom_site_pbe_bader_spin_density
 _atom_site_pbe_cm5_charge
 _atom_site_pbe_ddec_charge
 _atom_site_pbe_ddec_spin_density
 _atom_site_pbe_ddec_sum_bond_order
 _atom_site_pbe_magmom
K  K0  1  0.56844565  0.24497890  0.51892747  1  0  0.927139  0  0.504783  0  0  0.88172  0  0.696816  0  0  0.896766  0  0.672949  0  0  0.826408  0.870395  0  0.713934  0
K  K1  1  0.06843235  0.25504310  0.51892808  1  0  0.927129  0  0.504773  0  0  0.881706  0  0.696808  0  0  0.896741  0  0.672955  0  0  0.82639  0.870386  0  0.713919  0
K  K2  1  0.43155229  0.75504430  0.48107095  1  0  0.92716  0  0.504739  0  0  0.88175  0  0.696758  0  0  0.896744  0  0.672969  0  0  0.826398  0.870416  0  0.713884  0
K  K3  1  0.93156289  0.74496285  0.48107223  1  0  0.927133  0  0.504784  0  0  0.881728  0  0.6968  0  0  0.896762  0  0.67294  0  0  0.826407  0.870397  0  0.713923  0
H  H4  1  0.56718035  0.75101517  0.75507524  1  0  0.096316  0  0.975738  0  0  0.10389  0  1.040717  0  0  0.106824  0  1.038746  0  0  0.102183  0.101711  0  1.042255  0
H  H5  1  0.06719558  0.74899381  0.75507557  1  0  0.096318  0  0.975786  0  0  0.103881  0  1.040756  0  0  0.106815  0  1.038785  0  0  0.102207  0.101703  0  1.042293  0
H  H6  1  0.43280809  0.24898414  0.24492396  1  0  0.096327  0  0.975781  0  0  0.103907  0  1.040737  0  0  0.106842  0  1.038765  0  0  0.102202  0.101729  0  1.042275  0
H  H7  1  0.93281188  0.25101214  0.24492345  1  0  0.096288  0  0.975763  0  0  0.103874  0  1.040722  0  0  0.106808  0  1.038751  0  0  0.102177  0.101697  0  1.04226  0
H  H8  1  0.93899327  0.20153076  0.93809112  1  0  0.096812  0  0.972509  0  0  0.10857  0  1.034718  0  0  0.11105  0  1.034873  0  0  0.097481  0.106712  0  1.034875  0
H  H9  1  0.43899077  0.29847186  0.93809375  1  0  0.09682  0  0.972505  0  0  0.108582  0  1.034722  0  0  0.111048  0  1.034883  0  0  0.09752  0.106724  0  1.03488  0
H  H10  1  0.06100739  0.79846191  0.06190816  1  0  0.096819  0  0.972535  0  0  0.108561  0  1.034757  0  0  0.111042  0  1.034911  0  0  0.097488  0.106705  0  1.03491  0
H  H11  1  0.56100719  0.70152745  0.06190809  1  0  0.096818  0  0.972555  0  0  0.108585  0  1.034768  0  0  0.111043  0  1.034948  0  0  0.097514  0.106729  0  1.034923  0
H  H12  1  0.78687244  0.56010194  0.63860295  1  0  0.425765  0  0.879055  0  0  0.396895  0  0.940536  0  0  0.407162  0  0.925512  0  0  0.289752  0.389647  0  0.951124  0
H  H13  1  0.28686832  0.93990539  0.63860615  1  0  0.425831  0  0.878938  0  0  0.396968  0  0.940419  0  0  0.407235  0  0.925395  0  0  0.289806  0.389722  0  0.951006  0
H  H14  1  0.21313231  0.43990002  0.36139726  1  0  0.425766  0  0.87902  0  0  0.3969  0  0.940495  0  0  0.407166  0  0.925472  0  0  0.289759  0.389653  0  0.951083  0
H  H15  1  0.71313506  0.06009525  0.36139398  1  0  0.425817  0  0.878951  0  0  0.396947  0  0.940446  0  0  0.407213  0  0.925424  0  0  0.289783  0.3897  0  0.951035  0
H  H16  1  0.52098898  0.79824762  0.91784658  1  0  0.087212  0  0.978944  0  0  0.096685  0  1.044542  0  0  0.098786  0  1.045627  0  0  0.093037  0.095178  0  1.043936  0
H  H17  1  0.02099886  0.70176535  0.91784590  1  0  0.087228  0  0.978888  0  0  0.0967  0  1.04449  0  0  0.0988  0  1.045576  0  0  0.093056  0.095195  0  1.043877  0
H  H18  1  0.47900218  0.20175567  0.08215416  1  0  0.087256  0  0.978841  0  0  0.096727  0  1.044445  0  0  0.098828  0  1.045529  0  0  0.093048  0.095221  0  1.043836  0
H  H19  1  0.97900452  0.29824059  0.08215287  1  0  0.087213  0  0.979024  0  0  0.096687  0  1.044616  0  0  0.098788  0  1.045703  0  0  0.09304  0.095183  0  1.044002  0
H  H20  1  0.71465936  0.02612858  0.01108360  1  0  0.083673  0  0.955157  0  0  0.09565  0  1.016272  0  0  0.098213  0  1.014983  0  0  0.097169  0.093794  0  1.017172  0
H  H21  1  0.21466332  0.47388011  0.01108526  1  0  0.083707  0  0.95514  0  0  0.095682  0  1.016251  0  0  0.098242  0  1.01497  0  0  0.097182  0.093825  0  1.017153  0
H  H22  1  0.28533859  0.97386940  0.98891551  1  0  0.083689  0  0.955115  0  0  0.095661  0  1.016235  0  0  0.098234  0  1.014934  0  0  0.097148  0.093804  0  1.01714  0
H  H23  1  0.78533599  0.52612451  0.98891530  1  0  0.083671  0  0.955092  0  0  0.095637  0  1.016224  0  0  0.098202  0  1.014937  0  0  0.097177  0.093783  0  1.01712  0
H  H24  1  0.03715371  0.13856824  0.70659905  1  0  0.313732  0  0.927123  0  0  0.299187  0  0.987877  0  0  0.306731  0  0.981215  0  0  0.300024  0.293749  0  0.99274  0
H  H25  1  0.53715595  0.36142585  0.70660183  1  0  0.313694  0  0.927162  0  0  0.299142  0  0.987919  0  0  0.306686  0  0.981263  0  0  0.300036  0.293694  0  0.992793  0
H  H26  1  0.96284288  0.86142708  0.29339998  1  0  0.31375  0  0.927089  0  0  0.299206  0  0.987824  0  0  0.30675  0  0.981169  0  0  0.300042  0.293759  0  0.992699  0
H  H27  1  0.46284881  0.63857080  0.29340110  1  0  0.313688  0  0.927139  0  0  0.299137  0  0.98791  0  0  0.306684  0  0.981246  0  0  0.30003  0.293699  0  0.992773  0
H  H28  1  0.10116951  0.24183040  0.81073544  1  0  0.293026  0  0.941724  0  0  0.280929  0  1.003206  0  0  0.28507  0  1.002432  0  0  0.289465  0.27797  0  1.00379  0
H  H29  1  0.60117464  0.25817018  0.81073569  1  0  0.293031  0  0.941806  0  0  0.280946  0  1.00327  0  0  0.285089  0  1.002493  0  0  0.289473  0.277987  0  1.003855  0
H  H30  1  0.89882844  0.75816359  0.18926504  1  0  0.292992  0  0.941754  0  0  0.280898  0  1.003233  0  0  0.28504  0  1.002457  0  0  0.289439  0.277939  0  1.003816  0
H  H31  1  0.39882603  0.74182780  0.18926564  1  0  0.292979  0  0.941763  0  0  0.280877  0  1.003253  0  0  0.285019  0  1.002478  0  0  0.289461  0.277918  0  1.003836  0
H  H32  1  0.87981429  0.38523428  0.68622420  1  0  0.395065  0  0.908159  0  0  0.365133  0  0.976418  0  0  0.374137  0  0.963469  0  0  0.285453  0.358789  0  0.985519  0
H  H33  1  0.37981485  0.11476323  0.68622976  1  0  0.395054  0  0.908197  0  0  0.365142  0  0.976404  0  0  0.374146  0  0.963453  0  0  0.285467  0.3588  0  0.985504  0
H  H34  1  0.12018774  0.61476503  0.31377652  1  0  0.395052  0  0.908206  0  0  0.365131  0  0.976421  0  0  0.374136  0  0.963471  0  0  0.285443  0.358787  0  0.985523  0
H  H35  1  0.62018988  0.88523607  0.31376840  1  0  0.395037  0  0.908224  0  0  0.365119  0  0.976441  0  0  0.374123  0  0.963492  0  0  0.28543  0.358778  0  0.98554  0
C  C36  1  0.77199896  0.94878859  0.75313046  1  0  -0.193099  0  3.707372  0  0  -0.169714  0  3.93804  0  0  -0.181592  0  3.958688  0  0  -0.030346  -0.162067  0  3.924232  0
C  C37  1  0.27199690  0.55121208  0.75313178  1  0  -0.193152  0  3.70756  0  0  -0.169779  0  3.938203  0  0  -0.181652  0  3.958841  0  0  -0.030383  -0.162132  0  3.924398  0
C  C38  1  0.22799899  0.05120674  0.24686865  1  0  -0.192982  0  3.70722  0  0  -0.169646  0  3.937947  0  0  -0.181522  0  3.958594  0  0  -0.030359  -0.161999  0  3.924137  0
C  C39  1  0.72800378  0.44878855  0.24686886  1  0  -0.193093  0  3.707448  0  0  -0.169761  0  3.938134  0  0  -0.181636  0  3.958775  0  0  -0.030378  -0.162116  0  3.924326  0
C  C40  1  0.78338775  0.91383685  0.65322171  1  0  0.659639  0  3.958369  0  0  0.611438  0  4.258936  0  0  0.645655  0  4.248817  0  0  0.18039  0.588215  0  4.265189  0
C  C41  1  0.28339242  0.58615986  0.65322277  1  0  0.659652  0  3.958222  0  0  0.611474  0  4.258753  0  0  0.645694  0  4.24863  0  0  0.180453  0.588251  0  4.265004  0
C  C42  1  0.21661155  0.08615847  0.34677680  1  0  0.659615  0  3.958316  0  0  0.611413  0  4.25889  0  0  0.645631  0  4.248768  0  0  0.18042  0.588191  0  4.265141  0
C  C43  1  0.71660961  0.41383945  0.34677796  1  0  0.659639  0  3.958314  0  0  0.611457  0  4.258861  0  0  0.645674  0  4.248746  0  0  0.180422  0.588234  0  4.26511  0
C  C44  1  0.64705738  0.84983684  0.79637477  1  0  -0.04387  0  3.76446  0  0  -0.066668  0  4.011389  0  0  -0.062139  0  4.029486  0  0  -0.086285  -0.069328  0  3.999033  0
C  C45  1  0.14706328  0.65016668  0.79637385  1  0  -0.043904  0  3.764647  0  0  -0.066677  0  4.011561  0  0  -0.062147  0  4.029655  0  0  -0.086284  -0.06934  0  3.999208  0
C  C46  1  0.35293650  0.15016247  0.20362545  1  0  -0.044004  0  3.764534  0  0  -0.066778  0  4.01146  0  0  -0.062247  0  4.029549  0  0  -0.086335  -0.069438  0  3.999103  0
C  C47  1  0.85293738  0.34983263  0.20362475  1  0  -0.043848  0  3.764565  0  0  -0.066638  0  4.011492  0  0  -0.062109  0  4.029587  0  0  -0.086246  -0.069299  0  3.999138  0
C  C48  1  0.87867828  0.07938226  0.80495981  1  0  0.30099  0  3.807831  0  0  0.291576  0  4.048665  0  0  0.304008  0  4.067083  0  0  0.103065  0.283285  0  4.035958  0
C  C49  1  0.37868099  0.42062317  0.80496275  1  0  0.301098  0  3.807595  0  0  0.291693  0  4.048418  0  0  0.304124  0  4.066831  0  0  0.103136  0.283401  0  4.03571  0
C  C50  1  0.12131968  0.92061173  0.19503998  1  0  0.301101  0  3.807696  0  0  0.291703  0  4.048529  0  0  0.304137  0  4.066941  0  0  0.103152  0.28341  0  4.035823  0
C  C51  1  0.62132105  0.57937747  0.19503866  1  0  0.301028  0  3.80772  0  0  0.291665  0  4.048515  0  0  0.304097  0  4.066927  0  0  0.103123  0.283372  0  4.035811  0
C  C52  1  0.85524165  0.10295202  0.89817545  1  0  -0.22038  0  3.755316  0  0  -0.23242  0  4.001458  0  0  -0.240088  0  4.021457  0  0  -0.11319  -0.227401  0  3.988025  0
C  C53  1  0.35523896  0.39705341  0.89817669  1  0  -0.220403  0  3.755192  0  0  -0.232464  0  4.001352  0  0  -0.240112  0  4.021361  0  0  -0.113217  -0.227441  0  3.987912  0
C  C54  1  0.14476038  0.89704197  0.10182392  1  0  -0.220445  0  3.755312  0  0  -0.232476  0  4.001463  0  0  -0.240145  0  4.021463  0  0  -0.113223  -0.227457  0  3.98803  0
C  C55  1  0.64476036  0.60294856  0.10182454  1  0  -0.220427  0  3.755392  0  0  -0.232503  0  4.001543  0  0  -0.240154  0  4.021553  0  0  -0.113213  -0.227486  0  3.98811  0
C  C56  1  0.72890165  0.00358477  0.93889027  1  0  -0.048609  0  3.819659  0  0  -0.065198  0  4.073725  0  0  -0.061976  0  4.092634  0  0  -0.095633  -0.06691  0  4.060607  0
C  C57  1  0.22890285  0.49642483  0.93889038  1  0  -0.048694  0  3.819689  0  0  -0.065273  0  4.073758  0  0  -0.062046  0  4.092648  0  0  -0.09569  -0.066986  0  4.060643  0
C  C58  1  0.27110038  0.99640922  0.06111046  1  0  -0.048608  0  3.819728  0  0  -0.065192  0  4.073795  0  0  -0.061982  0  4.092712  0  0  -0.09562  -0.066906  0  4.060677  0
C  C59  1  0.77109647  0.50357978  0.06111017  1  0  -0.048575  0  3.819612  0  0  -0.065147  0  4.073685  0  0  -0.061925  0  4.092581  0  0  -0.095678  -0.066859  0  4.060569  0
C  C60  1  0.62215500  0.87619170  0.88769892  1  0  -0.13113  0  3.812526  0  0  -0.146405  0  4.071134  0  0  -0.153055  0  4.093868  0  0  -0.116669  -0.142128  0  4.055664  0
C  C61  1  0.12215823  0.62381448  0.88769920  1  0  -0.131066  0  3.812344  0  0  -0.146343  0  4.07095  0  0  -0.152992  0  4.093684  0  0  -0.116649  -0.142066  0  4.05548  0
C  C62  1  0.37784296  0.12380363  0.11230087  1  0  -0.131143  0  3.812544  0  0  -0.14642  0  4.071136  0  0  -0.153071  0  4.093872  0  0  -0.116664  -0.142144  0  4.055666  0
C  C63  1  0.87784107  0.37618483  0.11229931  1  0  -0.131165  0  3.812575  0  0  -0.146441  0  4.071175  0  0  -0.153091  0  4.09391  0  0  -0.116667  -0.142164  0  4.055704  0
N  N64  1  0.99974159  0.18719905  0.76633593  1  0  -0.658532  0  3.149532  0  0  -0.612727  0  3.361349  0  0  -0.632276  0  3.362139  0  0  -0.591756  -0.598863  0  3.360579  0
N  N65  1  0.49974314  0.31280353  0.76633949  1  0  -0.658541  0  3.149612  0  0  -0.612742  0  3.361384  0  0  -0.632294  0  3.362166  0  0  -0.591805  -0.598867  0  3.360634  0
N  N66  1  0.00025772  0.81279362  0.23366463  1  0  -0.65856  0  3.149587  0  0  -0.612758  0  3.36141  0  0  -0.632309  0  3.362192  0  0  -0.591747  -0.598883  0  3.360659  0
N  N67  1  0.50025754  0.68719578  0.23366251  1  0  -0.658438  0  3.149475  0  0  -0.612637  0  3.361272  0  0  -0.632185  0  3.362058  0  0  -0.591789  -0.598771  0  3.360503  0
O  O68  1  0.86194562  0.02688899  0.60694720  1  0  -0.732971  0  1.965958  0  0  -0.685591  0  2.207197  0  0  -0.708488  0  2.196133  0  0  -0.468648  -0.669483  0  2.21444  0
O  O69  1  0.36196045  0.47311389  0.60694884  1  0  -0.733045  0  1.965995  0  0  -0.685705  0  2.207304  0  0  -0.708601  0  2.196241  0  0  -0.468757  -0.669596  0  2.214546  0
O  O70  1  0.13804690  0.97311032  0.39305362  1  0  -0.733041  0  1.965941  0  0  -0.685657  0  2.207173  0  0  -0.70855  0  2.196109  0  0  -0.468754  -0.669547  0  2.214415  0
O  O71  1  0.63804566  0.52688940  0.39305214  1  0  -0.733019  0  1.965965  0  0  -0.685652  0  2.20722  0  0  -0.708545  0  2.196158  0  0  -0.468719  -0.66954  0  2.214461  0
O  O72  1  0.70960072  0.77168425  0.61845686  1  0  -0.739955  0  2.022133  0  0  -0.684331  0  2.260634  0  0  -0.708649  0  2.249116  0  0  -0.459362  -0.667204  0  2.268123  0
O  O73  1  0.20960783  0.72831658  0.61845601  1  0  -0.739936  0  2.022065  0  0  -0.684322  0  2.26057  0  0  -0.708643  0  2.249047  0  0  -0.459395  -0.667196  0  2.268058  0
O  O74  1  0.29039724  0.22830975  0.38154293  1  0  -0.739926  0  2.022115  0  0  -0.684299  0  2.26062  0  0  -0.708624  0  2.249099  0  0  -0.459328  -0.667176  0  2.268109  0
O  O75  1  0.79040099  0.27168804  0.38154446  1  0  -0.73994  0  2.022122  0  0  -0.684316  0  2.260624  0  0  -0.708642  0  2.249109  0  0  -0.459377  -0.667193  0  2.268111  0
O  O76  1  0.82607458  0.43649707  0.62734915  1  0  -0.910812  0  1.811616  0  0  -0.8686  0  1.988398  0  0  -0.886111  0  1.958455  0  0  -0.702529  -0.856041  0  2.009341  0
O  O77  1  0.32606573  0.06351117  0.62735481  1  0  -0.910854  0  1.811551  0  0  -0.868668  0  1.988279  0  0  -0.886172  0  1.958341  0  0  -0.702551  -0.856112  0  2.00922  0
O  O78  1  0.17393424  0.56350622  0.37265132  1  0  -0.910789  0  1.811632  0  0  -0.868589  0  1.988377  0  0  -0.886092  0  1.958436  0  0  -0.702511  -0.856029  0  2.009323  0
O  O79  1  0.67393901  0.93648813  0.37264472  1  0  -0.910813  0  1.811559  0  0  -0.868624  0  1.988287  0  0  -0.886126  0  1.958349  0  0  -0.702498  -0.856068  0  2.009229  0
