# generated using pymatgen
data_ZnH8C22Br5NO10
_symmetry_space_group_name_H-M   'P 1'
_cell_length_a   14.76428510
_cell_length_b   15.06053184
_cell_length_c   15.52674115
_cell_angle_alpha   83.88830350
_cell_angle_beta   62.41293912
_cell_angle_gamma   86.73986989
_symmetry_Int_Tables_number   1
_chemical_formula_structural   ZnH8C22Br5NO10
_chemical_formula_sum   'Zn2 H16 C44 Br10 N2 O20'
_cell_volume   3042.47018208
_cell_formula_units_Z   2
loop_
 _symmetry_equiv_pos_site_id
 _symmetry_equiv_pos_as_xyz
  1  'x, y, z'
loop_
 _atom_site_type_symbol
 _atom_site_label
 _atom_site_symmetry_multiplicity
 _atom_site_fract_x
 _atom_site_fract_y
 _atom_site_fract_z
 _atom_site_occupancy
 _atom_site_pbe_bader_charge
 _atom_site_pbe_bader_spin_density
 _atom_site_pbe_cm5_charge
 _atom_site_pbe_ddec_charge
 _atom_site_pbe_ddec_spin_density
 _atom_site_pbe_ddec_sum_bond_order
 _atom_site_pbe_magmom
Zn  Zn0  1  0.59789191  0.48628565  0.49667290  1  1.343261  0  0.680965  0.92151  0  2.294546  0
Zn  Zn1  1  0.37640404  0.49755366  0.51995378  1  1.313934  0  0.679412  0.907168  0  2.223199  0
H  H2  1  0.56066055  0.45934216  0.77399737  1  0.128465  0  0.088459  0.104118  0  1.074161  0
H  H3  1  0.50631133  0.54684172  0.21577715  1  0.127412  0  0.084681  0.094751  0  1.087144  0
H  H4  1  0.40796231  0.77302668  0.41318562  1  0.119713  0  0.107781  0.13678  0  1.002486  0
H  H5  1  0.31920726  0.22330624  0.60276327  1  0.123573  0  0.109001  0.136625  0  1.001267  0
H  H6  1  0.74987642  0.30111480  0.87275259  1  0.607359  0  0.286592  0.318452  0  0.98849  0
H  H7  1  0.34898703  0.72360722  0.10528751  1  0.59981  0  0.293797  0.326646  0  0.96813  0
H  H8  1  0.05072953  0.62391877  0.38305648  1  0.650103  0  0.319206  0.360407  0  0.939279  0
H  H9  1  0.99140872  0.34724851  0.54108383  1  0.633439  0  0.338698  0.374808  0  0.870708  0
H  H10  1  0.89950154  0.44031621  0.68571979  1  0.619758  0  0.33715  0.369849  0  0.87327  0
H  H11  1  0.89010227  0.70579459  0.46801330  1  0.601876  0  0.308633  0.336688  0  0.95233  0
H  H12  1  0.27613273  0.52914997  0.75876006  1  0.64115  0  0.295393  0.345465  0  0.978689  0
H  H13  1  0.77379303  0.46531029  0.25996685  1  0.646056  0  0.302203  0.357175  0  0.957864  0
H  H14  1  0.51363880  0.99953754  0.61900803  1  0.583237  0  0.326066  0.362375  0  0.883674  0
H  H15  1  0.62042485  0.98005381  0.38097713  1  0.591522  0  0.322816  0.356668  0  0.891858  0
H  H16  1  0.41733590  0.01062440  0.38525759  1  0.600838  0  0.326469  0.359912  0  0.888509  0
H  H17  1  0.30695585  0.98587919  0.62946547  1  0.613888  0  0.327395  0.360871  0  0.886743  0
C  C18  1  0.45516680  0.65784228  0.52576733  1  1.60934  0  0.219658  0.622227  0  4.131016  0
C  C19  1  0.47128711  0.32967172  0.48759731  1  1.603576  0  0.220807  0.625266  0  4.128479  0
C  C20  1  0.62223949  0.41694462  0.91843899  1  -0.101992  0  -0.044363  -0.091981  0  3.910312  0
C  C21  1  0.47185409  0.60380848  0.06082781  1  -0.142741  0  -0.041746  -0.089293  0  3.925148  0
C  C22  1  0.69764326  0.40029089  0.94824124  1  0.55005  0  0.068967  0.21539  0  4.089424  0
C  C23  1  0.39338779  0.62038142  0.03582309  1  0.565083  0  0.07276  0.221869  0  4.091346  0
C  C24  1  0.48866361  0.89362078  0.57671017  1  0.518723  0  0.071433  0.230387  0  4.133073  0
C  C25  1  0.55440658  0.08986764  0.42650582  1  0.453173  0  0.07071  0.229993  0  4.130631  0
C  C26  1  0.48427621  0.79997626  0.58586433  1  -0.032192  0  -0.043072  -0.054065  0  3.944181  0
C  C27  1  0.55704797  0.18352923  0.41838229  1  0.030445  0  -0.041358  -0.052426  0  3.940436  0
C  C28  1  0.45668383  0.75764213  0.52526144  1  -0.043767  0  -0.015927  -0.022208  0  3.98727  0
C  C29  1  0.47206603  0.23037914  0.48365946  1  0.03628  0  -0.015317  -0.021611  0  3.982607  0
C  C30  1  0.43176746  0.80726425  0.45760150  1  0.041017  0  -0.110681  -0.236884  0  3.957259  0
C  C31  1  0.38476745  0.18529330  0.55430395  1  -0.044701  0  -0.110411  -0.235562  0  3.958487  0
C  C32  1  0.43626497  0.90012453  0.44836481  1  0.491449  0  0.075362  0.282927  0  4.13377  0
C  C33  1  0.38245182  0.09235716  0.56284127  1  0.504231  0  0.074436  0.281218  0  4.138629  0
C  C34  1  0.46524053  0.94441812  0.50739918  1  -0.029998  0  -0.064533  -0.241881  0  4.184141  0
C  C35  1  0.46757954  0.04348335  0.49950081  1  -0.039781  0  -0.064549  -0.243952  0  4.186266  0
C  C36  1  0.11684261  0.54874563  0.44455953  1  0.680472  0  0.08695  0.218819  0  4.071059  0
C  C37  1  0.88579095  0.41972240  0.52872085  1  0.589131  0  0.085303  0.187462  0  4.100719  0
C  C38  1  0.20973777  0.54582547  0.44945329  1  0.497853  0  0.098312  0.125104  0  3.960663  0
C  C39  1  0.79398006  0.42019421  0.52126789  1  0.568066  0  0.101055  0.125438  0  3.967288  0
C  C40  1  0.60494529  0.50840153  0.31768172  1  1.535095  0  0.210496  0.616192  0  4.125511  0
C  C41  1  0.44293051  0.48096148  0.69189732  1  1.537972  0  0.213308  0.62219  0  4.125229  0
C  C42  1  0.14049977  0.46226235  0.59852040  1  0.536055  0  0.097274  0.123669  0  3.980695  0
C  C43  1  0.79838522  0.57250728  0.48674202  1  0.55791  0  0.094778  0.104782  0  4.010641  0
C  C44  1  0.04299712  0.46406702  0.60286265  1  0.58928  0  0.078076  0.173302  0  4.118292  0
C  C45  1  0.88677772  0.57950930  0.49730025  1  0.496421  0  0.077386  0.181269  0  4.102229  0
C  C46  1  0.03115080  0.50544436  0.52251660  1  -0.037808  0  -0.026588  -0.122843  0  4.023362  0
C  C47  1  0.93300652  0.50189988  0.51870602  1  -0.014704  0  -0.022547  -0.107442  0  4.025353  0
C  C48  1  0.64396700  0.49627233  0.21283684  1  0.047636  0  -0.039042  -0.162673  0  4.009422  0
C  C49  1  0.41644919  0.50416009  0.79122534  1  0.031352  0  -0.043328  -0.169742  0  4.026514  0
C  C50  1  0.76634105  0.43266311  0.06433062  1  -0.01453  0  -0.032456  -0.039257  0  3.865037  0
C  C51  1  0.30812208  0.57645989  0.93777126  1  -0.044731  0  -0.031268  -0.037018  0  3.862444  0
C  C52  1  0.74234450  0.45854267  0.15668584  1  0.530918  0  0.08032  0.25579  0  4.088053  0
C  C53  1  0.32096468  0.54385940  0.85135413  1  0.625349  0  0.08141  0.260843  0  4.086919  0
C  C54  1  0.58078281  0.51899209  0.17024948  1  -0.071713  0  -0.093705  -0.11652  0  4.008349  0
C  C55  1  0.48920005  0.48866871  0.82388076  1  -0.108198  0  -0.097704  -0.122557  0  4.014102  0
C  C56  1  0.60706398  0.50152530  0.07460255  1  0.015677  0  -0.018732  0.03395  0  3.998932  0
C  C57  1  0.47474515  0.51235719  0.91414503  1  0.021629  0  -0.018151  0.033208  0  3.988358  0
C  C58  1  0.69574486  0.44685383  0.02541430  1  0.067603  0  -0.011165  -0.024839  0  3.954042  0
C  C59  1  0.38684116  0.56749807  0.96669381  1  0.064233  0  -0.010055  -0.025474  0  3.940253  0
C  C60  1  0.54205132  0.53042905  0.03030011  1  0.055033  0  -0.019336  -0.000865  0  4.015127  0
C  C61  1  0.54676806  0.48658688  0.95183737  1  0.05876  0  -0.018424  -0.000586  0  4.003115  0
Br  Br62  1  0.32048450  0.60735396  0.34566173  1  0.039833  0  0.086943  0.004721  0  1.692064  0
Br  Br63  1  0.73151734  0.31059517  0.53597395  1  0.056839  0  0.095112  0.033472  0  1.522522  0
Br  Br64  1  0.15636203  0.40280831  0.70375948  1  0.046433  0  0.105024  0.044727  0  1.484626  0
Br  Br65  1  0.74983547  0.68030991  0.44669834  1  0.01764  0  0.110703  0.014648  0  1.556669  0
Br  Br66  1  0.89899432  0.38247990  0.99628694  1  -0.013382  0  0.012566  -0.04096  0  1.468525  0
Br  Br67  1  0.17765963  0.62761703  0.01328907  1  -0.016381  0  0.009931  -0.039191  0  1.430675  0
Br  Br68  1  0.62010189  0.32709889  0.83904653  1  -0.082467  0  0.060311  -0.043649  0  1.560379  0
Br  Br69  1  0.49482222  0.69959822  0.12177303  1  -0.081942  0  0.060345  -0.032375  0  1.566407  0
Br  Br70  1  0.50670797  0.73611747  0.68652544  1  -0.017849  0  0.030923  -0.019762  0  1.490511  0
Br  Br71  1  0.67364621  0.24098653  0.31544610  1  -0.003445  0  0.035161  -0.013222  0  1.503397  0
N  N72  1  0.22132429  0.50234935  0.52350879  1  -1.218117  0  -0.304951  -0.265094  0  3.537464  0
N  N73  1  0.75217014  0.49508683  0.50033871  1  -1.196639  0  -0.297995  -0.244869  0  3.515853  0
O  O74  1  0.53267691  0.61413684  0.52066142  1  -1.184388  0  -0.313368  -0.57236  0  2.448086  0
O  O75  1  0.38760208  0.37047972  0.50151121  1  -1.150176  0  -0.322072  -0.548182  0  2.345691  0
O  O76  1  0.37538425  0.62678695  0.52772944  1  -1.130993  0  -0.31644  -0.531177  0  2.341622  0
O  O77  1  0.55004138  0.36347245  0.48181330  1  -1.176676  0  -0.308994  -0.567535  0  2.459721  0
O  O78  1  0.67213325  0.50452775  0.35088248  1  -1.160604  0  -0.324584  -0.566647  0  2.328964  0
O  O79  1  0.37285902  0.48645644  0.66430838  1  -1.177293  0  -0.312063  -0.578544  0  2.349899  0
O  O80  1  0.51087269  0.52000597  0.37025975  1  -1.195724  0  -0.31297  -0.562513  0  2.345685  0
O  O81  1  0.53561036  0.45828640  0.63924002  1  -1.170329  0  -0.32572  -0.549418  0  2.388326  0
O  O82  1  0.76726860  0.33355286  0.91500565  1  -1.141232  0  -0.351057  -0.410898  0  2.409115  0
O  O83  1  0.32935364  0.69134853  0.06460685  1  -1.122108  0  -0.347136  -0.412623  0  2.400126  0
O  O84  1  0.11532260  0.59028177  0.36383617  1  -1.141756  0  -0.348742  -0.42389  0  2.340102  0
O  O85  1  0.92524945  0.33959902  0.54273685  1  -1.128806  0  -0.332645  -0.405472  0  2.342165  0
O  O86  1  0.96528273  0.42483661  0.68444654  1  -1.116576  0  -0.334107  -0.410862  0  2.360408  0
O  O87  1  0.93249340  0.65967336  0.48314067  1  -1.113749  0  -0.328131  -0.39706  0  2.346742  0
O  O88  1  0.24630179  0.55329192  0.82456819  1  -1.14638  0  -0.353492  -0.435193  0  2.343217  0
O  O89  1  0.80943484  0.44391084  0.19281453  1  -1.148238  0  -0.355191  -0.435563  0  2.331007  0
O  O90  1  0.51497630  0.93489640  0.63546267  1  -1.092621  0  -0.3472  -0.416541  0  2.298897  0
O  O91  1  0.63618903  0.04386919  0.36369025  1  -1.113618  0  -0.347432  -0.414335  0  2.303221  0
O  O92  1  0.41167074  0.94672477  0.38176095  1  -1.113862  0  -0.351443  -0.421584  0  2.229026  0
O  O93  1  0.29675298  0.05046592  0.63331748  1  -1.133742  0  -0.350343  -0.41993  0  2.228993  0
