# generated using pymatgen
data_Zn7H52C76(NO3)6
_symmetry_space_group_name_H-M   'P 1'
_cell_length_a   12.92887640
_cell_length_b   16.89237288
_cell_length_c   17.45370880
_cell_angle_alpha   75.64610963
_cell_angle_beta   73.09514802
_cell_angle_gamma   68.90760645
_symmetry_Int_Tables_number   1
_chemical_formula_structural   Zn7H52C76(NO3)6
_chemical_formula_sum   'Zn7 H52 C76 N6 O18'
_cell_volume   3358.70114852
_cell_formula_units_Z   1
loop_
 _symmetry_equiv_pos_site_id
 _symmetry_equiv_pos_as_xyz
  1  'x, y, z'
loop_
 _atom_site_type_symbol
 _atom_site_label
 _atom_site_symmetry_multiplicity
 _atom_site_fract_x
 _atom_site_fract_y
 _atom_site_fract_z
 _atom_site_occupancy
 _atom_site_pbe_bader_charge
 _atom_site_pbe_bader_spin_density
 _atom_site_pbe_cm5_charge
 _atom_site_pbe_ddec_charge
 _atom_site_pbe_ddec_spin_density
 _atom_site_pbe_ddec_sum_bond_order
 _atom_site_pbe_magmom
Zn  Zn0  1  0.46949341  0.31639206  0.05024498  1  1.273117  0  0.675604  0.869649  0  2.388202  0
Zn  Zn1  1  0.53050590  0.68360771  0.94975543  1  1.27311  0  0.675608  0.869657  0  2.388237  0
Zn  Zn2  1  0.35104172  0.44414020  0.17891407  1  1.268746  0  0.67271  0.856224  0  2.435032  0
Zn  Zn3  1  0.64895921  0.55585956  0.82108600  1  1.268734  0  0.672692  0.856168  0  2.435054  0
Zn  Zn4  1  0.61583377  0.37447477  0.13954683  1  1.306165  0  0.676711  0.90309  0  2.356063  0
Zn  Zn5  1  0.38416635  0.62552499  0.86045340  1  1.306169  0  0.676703  0.903053  0  2.356028  0
Zn  Zn6  1  0.50000020  0.49999981  0.00000015  1  1.324865  0  0.625617  0.979773  0  2.308371  0
H  H7  1  0.64925592  0.36269410  0.37480134  1  0.091712  0  0.099766  0.097598  0  1.017577  0
H  H8  1  0.35074473  0.63730631  0.62519862  1  0.09172  0  0.099779  0.097649  0  1.017565  0
H  H9  1  0.64606445  0.36221189  0.51790289  1  0.042966  0  0.099905  0.097893  0  1.009304  0
H  H10  1  0.35393566  0.63778787  0.48209735  1  0.042971  0  0.0999  0.097886  0  1.009317  0
H  H11  1  0.28194551  0.41870831  0.57768397  1  0.058061  0  0.099289  0.097739  0  1.007733  0
H  H12  1  0.71805541  0.58129145  0.42231609  1  0.058119  0  0.099292  0.097743  0  1.007706  0
H  H13  1  0.28647013  0.42227971  0.43352142  1  0.089124  0  0.10458  0.107944  0  0.998504  0
H  H14  1  0.71352811  0.57772069  0.56647792  1  0.089163  0  0.104569  0.107911  0  0.99845  0
H  H15  1  0.15792904  0.69493996  0.23722525  1  0.093937  0  0.104048  0.107823  0  1.000412  0
H  H16  1  0.84207269  0.30505981  0.76277464  1  0.093944  0  0.104049  0.107815  0  1.000438  0
H  H17  1  0.00498782  0.83584373  0.24421318  1  0.057505  0  0.099827  0.098808  0  1.005452  0
H  H18  1  0.99501175  0.16415539  0.75578675  1  0.057502  0  0.099816  0.098807  0  1.005453  0
H  H19  1  0.03648335  0.87085544  0.98609379  1  0.096999  0  0.097347  0.096889  0  1.030071  0
H  H20  1  0.96351757  0.12914433  0.01390570  1  0.097  0  0.097363  0.096917  0  1.030034  0
H  H21  1  0.19055320  0.73189562  0.97984507  1  0.078355  0  0.09843  0.095369  0  1.053105  0
H  H22  1  0.80944772  0.26810414  0.02015442  1  0.078369  0  0.098426  0.095362  0  1.053135  0
H  H23  1  0.96703339  0.30193131  0.24487971  1  0.087672  0  0.112899  0.121573  0  0.9888  0
H  H24  1  0.03296646  0.69806910  0.75512043  1  0.087668  0  0.112893  0.121541  0  0.988803  0
H  H25  1  0.77215812  0.30626560  0.24312064  1  0.138258  0  0.125306  0.101084  0  0.988951  0
H  H26  1  0.22784118  0.69373417  0.75687977  1  0.138266  0  0.125298  0.101074  0  0.989012  0
H  H27  1  0.79619505  0.43938571  0.00862557  1  0.166946  0  0.122984  0.107405  0  1.00758  0
H  H28  1  0.20380399  0.56061469  0.99137474  1  0.166947  0  0.12298  0.107387  0  1.007548  0
H  H29  1  0.99544950  0.43452570  0.99779613  1  0.096587  0  0.108386  0.114675  0  1.016823  0
H  H30  1  0.00455008  0.56547535  0.00220391  1  0.096602  0  0.108401  0.114654  0  1.016812  0
H  H31  1  0.30164761  0.49274550  0.80483755  1  0.084747  0  0.096675  0.092889  0  1.045022  0
H  H32  1  0.69835304  0.50725491  0.19516242  1  0.084742  0  0.096663  0.092887  0  1.045008  0
H  H33  1  0.30055770  0.48970281  0.66406523  1  0.044337  0  0.096967  0.092241  0  1.016538  0
H  H34  1  0.69944134  0.51029759  0.33593451  1  0.044288  0  0.096967  0.092245  0  1.016527  0
H  H35  1  0.62310514  0.28869718  0.64502329  1  0.038567  0  0.100218  0.09835  0  1.006821  0
H  H36  1  0.37689498  0.71130258  0.35497694  1  0.038568  0  0.10022  0.098325  0  1.006825  0
H  H37  1  0.62072280  0.29014228  0.78750602  1  0.080645  0  0.105341  0.109412  0  1.000584  0
H  H38  1  0.37927705  0.70985813  0.21249355  1  0.080639  0  0.105318  0.109362  0  1.00059  0
H  H39  1  0.81566127  0.12697037  0.20603930  1  0.103485  0  0.101832  0.105189  0  1.006472  0
H  H40  1  0.18433965  0.87302940  0.79396019  1  0.103482  0  0.101825  0.10519  0  1.006437  0
H  H41  1  0.97211348  0.98766861  0.20222732  1  0.058715  0  0.100046  0.099132  0  1.004795  0
H  H42  1  0.02788744  0.01233116  0.79777332  1  0.058766  0  0.100061  0.099166  0  1.004764  0
H  H43  1  0.83441836  0.92157355  0.03831682  1  0.053529  0  0.100421  0.098755  0  1.006375  0
H  H44  1  0.16558175  0.07842622  0.96168342  1  0.053523  0  0.100423  0.098759  0  1.006382  0
H  H45  1  0.67788885  0.06083931  0.04351421  1  0.081141  0  0.10893  0.114721  0  0.989381  0
H  H46  1  0.32211073  0.93915981  0.95648630  1  0.081139  0  0.108912  0.1147  0  0.989316  0
H  H47  1  0.11671454  0.47207646  0.26928484  1  0.054191  0  0.102802  0.148063  0  0.988943  0
H  H48  1  0.88328531  0.52792395  0.73071530  1  0.054195  0  0.102809  0.148089  0  0.988941  0
H  H49  1  0.01915645  0.41337795  0.29039966  1  0.033538  0  0.093013  0.127839  0  1.000176  0
H  H50  1  0.98084367  0.58662182  0.70960058  1  0.033542  0  0.093016  0.12785  0  1.000188  0
H  H51  1  0.00196695  0.50987465  0.21946127  1  0.059811  0  0.096439  0.136888  0  0.984005  0
H  H52  1  0.99803316  0.49012512  0.78053897  1  0.059804  0  0.096443  0.136911  0  0.983998  0
H  H53  1  0.32938634  0.26526426  0.97223988  1  0.095134  0  0.101902  0.149481  0  0.998004  0
H  H54  1  0.67061351  0.73473614  0.02776084  1  0.095152  0  0.101893  0.149473  0  0.998005  0
H  H55  1  0.19691803  0.33219082  0.94967099  1  0.03938  0  0.094662  0.133035  0  0.993475  0
H  H56  1  0.80308208  0.66780895  0.05032868  1  0.039384  0  0.094665  0.133039  0  0.993473  0
H  H57  1  0.20428456  0.23403693  0.01716595  1  0.044709  0  0.096196  0.136115  0  0.987395  0
H  H58  1  0.79571529  0.76596348  0.98283362  1  0.044705  0  0.096185  0.136098  0  0.987377  0
C  C59  1  0.46161101  0.39331101  0.89010734  1  1.535095  0  0.213473  0.586599  0  4.172216  0
C  C60  1  0.53838965  0.60668940  0.10989263  1  1.535097  0  0.213452  0.58656  0  4.172214  0
C  C61  1  0.46818957  0.39225793  0.39527756  1  -0.108724  0  -0.019582  -0.039947  0  3.971564  0
C  C62  1  0.53181055  0.60774184  0.60472267  1  -0.108671  0  -0.019533  -0.039891  0  3.971571  0
C  C63  1  0.56927056  0.37441471  0.41999860  1  0.021037  0  -0.084497  -0.085008  0  4.000403  0
C  C64  1  0.43072929  0.62558569  0.58000154  1  0.021023  0  -0.084566  -0.08516  0  4.00047  0
C  C65  1  0.56706268  0.37346719  0.50027512  1  -0.073297  0  -0.091065  -0.134543  0  3.986148  0
C  C66  1  0.43293636  0.62653322  0.49972519  1  -0.073141  0  -0.091059  -0.134521  0  3.98611  0
C  C67  1  0.46384881  0.38984684  0.55871360  1  0.023838  0  -0.000447  0.081737  0  3.991427  0
C  C68  1  0.53615131  0.61015292  0.44128606  1  0.023613  0  -0.000446  0.081747  0  3.991441  0
C  C69  1  0.36287948  0.40740191  0.53333183  1  -0.041598  0  -0.092165  -0.138456  0  3.99008  0
C  C70  1  0.63712064  0.59259785  0.46666784  1  -0.041677  0  -0.092166  -0.138466  0  3.990099  0
C  C71  1  0.36481757  0.40876183  0.45293241  1  -0.033497  0  -0.083918  -0.085005  0  3.986819  0
C  C72  1  0.63518039  0.59123922  0.54706684  1  -0.033496  0  -0.083895  -0.084937  0  3.986775  0
C  C73  1  0.18299839  0.70393697  0.10836762  1  0.009802  0  -0.0218  -0.038507  0  3.968267  0
C  C74  1  0.81700253  0.29606279  0.89163187  1  0.009781  0  -0.0218  -0.03851  0  3.968326  0
C  C75  1  0.13107691  0.73454791  0.18253350  1  -0.047734  0  -0.086042  -0.089767  0  3.991965  0
C  C76  1  0.86892347  0.26545121  0.81746626  1  -0.047735  0  -0.086039  -0.089756  0  3.992023  0
C  C77  1  0.04581395  0.81331707  0.18600781  1  -0.120975  0  -0.092963  -0.138148  0  3.995607  0
C  C78  1  0.95418508  0.18668141  0.81399296  1  -0.12097  0  -0.092987  -0.138202  0  3.99571  0
C  C79  1  0.00819251  0.86276494  0.11583389  1  0.029259  0  -0.004678  0.07465  0  3.998457  0
C  C80  1  0.99180571  0.13723353  0.88416649  1  0.029239  0  -0.004632  0.074728  0  3.998554  0
C  C81  1  0.06148091  0.83208525  0.04166309  1  -0.093399  0  -0.091265  -0.132458  0  3.976245  0
C  C82  1  0.93851867  0.16791386  0.95833685  1  -0.093533  0  -0.091319  -0.132541  0  3.976307  0
C  C83  1  0.14855399  0.75425328  0.03784741  1  -0.025173  0  -0.087456  -0.086175  0  3.97589  0
C  C84  1  0.85144666  0.24574713  0.96215199  1  -0.025029  0  -0.087444  -0.08615  0  3.975954  0
C  C85  1  0.99831500  0.36915648  0.12144574  1  0.052789  0  0.021944  0.178003  0  4.004048  0
C  C86  1  0.00168458  0.63084457  0.87855430  1  0.052767  0  0.021934  0.17802  0  4.004131  0
C  C87  1  0.93244331  0.33310285  0.19115967  1  -0.04167  0  -0.08584  -0.192964  0  3.949327  0
C  C88  1  0.06755493  0.66689755  0.80884082  1  -0.041672  0  -0.08581  -0.192927  0  3.949309  0
C  C89  1  0.82464195  0.33493413  0.19072496  1  0.419407  0  0.04933  0.095112  0  3.951092  0
C  C90  1  0.17535790  0.66506628  0.80927518  1  0.419424  0  0.049318  0.09509  0  3.951104  0
C  C91  1  0.83875033  0.40847868  0.05868826  1  0.409793  0  0.053282  0.107363  0  3.930865  0
C  C92  1  0.16124925  0.59152237  0.94131236  1  0.409865  0  0.053292  0.107396  0  3.930823  0
C  C93  1  0.94896520  0.40581088  0.05378282  1  -0.02266  0  -0.084694  -0.193069  0  3.935287  0
C  C94  1  0.05103465  0.59418953  0.94621732  1  -0.022735  0  -0.084684  -0.193025  0  3.93526  0
C  C95  1  0.46139945  0.39188972  0.80498056  1  0.01705  0  -0.018557  -0.032635  0  3.969703  0
C  C96  1  0.53860067  0.60811004  0.19501968  1  0.017054  0  -0.018572  -0.032765  0  3.969821  0
C  C97  1  0.37116810  0.44742069  0.76984002  1  -0.076101  0  -0.089368  -0.089106  0  3.998817  0
C  C98  1  0.62883202  0.55257907  0.23015965  1  -0.076103  0  -0.089369  -0.08907  0  3.998762  0
C  C99  1  0.37081631  0.44523687  0.69081724  1  -0.021148  0  -0.092436  -0.132722  0  3.993191  0
C  C100  1  0.62918354  0.55476353  0.30918290  1  -0.021084  0  -0.092421  -0.132701  0  3.993144  0
C  C101  1  0.46211234  0.38939400  0.64373423  1  -0.057808  0  -0.004999  0.068875  0  3.99843  0
C  C102  1  0.53788750  0.61060640  0.35626591  1  -0.057826  0  -0.005008  0.068812  0  3.998483  0
C  C103  1  0.55241537  0.33390588  0.67969533  1  0.007314  0  -0.090884  -0.133124  0  3.985137  0
C  C104  1  0.44758474  0.66609388  0.32030490  1  0.007307  0  -0.090839  -0.132995  0  3.985053  0
C  C105  1  0.55146913  0.33415200  0.75951661  1  -0.009122  0  -0.081552  -0.080232  0  3.972898  0
C  C106  1  0.44853071  0.66584841  0.24048353  1  -0.009112  0  -0.081547  -0.080173  0  3.972904  0
C  C107  1  0.81989852  0.08076439  0.17041954  1  -0.098097  0  -0.086025  -0.089312  0  3.999051  0
C  C108  1  0.18010186  0.91923473  0.82958137  1  -0.098115  0  -0.085999  -0.089333  0  3.999068  0
C  C109  1  0.90698997  0.00290123  0.16808903  1  -0.054513  0  -0.093925  -0.142468  0  3.999372  0
C  C110  1  0.09300987  0.99709725  0.83191215  1  -0.053871  0  -0.093927  -0.142485  0  3.999356  0
C  C111  1  0.91464140  0.94471474  0.11976714  1  0.02652  0  -0.002297  0.074742  0  4.000973  0
C  C112  1  0.08535737  0.05528437  0.88023412  1  0.02585  0  -0.002311  0.074724  0  4.000983  0
C  C113  1  0.83084120  0.96655493  0.07507799  1  -0.079765  0  -0.088254  -0.130301  0  3.978995  0
C  C114  1  0.16915757  0.03344419  0.92492326  1  -0.079761  0  -0.088254  -0.130321  0  3.979033  0
C  C115  1  0.74266542  0.04385504  0.07826292  1  0.006303  0  -0.080441  -0.081487  0  3.977587  0
C  C116  1  0.25733389  0.95614472  0.92173807  1  0.006302  0  -0.080429  -0.081466  0  3.977467  0
C  C117  1  0.73702199  0.10209424  0.12537998  1  -0.010194  0  -0.020745  -0.043403  0  3.979268  0
C  C118  1  0.26297732  0.89790552  0.87462044  1  -0.010196  0  -0.020757  -0.043311  0  3.979233  0
C  C119  1  0.47082934  0.39561513  0.30847431  1  1.571685  0  0.222965  0.602532  0  4.154674  0
C  C120  1  0.52917051  0.60438528  0.69152584  1  1.571682  0  0.222979  0.602555  0  4.154639  0
C  C121  1  0.64916338  0.18880856  0.12326072  1  1.559987  0  0.219728  0.598657  0  4.179589  0
C  C122  1  0.35083674  0.81119120  0.87673894  1  1.559997  0  0.219607  0.598375  0  4.179689  0
C  C123  1  0.27002365  0.61705125  0.10552296  1  1.558682  0  0.211898  0.583945  0  4.179709  0
C  C124  1  0.72997728  0.38294851  0.89447653  1  1.558733  0  0.211885  0.583926  0  4.179795  0
C  C125  1  0.06557259  0.45184737  0.24211475  1  -0.05838  0  -0.230891  -0.420223  0  3.979579  0
C  C126  1  0.93442752  0.54815239  0.75788549  1  -0.058426  0  -0.230904  -0.420344  0  3.979547  0
C  C127  1  0.14011606  0.40263057  0.17540265  1  0.460692  0  0.090619  0.216846  0  4.032074  0
C  C128  1  0.85988433  0.59737048  0.82459722  1  0.460648  0  0.090642  0.217028  0  4.031811  0
C  C129  1  0.11153046  0.36884028  0.12093149  1  -0.051593  0  -0.050086  -0.215016  0  4.043324  0
C  C130  1  0.88846939  0.63116012  0.87906922  1  -0.051505  0  -0.050107  -0.215095  0  4.04327  0
C  C131  1  0.21554271  0.33381575  0.06766005  1  0.5089  0  0.094751  0.225693  0  4.017426  0
C  C132  1  0.78445713  0.66618466  0.93234009  1  0.508868  0  0.09476  0.225724  0  4.017358  0
C  C133  1  0.23787569  0.28881707  0.99824309  1  -0.089115  0  -0.231807  -0.420869  0  3.967581  0
C  C134  1  0.76212335  0.71118334  0.00175723  1  -0.08913  0  -0.231802  -0.420871  0  3.967563  0
N  N135  1  0.25322438  0.38857480  0.15515111  1  -0.800495  0  -0.277404  -0.261351  0  3.562068  0
N  N136  1  0.74677573  0.61142496  0.84484970  1  -0.800469  0  -0.27738  -0.261348  0  3.561997  0
N  N137  1  0.29956803  0.34504168  0.09044340  1  -0.787687  0  -0.272134  -0.256895  0  3.549029  0
N  N138  1  0.70043182  0.65495873  0.90955674  1  -0.78769  0  -0.272146  -0.256931  0  3.549039  0
N  N139  1  0.77732803  0.37317836  0.12601807  1  -1.255889  0  -0.334204  -0.238821  0  3.581455  0
N  N140  1  0.22267101  0.62682204  0.87398225  1  -1.255885  0  -0.334215  -0.238829  0  3.581471  0
O  O141  1  0.48608675  0.40849670  0.09216813  1  -1.201218  0  -0.566231  -0.930652  0  2.474656  0
O  O142  1  0.51391337  0.59150306  0.90783211  1  -1.201215  0  -0.566226  -0.930637  0  2.474671  0
O  O143  1  0.41783749  0.46377208  0.91808282  1  -1.185783  0  -0.308847  -0.579509  0  2.326568  0
O  O144  1  0.58216236  0.53622833  0.08191674  1  -1.185769  0  -0.308836  -0.579474  0  2.326614  0
O  O145  1  0.50651704  0.32056862  0.93114727  1  -1.166172  0  -0.321471  -0.5404  0  2.304669  0
O  O146  1  0.49348281  0.67943178  0.06885230  1  -1.166185  0  -0.32149  -0.540411  0  2.304649  0
O  O147  1  0.56715319  0.38434485  0.25885626  1  -1.190059  0  -0.312628  -0.557788  0  2.391476  0
O  O148  1  0.43284666  0.61565556  0.74114331  1  -1.190061  0  -0.312619  -0.557777  0  2.391486  0
O  O149  1  0.37591690  0.41025696  0.29025208  1  -1.166527  0  -0.321414  -0.540883  0  2.32594  0
O  O150  1  0.62408295  0.58974345  0.70974749  1  -1.166523  0  -0.321409  -0.540866  0  2.325912  0
O  O151  1  0.57083526  0.20249930  0.08600905  1  -1.168721  0  -0.321039  -0.536237  0  2.317253  0
O  O152  1  0.42916566  0.79750047  0.91399102  1  -1.168723  0  -0.320989  -0.536136  0  2.317316  0
O  O153  1  0.66088605  0.24268246  0.15702342  1  -1.191295  0  -0.323006  -0.569274  0  2.35504  0
O  O154  1  0.33911487  0.75731731  0.84297607  1  -1.191306  0  -0.322941  -0.569126  0  2.354939  0
O  O155  1  0.28086501  0.56949196  0.17465632  1  -1.171633  0  -0.327458  -0.548964  0  2.324776  0
O  O156  1  0.71913591  0.43050781  0.82534374  1  -1.171678  0  -0.327452  -0.54896  0  2.3248  0
O  O157  1  0.32476843  0.59393182  0.03737632  1  -1.198625  0  -0.309526  -0.574801  0  2.338989  0
O  O158  1  0.67523249  0.40606795  0.96262318  1  -1.198601  0  -0.309513  -0.574779  0  2.339053  0
