# generated using pymatgen
data_Ni3H46C60(N3O4)4
_symmetry_space_group_name_H-M   'P 1'
_cell_length_a   11.28372141
_cell_length_b   12.07746423
_cell_length_c   12.57684610
_cell_angle_alpha   102.37444248
_cell_angle_beta   108.80231005
_cell_angle_gamma   108.72841394
_symmetry_Int_Tables_number   1
_chemical_formula_structural   Ni3H46C60(N3O4)4
_chemical_formula_sum   'Ni3 H46 C60 N12 O16'
_cell_volume   1436.81076017
_cell_formula_units_Z   1
loop_
 _symmetry_equiv_pos_site_id
 _symmetry_equiv_pos_as_xyz
  1  'x, y, z'
loop_
 _atom_site_type_symbol
 _atom_site_label
 _atom_site_symmetry_multiplicity
 _atom_site_fract_x
 _atom_site_fract_y
 _atom_site_fract_z
 _atom_site_occupancy
 _atom_site_hle17_ddec_charge
 _atom_site_hle17_ddec_spin_density
 _atom_site_hle17_ddec_sum_bond_order
 _atom_site_hle17_magmom
 _atom_site_hse06_10hf_ddec_charge
 _atom_site_hse06_10hf_ddec_spin_density
 _atom_site_hse06_10hf_ddec_sum_bond_order
 _atom_site_hse06_10hf_magmom
 _atom_site_hse06_ddec_charge
 _atom_site_hse06_ddec_spin_density
 _atom_site_hse06_ddec_sum_bond_order
 _atom_site_hse06_magmom
 _atom_site_pbe_cm5_charge
 _atom_site_pbe_ddec_charge
 _atom_site_pbe_ddec_spin_density
 _atom_site_pbe_ddec_sum_bond_order
 _atom_site_pbe_magmom
Ni  Ni0  1  0.00000079  0.00000374  0.00000497  1  0.865171  0.06415  2.033346  0.058  0.875589  -0.006153  2.425896  -0.005  0.966649  -0.011103  2.347329  -0.01  0.62887  0.812502  0.000921  2.482309  0.002
Ni  Ni1  1  0.01523729  0.28233007  0.44490145  1  0.83284  1.928096  2.028064  1.505  0.837198  1.962903  2.419149  1.624  0.932354  2.024682  2.339286  1.711  0.638917  0.767243  1.905744  2.478522  1.549
Ni  Ni2  1  0.98476041  0.71766637  0.55509745  1  0.833086  -1.94822  2.027973  -1.505  0.837308  -1.959521  2.4191  -1.624  0.932516  -2.019134  2.339268  -1.711  0.638984  0.767398  -1.905497  2.478385  -1.549
H  H3  1  0.95246153  0.10576357  0.20007478  1  0.424318  0.00023  0.85642  0.001  0.40085  0.000189  0.917401  0.0  0.41149  0.000103  0.902  0.0  0.297896  0.393315  0.000265  0.928296  0.001
H  H4  1  0.04754389  0.89425531  0.79993894  1  0.424354  0.000525  0.856213  0.001  0.400875  0.00042  0.917322  0.0  0.411519  0.000341  0.901913  0.0  0.297896  0.393331  0.000478  0.928228  0.001
H  H5  1  0.78776414  0.28593124  0.37792761  1  0.403705  -0.000354  0.916907  -0.001  0.373063  8e-05  0.981343  0.0  0.385606  -7.4e-05  0.963511  -0.001  0.277675  0.364268  0.000246  0.993769  0.0
H  H6  1  0.21223783  0.71407368  0.62204486  1  0.40354  0.000341  0.917097  0.001  0.372881  -7.9e-05  0.981552  0.0  0.385426  7.4e-05  0.963718  0.001  0.277583  0.364085  -0.000247  0.99398  0.0
H  H7  1  0.86801110  0.27851463  0.76256627  1  0.123787  4.8e-05  0.969967  0.0  0.130582  5.8e-05  1.040406  0.0  0.134129  2.9e-05  1.038317  0.0  0.113092  0.127993  0.000109  1.041942  0.0
H  H8  1  0.13199205  0.72148740  0.23743539  1  0.123756  -1.7e-05  0.969933  0.0  0.130611  -2.6e-05  1.040304  0.0  0.134159  -1.2e-05  1.038214  0.0  0.113103  0.128024  -5.5e-05  1.041838  0.0
H  H9  1  0.43982804  0.02505324  0.63189903  1  0.126025  1.8e-05  0.965596  0.0  0.133866  4.7e-05  1.031007  0.0  0.137159  3e-05  1.029435  0.0  0.115326  0.131393  6.6e-05  1.032434  0.0
H  H10  1  0.56017333  0.97494505  0.36810214  1  0.126033  1e-05  0.965579  0.0  0.133905  5e-06  1.03094  0.0  0.13719  5e-06  1.029394  0.0  0.115338  0.131435  -3e-06  1.032363  0.0
H  H11  1  0.54846417  0.37667246  0.57359216  1  0.119654  0.0  0.947955  0.0  0.130877  -7e-06  1.007123  0.0  0.134154  -4e-06  1.005115  0.0  0.114979  0.128371  -1.4e-05  1.009  0.0
H  H12  1  0.45154028  0.62333048  0.42641802  1  0.119599  9e-06  0.947932  0.0  0.13084  4e-06  1.007092  0.0  0.134117  3e-06  1.005085  0.0  0.114976  0.128333  1.1e-05  1.008965  0.0
H  H13  1  0.90721629  0.18766003  0.89009177  1  0.095549  0.000217  0.957649  0.0  0.103978  0.000165  1.021359  0.0  0.106144  0.000138  1.018258  0.0  0.136941  0.10219  0.000195  1.023986  0.0
H  H14  1  0.09278187  0.81234951  0.10992188  1  0.095568  0.00024  0.957715  0.0  0.104025  0.000181  1.021409  0.0  0.106193  0.000147  1.018308  0.0  0.136952  0.102238  0.000223  1.024034  0.0
H  H15  1  0.68334682  0.80297747  0.80385192  1  0.119702  8.5e-05  0.978644  0.0  0.127375  0.000168  1.03549  0.0  0.130483  0.000129  1.033446  0.0  0.11958  0.124988  0.000205  1.037266  0.0
H  H16  1  0.31665707  0.19702829  0.19615947  1  0.119732  8.7e-05  0.978559  0.0  0.127405  0.000168  1.035402  0.0  0.130521  0.000128  1.033346  0.0  0.119641  0.12502  0.000205  1.037175  0.0
H  H17  1  0.51418356  0.88677282  0.66284495  1  0.122868  7.1e-05  0.963603  0.0  0.132069  0.000223  1.023663  0.0  0.13519  0.000169  1.021534  0.0  0.121068  0.129828  0.000263  1.025286  0.0
H  H18  1  0.48582625  0.11322731  0.33715034  1  0.123019  6.9e-05  0.963481  0.0  0.132125  0.000243  1.023646  0.0  0.135239  0.00018  1.021515  0.0  0.121134  0.129889  0.0003  1.02526  0.0
H  H19  1  0.34416387  0.35315166  0.56672686  1  0.095331  0.000242  0.934329  0.001  0.106171  5.8e-05  0.993828  0.0  0.108856  4.2e-05  0.989926  0.0  0.13756  0.104061  6.8e-05  0.996885  0.0
H  H20  1  0.65583279  0.64684477  0.43328207  1  0.0953  -0.000263  0.934347  -0.001  0.106134  -5.8e-05  0.993861  0.0  0.108819  -4.2e-05  0.989958  0.0  0.137569  0.104024  -6.8e-05  0.99692  0.0
H  H21  1  0.24017178  0.96333229  0.46702528  1  0.128049  0.000293  0.940378  0.0  0.139227  0.00035  0.997251  0.0  0.142256  0.000269  0.995515  0.0  0.127537  0.137017  0.000423  0.998643  0.0
H  H22  1  0.75983205  0.03666129  0.53297566  1  0.127964  -0.00029  0.940464  0.0  0.13915  -0.00035  0.997338  0.0  0.142178  -0.00027  0.9956  0.0  0.127483  0.13694  -0.000422  0.99873  0.0
H  H23  1  0.00481484  0.00151160  0.38064069  1  0.117135  0.000231  0.955911  0.001  0.123163  0.000228  1.019184  0.001  0.126291  0.000157  1.016817  0.0  0.123463  0.120747  0.000293  1.021178  0.001
H  H24  1  0.99518471  0.99848294  0.61936553  1  0.117168  -0.000249  0.955844  -0.001  0.123225  -0.000238  1.019089  -0.001  0.126354  -0.000165  1.016721  0.0  0.123491  0.120801  -0.000304  1.021094  -0.001
H  H25  1  0.72699372  0.48582338  0.52728024  1  0.09628  -0.000122  0.924706  -0.001  0.10824  0.000128  0.98196  0.0  0.110964  8.2e-05  0.977682  0.0  0.141094  0.106032  0.000187  0.985455  0.0
H  H26  1  0.27300703  0.51417772  0.47272927  1  0.096265  0.000112  0.924778  0.001  0.108259  -0.000131  0.981994  0.0  0.110982  -8.4e-05  0.977717  0.0  0.141087  0.10605  -0.000191  0.985488  0.0
H  H27  1  0.97987192  0.49143423  0.86316492  1  0.111047  -0.00029  0.94929  0.0  0.12462  -0.00031  1.003775  0.0  0.126769  -0.000226  1.003702  0.0  0.124093  0.123045  -0.000387  1.003998  0.0
H  H28  1  0.02013440  0.50857059  0.13684063  1  0.111179  0.000274  0.949206  0.0  0.124688  0.000327  1.003754  0.0  0.126819  0.000234  1.003702  0.0  0.124125  0.123114  0.000421  1.003976  0.0
H  H29  1  0.11681361  0.69933621  0.81786217  1  0.105692  -0.000229  0.957518  -0.001  0.114089  -0.000245  1.018348  -0.001  0.116651  -0.000179  1.016141  0.0  0.121205  0.112011  -0.000305  1.020445  -0.001
H  H30  1  0.88318939  0.30066957  0.18214498  1  0.105743  0.000344  0.957574  0.001  0.11415  0.000336  1.018373  0.001  0.116713  0.000237  1.016164  0.0  0.121214  0.112052  0.000437  1.020492  0.001
H  H31  1  0.36289686  0.51426373  0.14945044  1  0.099027  6.4e-05  0.955663  0.0  0.104359  -4e-06  1.027122  0.0  0.108209  -1e-06  1.0242  0.0  0.09788  0.101629  -1.8e-05  1.029275  0.0
H  H32  1  0.63710647  0.48573268  0.85054694  1  0.099014  -4.7e-05  0.955702  0.0  0.104372  -7e-06  1.027128  0.0  0.10822  -3e-06  1.024205  0.0  0.097884  0.101642  -2e-05  1.02928  0.0
H  H33  1  0.07474724  0.22407929  0.80954175  1  0.107161  0.000119  0.95883  0.0  0.112495  0.000123  1.030231  0.0  0.117146  8.3e-05  1.02578  0.0  0.105671  0.109136  0.000171  1.033345  0.0
H  H34  1  0.92525223  0.77592090  0.19045765  1  0.107189  -0.000375  0.958698  0.0  0.112527  -0.000288  1.030093  0.0  0.117175  -0.00017  1.025653  0.0  0.105666  0.109168  -0.000428  1.033206  0.0
H  H35  1  0.30252114  0.59137609  0.82052290  1  0.108578  0.000322  0.94205  0.0  0.117689  0.000303  1.004191  0.0  0.122069  0.000198  1.000667  0.0  0.10606  0.114464  0.000415  1.006801  0.0
H  H36  1  0.69747749  0.40862035  0.17947628  1  0.108599  -0.000342  0.942076  0.0  0.117703  -0.000304  1.004218  0.0  0.122082  -0.000197  1.000694  0.0  0.106057  0.114478  -0.000424  1.006828  0.0
H  H37  1  0.60601612  0.65390913  0.16518424  1  0.088407  2.6e-05  0.974665  0.0  0.098461  3.1e-05  1.039126  0.0  0.100403  2.2e-05  1.040137  0.0  0.095115  0.09704  3.6e-05  1.038581  0.0
H  H38  1  0.39398980  0.34609288  0.83482062  1  0.088408  -4e-06  0.974717  0.0  0.098479  -3.1e-05  1.039163  0.0  0.100421  -2.1e-05  1.040176  0.0  0.095129  0.097057  -4.6e-05  1.038618  0.0
H  H39  1  0.31402032  0.77690814  0.97076106  1  0.090778  2e-05  0.958809  0.0  0.10326  1.6e-05  1.018574  0.0  0.106007  5e-06  1.017307  0.0  0.099769  0.101292  2.8e-05  1.019596  0.0
H  H40  1  0.68597184  0.22308458  0.02923942  1  0.090755  -3.8e-05  0.958814  0.0  0.103192  -2.8e-05  1.018645  0.0  0.105938  -1.5e-05  1.017378  0.0  0.09974  0.101226  -3.9e-05  1.019664  0.0
H  H41  1  0.77926486  0.87525583  0.27496962  1  0.095897  0.000123  0.949156  0.0  0.106139  8.4e-05  1.012612  0.0  0.109155  5.4e-05  1.0107  0.0  0.102617  0.103936  0.000109  1.014081  0.0
H  H42  1  0.22073611  0.12474342  0.72502288  1  0.095867  -0.000134  0.949207  0.0  0.106078  -9.1e-05  1.012677  0.0  0.109106  -5.8e-05  1.010752  0.0  0.102631  0.103873  -0.000119  1.014157  0.0
H  H43  1  0.48219890  0.99800916  0.09030373  1  0.099361  2.1e-05  0.956996  0.0  0.108033  2e-06  1.020252  0.0  0.110672  2e-06  1.019546  0.0  0.104326  0.106099  6e-06  1.020889  0.0
H  H44  1  0.51779891  0.00198542  0.90968926  1  0.099345  -2.5e-05  0.957067  0.0  0.10803  -6e-06  1.020297  0.0  0.110672  -5e-06  1.019587  0.0  0.10434  0.106093  -1e-05  1.020938  0.0
H  H45  1  0.88188153  0.43255693  0.41837404  1  0.416317  0.000181  0.862806  -0.001  0.394269  0.000528  0.930175  0.0  0.40451  0.000376  0.915779  0.0  0.296184  0.386899  0.000656  0.938596  0.001
H  H46  1  0.11812805  0.56744692  0.58163546  1  0.416294  -0.000198  0.862758  0.001  0.394265  -0.000531  0.930153  0.0  0.404505  -0.000378  0.915758  0.0  0.296184  0.386895  -0.000662  0.938503  -0.001
H  H47  1  0.06746671  0.19814870  0.17183291  1  0.412624  -0.000322  0.883257  -0.001  0.382623  -1.2e-05  0.959018  0.0  0.393711  -5.1e-05  0.943059  0.0  0.288934  0.374857  3.2e-05  0.970178  0.0
H  H48  1  0.93252845  0.80185621  0.82816538  1  0.412625  -0.000294  0.883213  -0.001  0.382618  -1.4e-05  0.95902  0.0  0.393707  -4.3e-05  0.943058  0.0  0.288912  0.374846  2.3e-05  0.970191  0.0
C  C49  1  0.75881328  0.25707906  0.72025845  1  -0.240265  -0.000343  3.676512  0.0  -0.271063  -6.4e-05  3.930138  0.0  -0.277384  -0.000102  3.947308  0.0  -0.091254  -0.26737  -4.9e-05  3.919189  0.0
C  C50  1  0.24119268  0.74292107  0.27974763  1  -0.240257  7e-05  3.676658  0.0  -0.271122  0.000166  3.930217  0.0  -0.277452  4.8e-05  3.94738  0.0  -0.091256  -0.267427  0.000429  3.91926  0.0
C  C51  1  0.65786171  0.14374105  0.70502658  1  0.23075  0.000211  3.799104  0.0  0.2235  0.000304  4.047682  0.0  0.232383  0.000254  4.068539  0.0  0.108547  0.217393  0.000402  4.034041  0.001
C  C52  1  0.34213904  0.85626193  0.29497854  1  0.230534  0.000329  3.799276  0.0  0.223347  0.000424  4.047783  0.001  0.232253  0.000343  4.068614  0.0  0.108558  0.217249  0.000462  4.034127  0.001
C  C53  1  0.51775814  0.11126510  0.63972850  1  -0.239788  0.000125  3.68922  0.0  -0.272709  0.0002  3.951206  0.0  -0.279692  0.00011  3.97093  0.0  -0.092673  -0.268506  0.000249  3.938815  0.0
C  C54  1  0.48224366  0.88873412  0.36027457  1  -0.239711  -0.000527  3.689403  -0.001  -0.272704  -0.000272  3.95142  0.0  -0.279701  -0.000196  3.971142  0.0  -0.092685  -0.268494  -0.000285  3.939024  0.0
C  C55  1  0.47932196  0.19552402  0.59257635  1  0.223348  0.000721  3.813258  0.001  0.214255  0.000512  4.066414  0.001  0.222779  0.000417  4.088183  0.001  0.104995  0.208547  0.00062  4.051985  0.001
C  C56  1  0.52067515  0.80447523  0.40742694  1  0.223309  -0.000417  3.813479  -0.001  0.214232  -0.000318  4.066596  0.0  0.222758  -0.000263  4.08836  0.0  0.104937  0.208512  -0.000336  4.052191  0.0
C  C57  1  0.57856095  0.31060998  0.60923006  1  -0.253058  -0.000307  3.703113  0.0  -0.283984  -0.00011  3.960412  0.0  -0.291322  -8.3e-05  3.979162  0.0  -0.095004  -0.279648  -0.000134  3.948529  0.0
C  C58  1  0.42144039  0.68938831  0.39077427  1  -0.252911  -0.000184  3.702935  0.0  -0.283876  -7.8e-05  3.960199  0.0  -0.291216  -9.9e-05  3.97895  0.0  -0.094923  -0.279532  -0.000142  3.948315  0.0
C  C59  1  0.71789408  0.34041320  0.67384720  1  0.242723  -0.000554  3.795049  -0.001  0.236043  -0.000467  4.039845  -0.001  0.245163  -0.00038  4.059932  -0.001  0.11118  0.229783  -0.000441  4.026779  -0.001
C  C60  1  0.28210897  0.65959070  0.32615958  1  0.242761  0.000825  3.795115  0.001  0.236113  0.000536  4.039854  0.001  0.245239  0.00046  4.059938  0.001  0.111125  0.229855  0.00056  4.026785  0.001
C  C61  1  0.82548603  0.09413920  0.84699144  1  0.172028  -0.00358  3.61603  -0.004  0.116603  -0.000416  3.88391  -0.001  0.132939  -0.000893  3.896061  -0.001  0.145902  0.105084  -4.8e-05  3.876451  0.0
C  C62  1  0.17451173  0.90586754  0.15302231  1  0.171928  -0.00362  3.616143  -0.004  0.116457  -0.00041  3.88408  -0.001  0.132789  -0.000891  3.896235  -0.001  0.145806  0.104939  -5.6e-05  3.876617  0.0
C  C63  1  0.70407953  0.89584054  0.80061309  1  0.013928  -0.001101  3.691153  -0.001  -0.014167  0.000556  3.955146  0.0  -0.01112  0.000203  3.974601  0.0  0.005471  -0.016409  0.000835  3.942371  0.001
C  C64  1  0.29592533  0.10416523  0.19939540  1  0.013982  -0.001193  3.690945  -0.001  -0.014115  0.000533  3.954933  0.0  -0.011078  0.000181  3.974385  0.0  0.005458  -0.016359  0.000805  3.942163  0.001
C  C65  1  0.62095495  0.93550930  0.72782784  1  -0.057343  0.002363  3.668721  0.003  -0.101911  0.001096  3.936678  0.001  -0.100478  0.001034  3.954042  0.001  -0.002152  -0.102617  0.00122  3.924798  0.001
C  C66  1  0.37905394  0.06448895  0.27217077  1  -0.057599  0.002442  3.668706  0.003  -0.102081  0.001108  3.93672  0.001  -0.100636  0.001042  3.954074  0.001  -0.002247  -0.10279  0.001235  3.924842  0.001
C  C67  1  0.28343196  0.25312117  0.52332081  1  0.162373  -0.010911  3.635359  -0.012  0.106587  -0.002756  3.905621  -0.003  0.122103  -0.00286  3.918216  -0.003  0.142805  0.096171  -0.002969  3.897197  -0.003
C  C68  1  0.71656202  0.74686964  0.47668857  1  0.16268  0.010996  3.635269  0.012  0.106861  0.002811  3.905495  0.003  0.122381  0.002903  3.91809  0.003  0.14289  0.096442  0.003  3.897076  0.003
C  C69  1  0.22757956  0.04935601  0.47384354  1  -0.045696  0.006546  3.632675  0.007  -0.089643  0.002146  3.897184  0.002  -0.08744  0.001945  3.913792  0.002  0.007056  -0.091216  0.002451  3.886514  0.003
C  C70  1  0.77241958  0.95063760  0.52615840  1  -0.04553  -0.006754  3.632566  -0.007  -0.089488  -0.00215  3.897074  -0.002  -0.087281  -0.001957  3.913675  -0.002  0.007147  -0.091061  -0.002442  3.886403  -0.003
C  C71  1  0.11116491  0.06925585  0.43103969  1  0.0283  -0.003193  3.68609  -0.004  -0.001033  0.000165  3.957527  0.0  0.002585  -0.000323  3.975517  -0.001  0.011508  -0.004009  0.000547  3.946292  0.0
C  C72  1  0.88883561  0.93073681  0.56896723  1  0.028437  0.003187  3.685964  0.004  -0.000963  -0.000174  3.957387  0.0  0.002656  0.000319  3.975373  0.001  0.011556  -0.003935  -0.000544  3.946162  0.0
C  C73  1  0.81247706  0.52003496  0.61443736  1  0.202375  0.010134  3.615556  0.011  0.141981  0.00231  3.894942  0.003  0.160513  0.002468  3.90276  0.003  0.152935  0.129055  0.002511  3.890167  0.003
C  C74  1  0.18752823  0.47997173  0.38557224  1  0.20243  -0.01055  3.615565  -0.011  0.142017  -0.002394  3.894942  -0.003  0.160548  -0.002536  3.902764  -0.003  0.152955  0.129094  -0.002554  3.890159  -0.003
C  C75  1  0.94941017  0.52122462  0.78743108  1  -0.043238  -0.005448  3.654212  -0.006  -0.084649  -0.001417  3.912134  -0.002  -0.082862  -0.001409  3.929537  -0.002  0.006037  -0.08592  -0.00146  3.900854  -0.002
C  C76  1  0.05059933  0.47878488  0.21257239  1  -0.043218  0.006117  3.654104  0.007  -0.084607  0.001834  3.912019  0.002  -0.082807  0.001657  3.929435  0.002  0.006008  -0.085876  0.002123  3.900735  0.002
C  C77  1  0.01561546  0.62328290  0.76415965  1  0.026064  0.00414  3.725301  0.005  -0.004041  0.000596  3.999708  0.001  0.000304  0.000935  4.017506  0.001  0.008236  -0.007567  0.00033  3.98867  0.001
C  C78  1  0.98438807  0.37672194  0.23584349  1  0.025957  -0.003972  3.72535  -0.005  -0.004142  -0.000529  3.999732  -0.001  0.000197  -0.000896  4.017543  -0.002  0.008264  -0.007648  -0.000221  3.988696  -0.001
C  C79  1  0.17774390  0.26916436  0.04779826  1  0.625186  0.000499  3.913581  0.003  0.586797  -0.001564  4.201979  -0.001  0.623168  -0.001083  4.19557  -0.001  0.202701  0.56148  -0.002098  4.20525  -0.001
C  C80  1  0.82225705  0.73083300  0.95220021  1  0.625249  0.000521  3.913373  0.003  0.586851  -0.001614  4.2018  -0.001  0.623218  -0.001108  4.19539  -0.001  0.202758  0.561536  -0.002166  4.205069  -0.001
C  C81  1  0.21510873  0.36050759  0.98602387  1  -0.056548  -0.005529  3.768647  -0.006  -0.032587  -0.002714  4.002901  -0.003  -0.040968  -0.001883  4.025332  -0.002  -0.020142  -0.027267  -0.00347  3.988208  -0.004
C  C82  1  0.78489361  0.63949070  0.01397440  1  -0.056417  -0.008288  3.768641  -0.01  -0.032498  -0.003215  4.002956  -0.004  -0.040874  -0.002326  4.025375  -0.003  -0.020153  -0.027179  -0.004135  3.988264  -0.005
C  C83  1  0.31322270  0.48416078  0.05170828  1  -0.098744  -0.002327  3.679993  -0.002  -0.13213  -0.001196  3.930145  -0.001  -0.130974  -0.000821  3.948408  -0.001  -0.080469  -0.132779  -0.001679  3.917764  -0.002
C  C84  1  0.68678021  0.51583282  0.94829159  1  -0.098863  0.001865  3.680086  0.002  -0.132249  -0.000186  3.930247  0.0  -0.131092  -6e-06  3.948504  0.0  -0.080478  -0.132898  -0.000364  3.91786  0.0
C  C85  1  0.14816541  0.32115905  0.86089488  1  -0.094654  -0.000673  3.7351  -0.001  -0.131752  0.000108  3.987882  0.0  -0.128985  2.2e-05  4.004348  0.0  -0.084919  -0.133506  0.000108  3.977176  0.0
C  C86  1  0.85183468  0.67883644  0.13910136  1  -0.094741  0.001982  3.735084  0.002  -0.131835  -0.000293  3.987843  0.0  -0.129083  -8.7e-05  4.0043  0.0  -0.084923  -0.133585  -0.000549  3.977137  0.0
C  C87  1  0.17853396  0.40434760  0.80149352  1  -0.077779  0.003588  3.824441  0.004  -0.050728  0.001887  4.058616  0.002  -0.058207  0.001289  4.079655  0.001  -0.026738  -0.046241  0.002456  4.045158  0.002
C  C88  1  0.82146512  0.59564977  0.19850519  1  -0.077827  -0.004271  3.824421  -0.005  -0.050684  -0.001863  4.058508  -0.002  -0.058133  -0.001264  4.079502  -0.001  -0.026727  -0.046208  -0.002564  4.045066  -0.002
C  C89  1  0.34544972  0.56891112  0.99325025  1  0.045633  0.000558  3.791106  0.001  0.062882  1.6e-05  4.027871  0.0  0.060464  6.7e-05  4.052461  0.0  -0.008192  0.064486  4.7e-05  4.011006  0.0
C  C90  1  0.65455219  0.43108435  0.00675050  1  0.045728  -0.002104  3.791191  -0.003  0.062983  -0.000378  4.027936  -0.001  0.060565  -0.000319  4.052526  0.0  -0.008166  0.064587  -0.000508  4.011069  -0.001
C  C91  1  0.27743695  0.52767738  0.86770335  1  -0.108827  -0.000845  3.694901  -0.001  -0.142136  0.000222  3.94338  0.0  -0.141129  0.000106  3.960648  0.0  -0.080332  -0.142668  5.8e-05  3.931814  0.0
C  C92  1  0.72256447  0.47231904  0.13229745  1  -0.108913  0.001503  3.695029  0.002  -0.142235  -0.000489  3.943472  0.0  -0.141234  -0.000214  3.960726  0.0  -0.080365  -0.142767  -0.000835  3.93191  -0.001
C  C93  1  0.10906835  0.35925632  0.66795608  1  0.61737  -0.006832  3.891634  -0.012  0.573003  -0.001111  4.192567  -0.004  0.608588  -0.001066  4.191343  -0.004  0.193597  0.547961  -0.001136  4.192134  -0.005
C  C94  1  0.89092037  0.64074299  0.33204473  1  0.617418  0.006747  3.891494  0.012  0.572965  0.00112  4.192502  0.004  0.608545  0.001088  4.191269  0.004  0.193595  0.547924  0.001107  4.192085  0.005
C  C95  1  0.44806048  0.70018176  0.06106685  1  0.058691  -0.000929  3.786418  -0.001  0.075201  -0.000147  4.013724  0.0  0.076488  -0.000117  4.038507  0.0  -0.006086  0.074504  -0.000203  3.996627  0.0
C  C96  1  0.55193725  0.29981280  0.93893328  1  0.058684  0.001017  3.786396  0.001  0.075181  2.7e-05  4.013713  0.0  0.076465  5.4e-05  4.038495  0.0  -0.006104  0.074486  4.8e-05  3.996615  0.0
C  C97  1  0.57935745  0.72945857  0.14802311  1  -0.116393  0.00064  3.731536  0.001  -0.135655  -6e-06  3.981036  0.0  -0.140315  2.7e-05  4.003519  0.0  -0.094382  -0.132453  4.3e-05  3.965742  0.0
C  C98  1  0.42063845  0.27053601  0.85197329  1  -0.116521  -0.001161  3.731725  -0.001  -0.135804  -0.00017  3.981225  0.0  -0.140468  -0.000133  4.003715  0.0  -0.094462  -0.132602  -0.000172  3.96593  0.0
C  C99  1  0.41574291  0.79816921  0.03784818  1  -0.113383  0.001073  3.735917  0.001  -0.132543  0.000214  3.984482  0.0  -0.136511  0.000156  4.005155  0.0  -0.091686  -0.129826  0.000256  3.970261  0.0
C  C100  1  0.58424834  0.20182164  0.96215404  1  -0.113428  -0.001365  3.73625  -0.002  -0.132562  -0.000231  3.984846  0.0  -0.136527  -0.000173  4.005515  0.0  -0.0917  -0.129843  -0.000407  3.970615  0.0
C  C101  1  0.67667649  0.85326185  0.20901531  1  -0.052111  -0.001034  3.725149  -0.001  -0.078657  -8.4e-05  3.978421  0.0  -0.076474  -9.2e-05  3.996614  0.0  -0.083826  -0.08006  -0.00011  3.966224  0.0
C  C102  1  0.32332022  0.14673836  0.79097931  1  -0.051805  0.001263  3.725202  0.002  -0.078297  9e-05  3.978428  0.0  -0.07612  0.000102  3.996617  0.0  -0.083676  -0.079703  0.000116  3.96623  0.0
C  C103  1  0.50996756  0.92190659  0.10326107  1  -0.062776  -0.000428  3.746768  0.0  -0.08827  0.000318  3.998377  0.0  -0.086985  0.000199  4.017939  0.0  -0.085807  -0.088916  0.000444  3.985038  0.001
C  C104  1  0.49002511  0.07808708  0.89673261  1  -0.062691  0.000654  3.747021  0.001  -0.088177  -0.0003  3.998577  0.0  -0.086893  -0.000179  4.018141  0.0  -0.085794  -0.08882  -0.000436  3.985236  -0.001
C  C105  1  0.64162409  0.95065971  0.18916889  1  -0.075542  0.005868  3.76043  0.007  -0.050721  0.002836  3.990854  0.004  -0.059285  0.002006  4.012363  0.003  -0.021503  -0.045087  0.003653  3.976474  0.005
C  C106  1  0.35836946  0.04933771  0.81082183  1  -0.075655  -0.006157  3.760457  -0.007  -0.050862  -0.002851  3.990937  -0.004  -0.059426  -0.002015  4.012448  -0.003  -0.021522  -0.045227  -0.003742  3.976556  -0.005
C  C107  1  0.73609343  0.08464881  0.26541816  1  0.643968  -0.002764  3.885301  -0.005  0.597709  -8.2e-05  4.182708  -0.001  0.634387  -7.9e-05  4.174924  -0.001  0.211837  0.572244  -0.000205  4.187128  -0.002
C  C108  1  0.26390676  0.91535235  0.73455541  1  0.643984  0.002894  3.885568  0.005  0.597697  0.000252  4.183004  0.002  0.634377  0.000184  4.175205  0.001  0.211688  0.572228  0.000425  4.187431  0.002
N  N109  1  0.83142082  0.99561868  0.87421835  1  -0.295494  0.016229  3.279823  0.021  -0.261755  0.024202  3.581977  0.032  -0.291165  0.020567  3.600856  0.027  -0.337399  -0.241974  0.027489  3.569993  0.035
N  N110  1  0.16857917  0.00439085  0.12580060  1  -0.295526  0.016253  3.279767  0.021  -0.261778  0.024194  3.581918  0.032  -0.291185  0.020563  3.600806  0.027  -0.337388  -0.241996  0.027463  3.569931  0.035
N  N111  1  0.69893992  0.06204932  0.75707656  1  -0.110879  0.0004  3.613269  0.001  -0.022095  0.000759  3.825413  0.001  -0.038436  0.000554  3.851066  0.001  -0.228732  -0.011049  0.000951  3.808051  0.001
N  N112  1  0.30106327  0.93795084  0.24292552  1  -0.110623  0.000439  3.613263  0.001  -0.02186  0.000753  3.825376  0.001  -0.038202  0.000555  3.851014  0.001  -0.228651  -0.010817  0.000948  3.808015  0.001
N  N113  1  0.14733975  0.19653634  0.46279636  1  -0.325017  0.055615  3.302307  0.078  -0.28926  0.037372  3.606168  0.053  -0.31742  0.030663  3.624693  0.045  -0.341435  -0.269869  0.042689  3.594282  0.059
N  N114  1  0.85265696  0.80345633  0.53721580  1  -0.325398  -0.05635  3.302447  -0.078  -0.289529  -0.037298  3.606229  -0.053  -0.317704  -0.030568  3.624766  -0.045  -0.341595  -0.270144  -0.042655  3.594339  -0.059
N  N115  1  0.33761914  0.16705689  0.53192695  1  -0.105909  0.001006  3.615418  0.002  -0.016131  0.000743  3.826549  0.001  -0.032105  0.000532  3.852497  0.001  -0.226603  -0.005578  0.000891  3.808992  0.001
N  N116  1  0.66237637  0.83293300  0.46807236  1  -0.106141  -0.001045  3.615502  -0.002  -0.016362  -0.000741  3.826635  -0.001  -0.032335  -0.000528  3.852579  -0.001  -0.226633  -0.005805  -0.000882  3.80908  -0.001
N  N117  1  0.92933731  0.62130257  0.65614495  1  -0.347462  -0.05831  3.34048  -0.081  -0.314305  -0.038076  3.655986  -0.054  -0.344306  -0.030891  3.67255  -0.045  -0.358064  -0.293737  -0.043682  3.64566  -0.061
N  N118  1  0.07066801  0.37870413  0.34386149  1  -0.347428  0.058129  3.34045  0.082  -0.314313  0.038384  3.655989  0.054  -0.344304  0.031172  3.672538  0.045  -0.358094  -0.293734  0.043952  3.645652  0.061
N  N119  1  0.81996086  0.45575702  0.69155081  1  -0.088744  -0.001526  3.591056  -0.002  -0.001348  -0.000966  3.80325  -0.001  -0.016123  -0.000758  3.825427  -0.001  -0.223474  0.008441  -0.001147  3.788437  -0.002
N  N120  1  0.18004494  0.54424874  0.30845716  1  -0.08886  0.001801  3.59122  0.003  -0.00145  0.001163  3.803364  0.002  -0.016226  0.000877  3.825537  0.001  -0.223447  0.008336  0.001452  3.788555  0.002
O  O121  1  0.11447212  0.15412657  0.97777333  1  -0.598613  -0.062741  2.08269  -0.088  -0.567554  -0.034019  2.345773  -0.05  -0.608861  -0.026706  2.338699  -0.04  -0.312879  -0.536446  -0.040157  2.348887  -0.057
O  O122  1  0.88553581  0.84587168  0.02222659  1  -0.598673  -0.062871  2.082625  -0.088  -0.567622  -0.034004  2.345744  -0.05  -0.60893  -0.026707  2.338667  -0.04  -0.312919  -0.536516  -0.040135  2.348866  -0.057
O  O123  1  0.20752096  0.31093825  0.15859610  1  -0.629796  0.000157  1.952879  0.0  -0.586069  -0.000448  2.171423  -0.001  -0.610504  -9.3e-05  2.163484  0.0  -0.329729  -0.568529  -0.00091  2.176281  -0.001
O  O124  1  0.79247385  0.68906196  0.84140192  1  -0.629757  2.7e-05  1.952857  0.0  -0.58602  -0.000406  2.171417  -0.001  -0.610452  -4.8e-05  2.163477  0.0  -0.329718  -0.568477  -0.000881  2.176273  -0.001
O  O125  1  0.00782984  0.25236472  0.60932881  1  -0.565395  0.05116  1.921107  0.074  -0.539136  0.033025  2.166205  0.05  -0.576408  0.02407  2.162418  0.037  -0.307983  -0.510696  0.041893  2.166978  0.061
O  O126  1  0.99215205  0.74764400  0.39067667  1  -0.565422  -0.05183  1.920935  -0.074  -0.539156  -0.032973  2.166121  -0.05  -0.576434  -0.024007  2.162338  -0.037  -0.308048  -0.510721  -0.041935  2.166894  -0.061
O  O127  1  0.15643036  0.42803536  0.61245771  1  -0.621207  0.065649  1.998743  0.095  -0.590409  0.041987  2.252412  0.064  -0.630989  0.031038  2.246747  0.048  -0.319591  -0.559617  0.051994  2.254607  0.076
O  O128  1  0.84356349  0.57196486  0.38754242  1  -0.621242  -0.066408  1.998855  -0.095  -0.590377  -0.041891  2.252528  -0.063  -0.630967  -0.030936  2.246875  -0.048  -0.319564  -0.559593  -0.051961  2.254732  -0.076
O  O129  1  0.67967044  0.15823103  0.28253057  1  -0.612831  -0.001215  1.959723  -0.001  -0.559213  -0.000717  2.170297  -0.001  -0.58327  -0.000768  2.159777  -0.001  -0.317451  -0.542272  -0.000537  2.177178  0.0
O  O130  1  0.32032981  0.84178146  0.71740875  1  -0.612786  0.001258  1.960103  0.001  -0.559146  0.000738  2.170689  0.001  -0.583203  0.000784  2.160159  0.001  -0.317346  -0.542205  0.000737  2.177576  0.001
O  O131  1  0.86685881  0.11546244  0.31115407  1  -0.624415  0.051329  2.10756  0.076  -0.587981  0.032959  2.378562  0.05  -0.626017  0.025275  2.366226  0.039  -0.310854  -0.559739  0.040105  2.386163  0.06
O  O132  1  0.13313718  0.88453027  0.68883801  1  -0.624536  -0.051212  2.107707  -0.075  -0.588063  -0.032531  2.378715  -0.05  -0.626123  -0.024943  2.366403  -0.039  -0.310822  -0.559824  -0.039684  2.386306  -0.059
O  O133  1  0.97606541  0.12538950  0.13567747  1  -0.806643  0.034065  1.93484  0.048  -0.782905  0.013144  2.140498  0.019  -0.809247  0.010284  2.106657  0.015  -0.577576  -0.763538  0.015257  2.164353  0.022
O  O134  1  0.02393238  0.87461912  0.86432952  1  -0.806673  0.034285  1.934622  0.048  -0.782933  0.013322  2.140419  0.019  -0.809274  0.010484  2.106566  0.015  -0.577567  -0.763556  0.015399  2.1643  0.022
O  O135  1  0.87314716  0.36066383  0.44518827  1  -0.79696  0.048524  1.940243  0.069  -0.768535  0.034597  2.146793  0.05  -0.80061  0.026955  2.114794  0.04  -0.577323  -0.744187  0.0414  2.167132  0.058
O  O136  1  0.12684383  0.63932423  0.55479979  1  -0.796862  -0.049097  1.940218  -0.069  -0.768408  -0.034539  2.146849  -0.05  -0.800505  -0.026873  2.11488  -0.04  -0.577289  -0.744064  -0.041411  2.167114  -0.058
