# generated using pymatgen
data_BaH8C9SN4O7
_symmetry_space_group_name_H-M   'P 1'
_cell_length_a   6.80934166
_cell_length_b   7.31072070
_cell_length_c   14.92663865
_cell_angle_alpha   86.26356071
_cell_angle_beta   87.33559449
_cell_angle_gamma   63.91172616
_symmetry_Int_Tables_number   1
_chemical_formula_structural   BaH8C9SN4O7
_chemical_formula_sum   'Ba2 H16 C18 S2 N8 O14'
_cell_volume   665.81022728
_cell_formula_units_Z   2
loop_
 _symmetry_equiv_pos_site_id
 _symmetry_equiv_pos_as_xyz
  1  'x, y, z'
loop_
 _atom_site_type_symbol
 _atom_site_label
 _atom_site_symmetry_multiplicity
 _atom_site_fract_x
 _atom_site_fract_y
 _atom_site_fract_z
 _atom_site_occupancy
 _atom_site_hle17_bader_spin_density
 _atom_site_hle17_ddec_charge
 _atom_site_hle17_ddec_spin_density
 _atom_site_hle17_ddec_sum_bond_order
 _atom_site_hle17_magmom
 _atom_site_hse06_10hf_bader_spin_density
 _atom_site_hse06_10hf_ddec_charge
 _atom_site_hse06_10hf_ddec_spin_density
 _atom_site_hse06_10hf_ddec_sum_bond_order
 _atom_site_hse06_10hf_magmom
 _atom_site_hse06_bader_spin_density
 _atom_site_hse06_ddec_charge
 _atom_site_hse06_ddec_spin_density
 _atom_site_hse06_ddec_sum_bond_order
 _atom_site_hse06_magmom
 _atom_site_pbe_bader_spin_density
 _atom_site_pbe_cm5_charge
 _atom_site_pbe_ddec_charge
 _atom_site_pbe_ddec_spin_density
 _atom_site_pbe_ddec_sum_bond_order
 _atom_site_pbe_magmom
Ba  Ba0  1  0.68836489  0.67984533  0.56428495  1  0  1.623966  0  1.19648  0  0  1.466807  0  1.610012  0  0  1.507839  0  1.5651  0  0  0.975067  1.436641  0  1.641923  0
Ba  Ba1  1  0.31163617  0.32014656  0.43571393  1  0  1.624009  0  1.196462  0  0  1.466877  0  1.609955  0  0  1.50791  0  1.565044  0  0  0.975067  1.436709  0  1.641865  0
H  H2  1  0.61218139  0.85502136  0.35578960  1  0  0.424587  0  0.881243  0  0  0.394374  0  0.94445  0  0  0.404695  0  0.929433  0  0  0.302895  0.38707  0  0.955057  0
H  H3  1  0.38781907  0.14497523  0.64420652  1  0  0.424604  0  0.881223  0  0  0.394353  0  0.944504  0  0  0.404675  0  0.929485  0  0  0.302846  0.387044  0  0.955118  0
H  H4  1  0.78500010  0.91861035  0.38984851  1  0  0.425895  0  0.873928  0  0  0.396646  0  0.935212  0  0  0.407746  0  0.918798  0  0  0.307674  0.38871  0  0.946931  0
H  H5  1  0.21500251  0.08138476  0.61014626  1  0  0.425865  0  0.873949  0  0  0.396605  0  0.935252  0  0  0.407707  0  0.918836  0  0  0.30768  0.388669  0  0.946971  0
H  H6  1  0.60598900  0.84118607  0.95192937  1  0  0.127665  0  0.952417  0  0  0.132026  0  1.022593  0  0  0.136823  0  1.019134  0  0  0.114453  0.128544  0  1.025323  0
H  H7  1  0.39401188  0.15881913  0.04807395  1  0  0.127643  0  0.952448  0  0  0.132015  0  1.022624  0  0  0.136807  0  1.019173  0  0  0.114467  0.128533  0  1.025357  0
H  H8  1  0.50668725  0.78822538  0.79710615  1  0  0.092109  0  0.92523  0  0  0.100331  0  0.98695  0  0  0.103502  0  0.983373  0  0  0.129168  0.097872  0  0.989751  0
H  H9  1  0.49330550  0.21178162  0.20289527  1  0  0.092196  0  0.925207  0  0  0.100389  0  0.986939  0  0  0.103579  0  0.983337  0  0  0.129199  0.097897  0  0.989784  0
H  H10  1  0.35677400  0.66294051  0.95317458  1  0  0.103002  0  0.974776  0  0  0.109906  0  1.043698  0  0  0.113007  0  1.04247  0  0  0.105013  0.107677  0  1.04469  0
H  H11  1  0.64322844  0.33704829  0.04682499  1  0  0.102982  0  0.974893  0  0  0.109895  0  1.043782  0  0  0.11299  0  1.042551  0  0  0.105034  0.107662  0  1.044785  0
H  H12  1  0.48643050  0.69687285  0.10535190  1  0  0.106794  0  0.941641  0  0  0.11182  0  1.010144  0  0  0.115574  0  1.006913  0  0  0.106872  0.109057  0  1.012585  0
H  H13  1  0.51355857  0.30313585  0.89464754  1  0  0.106688  0  0.941435  0  0  0.111691  0  1.010036  0  0  0.115448  0  1.006803  0  0  0.106812  0.108925  0  1.012476  0
H  H14  1  0.21154480  0.80503480  0.23194984  1  0  0.11177  0  0.958232  0  0  0.11831  0  1.021902  0  0  0.12155  0  1.020903  0  0  0.10832  0.115943  0  1.02274  0
H  H15  1  0.78845420  0.19498125  0.76804928  1  0  0.11183  0  0.958172  0  0  0.118391  0  1.021853  0  0  0.121631  0  1.020853  0  0  0.10833  0.116023  0  1.022688  0
H  H16  1  0.82530268  0.87576597  0.20373330  1  0  0.074824  0  0.941474  0  0  0.083441  0  1.005229  0  0  0.086281  0  1.00269  0  0  0.111286  0.081305  0  1.007229  0
H  H17  1  0.17468744  0.12425011  0.79626866  1  0  0.07488  0  0.941584  0  0  0.083514  0  1.005308  0  0  0.086355  0  1.002768  0  0  0.111321  0.081376  0  1.007304  0
C  C18  1  0.02970578  0.64012482  0.76848286  1  0  0.224274  0  3.760969  0  0  0.21521  0  4.033216  0  0  0.224275  0  4.04734  0  0  0.254999  0.209056  0  4.023985  0
C  C19  1  0.97029930  0.35987441  0.23151781  1  0  0.224261  0  3.761343  0  0  0.215165  0  4.033633  0  0  0.224232  0  4.047762  0  0  0.255036  0.209017  0  4.024387  0
C  C20  1  0.94909283  0.73067431  0.91360372  1  0  0.23765  0  3.721405  0  0  0.23281  0  3.966116  0  0  0.243419  0  3.982633  0  0  0.1444  0.225795  0  3.954925  0
C  C21  1  0.05092264  0.26932473  0.08639610  1  0  0.237437  0  3.721262  0  0  0.232664  0  3.965915  0  0  0.243274  0  3.982433  0  0  0.144424  0.225722  0  3.954644  0
C  C22  1  0.72858834  0.78142527  0.89867608  1  0  -0.174907  0  3.645705  0  0  -0.196091  0  3.895803  0  0  -0.205105  0  3.914103  0  0  -0.069281  -0.190465  0  3.883791  0
C  C23  1  0.27140593  0.21858150  0.10132866  1  0  -0.174857  0  3.646158  0  0  -0.196068  0  3.896221  0  0  -0.205082  0  3.914538  0  0  -0.069306  -0.190459  0  3.884184  0
C  C24  1  0.67406824  0.75491316  0.81367359  1  0  0.191412  0  3.652186  0  0  0.163503  0  3.90627  0  0  0.173043  0  3.920423  0  0  0.077312  0.157426  0  3.896612  0
C  C25  1  0.32594437  0.24508896  0.18632623  1  0  0.191363  0  3.651748  0  0  0.163494  0  3.905815  0  0  0.173026  0  3.919959  0  0  0.077298  0.157432  0  3.896185  0
C  C26  1  0.02678603  0.75194321  0.00144046  1  0  0.143865  0  3.789037  0  0  0.149351  0  4.026741  0  0  0.151679  0  4.048376  0  0  0.110035  0.147829  0  4.011956  0
C  C27  1  0.97321911  0.24805931  0.99855546  1  0  0.144005  0  3.788603  0  0  0.149419  0  4.026366  0  0  0.151746  0  4.047995  0  0  0.109989  0.147856  0  4.011594  0
C  C28  1  0.24646833  0.71015985  0.01116313  1  0  -0.129562  0  3.706547  0  0  -0.15087  0  3.950284  0  0  -0.156008  0  3.972465  0  0  -0.080543  -0.147403  0  3.935205  0
C  C29  1  0.75352053  0.28984275  0.98883777  1  0  -0.129543  0  3.706768  0  0  -0.150834  0  3.95051  0  0  -0.155957  0  3.972679  0  0  -0.080553  -0.147361  0  3.935443  0
C  C30  1  0.31655971  0.72902166  0.09471351  1  0  -0.023624  0  3.724067  0  0  -0.037627  0  3.973546  0  0  -0.037207  0  3.993612  0  0  -0.071952  -0.037619  0  3.959768  0
C  C31  1  0.68345882  0.27097681  0.90529498  1  0  -0.023482  0  3.724586  0  0  -0.037444  0  3.97401  0  0  -0.037032  0  3.994084  0  0  -0.071862  -0.03743  0  3.960214  0
C  C32  1  0.16389147  0.78970528  0.16535012  1  0  -0.097854  0  3.696875  0  0  -0.113937  0  3.948465  0  0  -0.119193  0  3.970781  0  0  -0.078491  -0.110344  0  3.933203  0
C  C33  1  0.83610418  0.21029840  0.83465533  1  0  -0.097972  0  3.696963  0  0  -0.114109  0  3.948576  0  0  -0.119379  0  3.970928  0  0  -0.078568  -0.110512  0  3.933306  0
C  C34  1  0.94755450  0.82964930  0.14935270  1  0  0.124075  0  3.714935  0  0  0.09734  0  3.981069  0  0  0.10151  0  3.998823  0  0  0.041959  0.094667  0  3.968872  0
C  C35  1  0.05246191  0.17035406  0.85065038  1  0  0.123859  0  3.715095  0  0  0.097114  0  3.981252  0  0  0.10128  0  3.999004  0  0  0.041898  0.094444  0  3.96904  0
S  S36  1  0.24464827  0.52913552  0.68381374  1  0  1.293092  0  5.589624  0  0  1.187988  0  6.116043  0  0  1.237342  0  6.089175  0  0  0.553764  1.153746  0  6.13364  0
S  S37  1  0.75534781  0.47086076  0.31618916  1  0  1.293261  0  5.589647  0  0  1.188194  0  6.116051  0  0  1.237546  0  6.089185  0  0  0.553839  1.153957  0  6.133645  0
N  N38  1  0.82513989  0.68398482  0.74676900  1  0  -0.405904  0  3.130024  0  0  -0.357407  0  3.389538  0  0  -0.373464  0  3.405779  0  0  -0.350311  -0.34664  0  3.378585  0
N  N39  1  0.17484122  0.31602842  0.25323318  1  0  -0.405959  0  3.130127  0  0  -0.357452  0  3.389624  0  0  -0.373515  0  3.405874  0  0  -0.350339  -0.346676  0  3.378652  0
N  N40  1  0.10036055  0.65892355  0.84697658  1  0  -0.358876  0  3.055935  0  0  -0.332387  0  3.321035  0  0  -0.345564  0  3.334749  0  0  -0.295671  -0.323634  0  3.311943  0
N  N41  1  0.89963200  0.34107725  0.15302764  1  0  -0.358772  0  3.055467  0  0  -0.332297  0  3.320545  0  0  -0.345476  0  3.334261  0  0  -0.295644  -0.323569  0  3.311432  0
N  N42  1  0.87783315  0.81169622  0.06942704  1  0  -0.33634  0  3.048928  0  0  -0.303353  0  3.314131  0  0  -0.313692  0  3.330904  0  0  -0.314486  -0.296043  0  3.302452  0
N  N43  1  0.12215973  0.18831372  0.93057566  1  0  -0.336259  0  3.049313  0  0  -0.303215  0  3.314484  0  0  -0.31355  0  3.331257  0  0  -0.314453  -0.295906  0  3.302812  0
N  N44  1  0.19197137  0.82915411  0.42010462  1  0  0.723267  0  4.138581  0  0  0.751158  0  4.433066  0  0  0.780649  0  4.436939  0  0  0.115919  0.731321  0  4.430095  0
N  N45  1  0.80803606  0.17083029  0.57989094  1  0  0.722918  0  4.138934  0  0  0.750861  0  4.433344  0  0  0.780354  0  4.437219  0  0  0.115862  0.73103  0  4.430364  0
O  O46  1  0.13154425  0.53498650  0.60075282  1  0  -0.758248  0  2.066319  0  0  -0.697193  0  2.344218  0  0  -0.720848  0  2.330369  0  0  -0.391396  -0.680366  0  2.353333  0
O  O47  1  0.86844948  0.46500868  0.39924411  1  0  -0.758282  0  2.06659  0  0  -0.697207  0  2.344417  0  0  -0.720861  0  2.330563  0  0  -0.391395  -0.680386  0  2.353533  0
O  O48  1  0.37736179  0.31954423  0.71931466  1  0  -0.646654  0  1.95058  0  0  -0.590481  0  2.188423  0  0  -0.612439  0  2.174924  0  0  -0.315653  -0.57477  0  2.19718  0
O  O49  1  0.62263277  0.68045224  0.28068559  1  0  -0.646685  0  1.95049  0  0  -0.590587  0  2.188407  0  0  -0.612546  0  2.17491  0  0  -0.315703  -0.574865  0  2.197128  0
O  O50  1  0.36245834  0.65548503  0.67769152  1  0  -0.680231  0  1.988597  0  0  -0.629775  0  2.256906  0  0  -0.652097  0  2.241448  0  0  -0.35916  -0.613776  0  2.267037  0
O  O51  1  0.63754352  0.34450839  0.32230664  1  0  -0.680312  0  1.988537  0  0  -0.629815  0  2.256757  0  0  -0.652137  0  2.241303  0  0  -0.359191  -0.613817  0  2.266879  0
O  O52  1  0.36216913  0.69635489  0.45824457  1  0  -0.541262  0  1.886238  0  0  -0.518251  0  2.130913  0  0  -0.536781  0  2.124492  0  0  -0.234297  -0.505244  0  2.134964  0
O  O53  1  0.63782736  0.30363411  0.54175377  1  0  -0.541093  0  1.886168  0  0  -0.518126  0  2.13085  0  0  -0.536657  0  2.124422  0  0  -0.234244  -0.505125  0  2.134909  0
O  O54  1  0.06788093  0.76530087  0.38462875  1  0  -0.509491  0  1.807628  0  0  -0.487665  0  2.027333  0  0  -0.504234  0  2.018951  0  0  -0.179732  -0.476066  0  2.032993  0
O  O55  1  0.93212247  0.23469581  0.61536463  1  0  -0.509375  0  1.807654  0  0  -0.487525  0  2.027301  0  0  -0.504094  0  2.018917  0  0  -0.179696  -0.475928  0  2.032963  0
O  O56  1  0.14617853  0.01475380  0.41648177  1  0  -0.450449  0  1.784298  0  0  -0.438857  0  2.006018  0  0  -0.453373  0  2.000341  0  0  -0.166749  -0.428814  0  2.009922  0
O  O57  1  0.85383437  0.98523807  0.58351288  1  0  -0.450337  0  1.784546  0  0  -0.438765  0  2.006262  0  0  -0.453273  0  2.000577  0  0  -0.166777  -0.428719  0  2.010157  0
O  O58  1  0.63145045  0.94068236  0.40051328  1  0  -0.914862  0  1.873155  0  0  -0.857199  0  2.063954  0  0  -0.879  0  2.033266  0  0  -0.651417  -0.841548  0  2.085463  0
O  O59  1  0.36855218  0.05931266  0.59948282  1  0  -0.914855  0  1.873136  0  0  -0.857125  0  2.063876  0  0  -0.878929  0  2.033182  0  0  -0.651365  -0.84147  0  2.085388  0
