# generated using pymatgen
data_Zr3H26(C22O9)2
_symmetry_space_group_name_H-M   'P 1'
_cell_length_a   19.13195658
_cell_length_b   19.11860127
_cell_length_c   19.11839306
_cell_angle_alpha   59.75358113
_cell_angle_beta   59.97663176
_cell_angle_gamma   59.97690993
_symmetry_Int_Tables_number   1
_chemical_formula_structural   Zr3H26(C22O9)2
_chemical_formula_sum   'Zr6 H52 C88 O36'
_cell_volume   4933.83429850
_cell_formula_units_Z   2
loop_
 _symmetry_equiv_pos_site_id
 _symmetry_equiv_pos_as_xyz
  1  'x, y, z'
loop_
 _atom_site_type_symbol
 _atom_site_label
 _atom_site_symmetry_multiplicity
 _atom_site_fract_x
 _atom_site_fract_y
 _atom_site_fract_z
 _atom_site_occupancy
 _atom_site_pbe_bader_charge
 _atom_site_pbe_bader_spin_density
 _atom_site_pbe_cm5_charge
 _atom_site_pbe_ddec_charge
 _atom_site_pbe_ddec_spin_density
 _atom_site_pbe_ddec_sum_bond_order
 _atom_site_pbe_magmom
Zr  Zr0  1  0.90759252  0.40685042  0.59312286  1  2.636176  0  1.622855  2.372988  0  2.755672  0
Zr  Zr1  1  0.09245298  0.59250595  0.40747991  1  2.63236  0  1.623487  2.373595  0  2.75614  0
Zr  Zr2  1  0.09243180  0.40684915  0.59312311  1  2.638296  0  1.622876  2.373  0  2.755583  0
Zr  Zr3  1  0.90755662  0.59250554  0.40748016  1  2.632421  0  1.62347  2.373591  0  2.756278  0
Zr  Zr4  1  0.90769874  0.59204882  0.59254989  1  2.633721  0  1.626858  2.373574  0  2.759861  0
Zr  Zr5  1  0.09233179  0.40744065  0.40789189  1  2.634926  0  1.62693  2.373987  0  2.759874  0
H  H6  1  0.92725511  0.42638603  0.71910005  1  0.588376  0  0.330624  0.421836  0  0.857168  0
H  H7  1  0.92721176  0.71849400  0.42707852  1  0.592157  0  0.330829  0.422144  0  0.857448  0
H  H8  1  0.21811085  0.42702197  0.42756613  1  0.610849  0  0.331219  0.422558  0  0.857307  0
H  H9  1  0.92729648  0.42702160  0.42756656  1  0.607938  0  0.331216  0.422521  0  0.857067  0
H  H10  1  0.32022523  0.61337628  0.17743901  1  0.084321  0  0.106491  0.109819  0  0.997353  0
H  H11  1  0.45031933  0.61283900  0.05030805  1  0.01567  0  0.10132  0.098417  0  1.018432  0
H  H12  1  0.67716044  0.38886352  0.82045948  1  0.093235  0  0.106571  0.10994  0  0.99667  0
H  H13  1  0.55014033  0.38642114  0.95068151  1  0.039622  0  0.101459  0.098637  0  1.018751  0
H  H14  1  0.67801524  0.61321887  0.81957304  1  0.094326  0  0.10822  0.112488  0  0.99382  0
H  H15  1  0.55084661  0.61276063  0.94964039  1  0.027818  0  0.101483  0.098769  0  1.017691  0
H  H16  1  0.31948718  0.38909251  0.17808277  1  0.110984  0  0.108199  0.11206  0  0.994083  0
H  H17  1  0.44971454  0.38654837  0.05114381  1  0.045084  0  0.101468  0.098857  0  1.017568  0
H  H18  1  0.11344338  0.82015285  0.38906143  1  0.074593  0  0.106693  0.110119  0  0.996884  0
H  H19  1  0.11267864  0.95046323  0.38643289  1  0.065933  0  0.101435  0.098489  0  1.018205  0
H  H20  1  0.88890965  0.17714182  0.61356362  1  0.07033  0  0.106672  0.109916  0  0.997028  0
H  H21  1  0.88644988  0.05012912  0.61283434  1  0.060263  0  0.101385  0.098536  0  1.018816  0
H  H22  1  0.11327537  0.17791985  0.38925087  1  0.081517  0  0.10841  0.112494  0  0.993807  0
H  H23  1  0.11249203  0.05107610  0.38653993  1  0.067368  0  0.101519  0.098717  0  1.017567  0
H  H24  1  0.88910036  0.81942468  0.61340403  1  0.072204  0  0.108234  0.112263  0  0.993584  0
H  H25  1  0.88665646  0.94956545  0.61276180  1  0.075444  0  0.101337  0.098625  0  1.017586  0
H  H26  1  0.31955162  0.17791930  0.38924973  1  0.115013  0  0.108441  0.112532  0  0.99384  0
H  H27  1  0.44988951  0.05107483  0.38653972  1  0.045713  0  0.101498  0.098694  0  1.017576  0
H  H28  1  0.67806845  0.81942707  0.61340197  1  0.097352  0  0.108245  0.112287  0  0.99359  0
H  H29  1  0.55101388  0.94956748  0.61276168  1  0.026603  0  0.101295  0.0986  0  1.017533  0
H  H30  1  0.67733724  0.82015055  0.38906298  1  0.110882  0  0.106666  0.11008  0  0.996901  0
H  H31  1  0.55041958  0.95046129  0.38643511  1  0.03323  0  0.101443  0.098486  0  1.018215  0
H  H32  1  0.32037848  0.17714198  0.61356359  1  0.078552  0  0.106658  0.109897  0  0.99705  0
H  H33  1  0.45058248  0.05012918  0.61283549  1  0.015975  0  0.101324  0.098428  0  1.018782  0
H  H34  1  0.88918952  0.61321878  0.81957317  1  0.073848  0  0.10821  0.112492  0  0.993817  0
H  H35  1  0.88674882  0.61276002  0.94964066  1  0.07495  0  0.101501  0.098757  0  1.01776  0
H  H36  1  0.11333387  0.38909370  0.17808323  1  0.080987  0  0.10824  0.112126  0  0.994012  0
H  H37  1  0.11259079  0.38654842  0.05114358  1  0.067243  0  0.101491  0.098896  0  1.017527  0
H  H38  1  0.88895212  0.61337636  0.17743833  1  0.073669  0  0.10646  0.109795  0  0.997345  0
H  H39  1  0.88653007  0.61283940  0.05030496  1  0.06289  0  0.101342  0.098432  0  1.018556  0
H  H40  1  0.11351291  0.38886544  0.82045779  1  0.076821  0  0.106585  0.10993  0  0.996701  0
H  H41  1  0.11275469  0.38642085  0.95068020  1  0.061279  0  0.101491  0.098662  0  1.018698  0
H  H42  1  0.11205560  0.81786630  0.17971890  1  0.066096  0  0.103803  0.097459  0  1.038703  0
H  H43  1  0.89035934  0.81786514  0.17971847  1  0.086031  0  0.103788  0.097445  0  1.038703  0
H  H44  1  0.89031988  0.17880056  0.81881593  1  0.095858  0  0.103443  0.097131  0  1.037831  0
H  H45  1  0.11206056  0.17879909  0.81881554  1  0.05602  0  0.103473  0.097118  0  1.037852  0
H  H46  1  0.32002465  0.38846009  0.61397613  1  0.07205  0  0.107316  0.110975  0  0.995434  0
H  H47  1  0.45014813  0.38604203  0.61319783  1  0.062225  0  0.100687  0.09745  0  1.020325  0
H  H48  1  0.67767394  0.61356196  0.38889214  1  0.078898  0  0.107731  0.111541  0  0.995281  0
H  H49  1  0.55074058  0.61299495  0.38626780  1  0.061147  0  0.100644  0.097158  0  1.01953  0
H  H50  1  0.67753628  0.38845900  0.61397594  1  0.105739  0  0.107337  0.111024  0  0.995391  0
H  H51  1  0.55060916  0.38604081  0.61319721  1  0.058252  0  0.10071  0.097447  0  1.020323  0
H  H52  1  0.31986818  0.61356162  0.38889213  1  0.074807  0  0.107733  0.111512  0  0.995301  0
H  H53  1  0.44999346  0.61299443  0.38626755  1  0.06592  0  0.10064  0.097181  0  1.019562  0
H  H54  1  0.18518713  0.11915138  0.88072356  1  0.600032  0  0.326812  0.352108  0  0.909437  0
H  H55  1  0.18511589  0.87978931  0.12009296  1  0.596955  0  0.326343  0.351159  0  0.912071  0
H  H56  1  0.81493478  0.11914972  0.88072235  1  0.597694  0  0.326884  0.352082  0  0.909444  0
H  H57  1  0.81499788  0.87978819  0.12009129  1  0.597999  0  0.326361  0.351163  0  0.911985  0
C  C58  1  0.76292497  0.50155554  0.73323859  1  1.529175  0  0.234495  0.638169  0  4.108567  0
C  C59  1  0.00225033  0.73285926  0.50193915  1  1.548773  0  0.234668  0.638028  0  4.106176  0
C  C60  1  0.23268681  0.50243421  0.26273462  1  1.529114  0  0.234093  0.637453  0  4.107254  0
C  C61  1  0.00219204  0.26232541  0.50280755  1  1.55753  0  0.234344  0.638581  0  4.105282  0
C  C62  1  0.00198258  0.26106761  0.73496386  1  1.546988  0  0.235237  0.640362  0  4.094555  0
C  C63  1  0.76279423  0.50188129  0.50244078  1  1.558419  0  0.234545  0.63806  0  4.105494  0
C  C64  1  0.00201800  0.73413839  0.26182233  1  1.547284  0  0.234891  0.641165  0  4.09279  0
C  C65  1  0.23287946  0.50187974  0.50244225  1  1.548948  0  0.234486  0.637978  0  4.105636  0
C  C66  1  0.00227819  0.50155525  0.73323905  1  1.546915  0  0.234571  0.638286  0  4.108485  0
C  C67  1  0.23266990  0.26232298  0.50281038  1  1.53683  0  0.234345  0.638595  0  4.105241  0
C  C68  1  0.00213791  0.50243458  0.26273510  1  1.556288  0  0.23421  0.637652  0  4.107072  0
C  C69  1  0.76294660  0.73285887  0.50194047  1  1.525813  0  0.234588  0.638  0  4.106337  0
C  C70  1  0.31122425  0.50169360  0.18556801  1  0.05316  0  -0.019094  -0.044901  0  3.979575  0
C  C71  1  0.68555171  0.50123709  0.81156051  1  0.043494  0  -0.019412  -0.046591  0  3.981671  0
C  C72  1  0.34932788  0.56412918  0.14876378  1  -0.070498  0  -0.082102  -0.083978  0  3.9914  0
C  C73  1  0.42285972  0.56306400  0.07703734  1  -0.039364  0  -0.089372  -0.130902  0  3.980443  0
C  C74  1  0.64863221  0.43759773  0.84962692  1  -0.029249  0  -0.081309  -0.08201  0  3.989891  0
C  C75  1  0.57686724  0.43694614  0.92313729  1  -0.067985  0  -0.089809  -0.131891  0  3.980808  0
C  C76  1  0.64912748  0.56388659  0.84904436  1  -0.078736  0  -0.08075  -0.082429  0  3.986708  0
C  C77  1  0.57732993  0.56292815  0.92254093  1  -0.033748  0  -0.089311  -0.131382  0  3.978675  0
C  C78  1  0.34887989  0.43789856  0.14920564  1  -0.062279  0  -0.08064  -0.081702  0  3.986422  0
C  C79  1  0.42244249  0.43713104  0.07750658  1  -0.055511  0  -0.089502  -0.132353  0  3.980505  0
C  C80  1  0.46136203  0.49981492  0.03908046  1  0.067469  0  0.000103  0.075569  0  3.977078  0
C  C81  1  0.53892162  0.49971601  0.96154612  1  0.000859  0  1.1e-05  0.075589  0  3.975877  0
C  C82  1  0.00158800  0.81129128  0.50145482  1  -0.013903  0  -0.019354  -0.045695  0  3.980209  0
C  C83  1  0.00147771  0.18530886  0.50189144  1  -0.00182  0  -0.019833  -0.046809  0  3.980441  0
C  C84  1  0.06406592  0.84936592  0.43776482  1  -0.034082  0  -0.082012  -0.083925  0  3.991819  0
C  C85  1  0.06297729  0.92292488  0.43701192  1  -0.018198  0  -0.08935  -0.130669  0  3.980736  0
C  C86  1  0.93772109  0.14852255  0.56427359  1  -0.031554  0  -0.081507  -0.08229  0  3.98982  0
C  C87  1  0.93696764  0.07685355  0.56311127  1  -0.010946  0  -0.089534  -0.131762  0  3.980989  0
C  C88  1  0.06395009  0.14903733  0.43802289  1  -0.044961  0  -0.080598  -0.082093  0  3.986561  0
C  C89  1  0.06284180  0.07738789  0.43716179  1  -0.007444  0  -0.089148  -0.131229  0  3.978599  0
C  C90  1  0.93785893  0.84886789  0.56403308  1  -0.027633  0  -0.08074  -0.081872  0  3.985395  0
C  C91  1  0.93712051  0.92241524  0.56297243  1  -0.024769  0  -0.089378  -0.131659  0  3.979478  0
C  C92  1  0.99974527  0.96139975  0.49973721  1  -0.025092  0  -0.000239  0.074813  0  3.976609  0
C  C93  1  0.99966886  0.03894500  0.49982746  1  -0.100159  0  -0.000185  0.075493  0  3.974796  0
C  C94  1  0.31131869  0.18530813  0.50189033  1  0.054831  0  -0.019892  -0.046801  0  3.980307  0
C  C95  1  0.68566202  0.81129120  0.50145450  1  0.043305  0  -0.019332  -0.04574  0  3.980265  0
C  C96  1  0.34898699  0.14903499  0.43802268  1  -0.06135  0  -0.080629  -0.082183  0  3.98668  0
C  C97  1  0.42260664  0.07738828  0.43716091  1  -0.055267  0  -0.08911  -0.131141  0  3.978631  0
C  C98  1  0.64923663  0.84886941  0.56403271  1  -0.087449  0  -0.0808  -0.08193  0  3.985455  0
C  C99  1  0.57748898  0.92241540  0.56297325  1  -0.032295  0  -0.089333  -0.131621  0  3.979345  0
C  C100  1  0.64879872  0.84936519  0.43776552  1  -0.051715  0  -0.081917  -0.083778  0  3.991828  0
C  C101  1  0.57708175  0.92292317  0.43701343  1  -0.05631  0  -0.089377  -0.13072  0  3.980689  0
C  C102  1  0.34948007  0.14852124  0.56427317  1  -0.0646  0  -0.081581  -0.082377  0  3.989835  0
C  C103  1  0.42306424  0.07685562  0.56310999  1  -0.041643  0  -0.089369  -0.131474  0  3.980809  0
C  C104  1  0.46155726  0.03894547  0.49982716  1  0.001322  0  -0.000191  0.075371  0  3.974838  0
C  C105  1  0.53911463  0.96140037  0.49973720  1  0.066257  0  -0.000247  0.074849  0  3.976498  0
C  C106  1  0.00164788  0.50123802  0.81155944  1  -0.011689  0  -0.019453  -0.046577  0  3.981681  0
C  C107  1  0.00150809  0.50169370  0.18556784  1  -0.004664  0  -0.019163  -0.044906  0  3.979414  0
C  C108  1  0.93793953  0.56388666  0.84904352  1  -0.025268  0  -0.080784  -0.082533  0  3.986688  0
C  C109  1  0.93719974  0.56293003  0.92253985  1  -0.023401  0  -0.089298  -0.131328  0  3.97868  0
C  C110  1  0.06401164  0.43789916  0.14920602  1  -0.045782  0  -0.080655  -0.0818  0  3.986555  0
C  C111  1  0.06291565  0.43713030  0.07750860  1  -0.011485  0  -0.089503  -0.132392  0  3.980686  0
C  C112  1  0.93777258  0.56412824  0.14876443  1  -0.032868  0  -0.082036  -0.083905  0  3.991175  0
C  C113  1  0.93703277  0.56306292  0.07703814  1  -0.015425  0  -0.089449  -0.131038  0  3.980625  0
C  C114  1  0.06414034  0.43759791  0.84962782  1  -0.037853  0  -0.081259  -0.081948  0  3.989986  0
C  C115  1  0.06304822  0.43694792  0.92313641  1  -0.010487  0  -0.089897  -0.132007  0  3.980855  0
C  C116  1  0.99981377  0.49971869  0.96154634  1  -0.089187  0  1.1e-05  0.075625  0  3.975833  0
C  C117  1  0.99973798  0.49981327  0.03908198  1  -0.03509  0  0.000138  0.075666  0  3.977196  0
C  C118  1  0.06429861  0.85016018  0.14811145  1  -0.057259  0  -0.093229  -0.154773  0  3.972059  0
C  C119  1  0.06495006  0.92450202  0.07519895  1  0.050701  0  -0.015104  -0.016503  0  4.073267  0
C  C120  1  0.12907108  0.96347665  0.03682143  1  0.52806  0  0.065626  0.140769  0  4.077779  0
C  C121  1  0.93742880  0.85015882  0.14811185  1  -0.10131  0  -0.093196  -0.154763  0  3.972031  0
C  C122  1  0.93534326  0.92450150  0.07520012  1  0.047024  0  -0.015073  -0.016435  0  4.07325  0
C  C123  1  0.87062651  0.96347512  0.03682275  1  0.527743  0  0.065666  0.14079  0  4.077684  0
C  C124  1  0.93746241  0.14720542  0.85102418  1  -0.106881  0  -0.09353  -0.156051  0  3.971535  0
C  C125  1  0.93538611  0.07426723  0.92537084  1  -0.013206  0  -0.014942  -0.014924  0  4.071165  0
C  C126  1  0.87063321  0.03591100  0.96437398  1  0.484834  0  0.065476  0.140245  0  4.077076  0
C  C127  1  0.06430411  0.14720585  0.85102465  1  -0.022256  0  -0.093497  -0.156022  0  3.971618  0
C  C128  1  0.06497107  0.07426681  0.92537006  1  -0.019897  0  -0.014906  -0.014702  0  4.071014  0
C  C129  1  0.12907714  0.03591086  0.96437241  1  0.490953  0  0.065411  0.140083  0  4.077086  0
C  C130  1  0.00137519  0.81325077  0.18399707  1  0.023039  0  -0.020308  -0.020971  0  3.999292  0
C  C131  1  0.99997338  0.96247728  0.03757043  1  0.011004  0  -0.006013  0.004598  0  3.975549  0
C  C132  1  0.00137655  0.18315555  0.81408686  1  0.018253  0  -0.019579  -0.019446  0  3.999126  0
C  C133  1  0.00000433  0.03662177  0.96336512  1  0.061723  0  -0.007068  0.002072  0  3.976777  0
C  C134  1  0.31134868  0.50132332  0.50176038  1  -0.006774  0  -0.019425  -0.045429  0  3.978039  0
C  C135  1  0.68556215  0.50132427  0.50176058  1  -0.002642  0  -0.019408  -0.045507  0  3.978069  0
C  C136  1  0.34926795  0.43741659  0.56443610  1  -0.041034  0  -0.081041  -0.082261  0  3.987791  0
C  C137  1  0.42277372  0.43673171  0.56329687  1  -0.013999  0  -0.089594  -0.13144  0  3.982135  0
C  C138  1  0.64894872  0.56406152  0.43780745  1  -0.038499  0  -0.081752  -0.083551  0  3.98889  0
C  C139  1  0.57726557  0.56304334  0.43699454  1  -0.011044  0  -0.089171  -0.130566  0  3.980625  0
C  C140  1  0.64887708  0.43741505  0.56443732  1  -0.060417  0  -0.081042  -0.082211  0  3.987508  0
C  C141  1  0.57719392  0.43673179  0.56329717  1  -0.019912  0  -0.08961  -0.131472  0  3.98215  0
C  C142  1  0.34918047  0.56406075  0.43780699  1  -0.033048  0  -0.081805  -0.083658  0  3.989011  0
C  C143  1  0.42269366  0.56304209  0.43699476  1  -0.017399  0  -0.089123  -0.130487  0  3.980689  0
C  C144  1  0.46149107  0.49963314  0.49984922  1  -0.020683  0  -0.000117  0.075411  0  3.97582  0
C  C145  1  0.53902472  0.49963267  0.49984929  1  -0.091488  0  -6.5e-05  0.075475  0  3.975833  0
O  O146  1  0.79370043  0.44169285  0.70312381  1  -1.180247  0  -0.358577  -0.624275  0  2.283608  0
O  O147  1  0.06149925  0.70262968  0.44216815  1  -1.183498  0  -0.358566  -0.624184  0  2.282306  0
O  O148  1  0.20214815  0.56194240  0.29325386  1  -1.179792  0  -0.35872  -0.624594  0  2.282164  0
O  O149  1  0.94281003  0.29267550  0.56247336  1  -1.184865  0  -0.358822  -0.625017  0  2.281874  0
O  O150  1  0.06128890  0.29186709  0.70442887  1  -1.183367  0  -0.355531  -0.618663  0  2.278273  0
O  O151  1  0.79359836  0.56144095  0.44261928  1  -1.193377  0  -0.357893  -0.622844  0  2.282445  0
O  O152  1  0.94244755  0.70362656  0.29258647  1  -1.18693  0  -0.355455  -0.618651  0  2.279543  0
O  O153  1  0.20243558  0.44197925  0.56198147  1  -1.18374  0  -0.357223  -0.622014  0  2.282227  0
O  O154  1  0.94271424  0.56086710  0.70248560  1  -1.18031  0  -0.357579  -0.621467  0  2.28621  0
O  O155  1  0.20209667  0.29342043  0.44309246  1  -1.179555  0  -0.357306  -0.621145  0  2.284666  0
O  O156  1  0.06134224  0.44270311  0.29381718  1  -1.194299  0  -0.356962  -0.620937  0  2.285352  0
O  O157  1  0.79390402  0.70212110  0.56128644  1  -1.177065  0  -0.357507  -0.621394  0  2.284706  0
O  O158  1  0.20203744  0.29267480  0.56247306  1  -1.179961  0  -0.358822  -0.625053  0  2.281986  0
O  O159  1  0.94264712  0.56194336  0.29325418  1  -1.183496  0  -0.358812  -0.624731  0  2.281999  0
O  O160  1  0.79369936  0.70262994  0.44216775  1  -1.178536  0  -0.358537  -0.624149  0  2.282339  0
O  O161  1  0.06147847  0.44169269  0.70312420  1  -1.182443  0  -0.358554  -0.624243  0  2.283651  0
O  O162  1  0.94241175  0.29186759  0.70442775  1  -1.177064  0  -0.355611  -0.618743  0  2.278224  0
O  O163  1  0.20233739  0.56144082  0.44261864  1  -1.184464  0  -0.357833  -0.622761  0  2.282416  0
O  O164  1  0.06133319  0.70362724  0.29258880  1  -1.187315  0  -0.355476  -0.618709  0  2.279597  0
O  O165  1  0.79360137  0.44197829  0.56198107  1  -1.185998  0  -0.357263  -0.622058  0  2.281992  0
O  O166  1  0.06138268  0.29342385  0.44309014  1  -1.190518  0  -0.357343  -0.621177  0  2.284738  0
O  O167  1  0.79392938  0.56086678  0.70248551  1  -1.172131  0  -0.357512  -0.621308  0  2.286293  0
O  O168  1  0.94268491  0.70212059  0.56128685  1  -1.185391  0  -0.357468  -0.621349  0  2.284707  0
O  O169  1  0.20213071  0.44270310  0.29381587  1  -1.178228  0  -0.357009  -0.620912  0  2.285218  0
O  O170  1  0.94790273  0.44772806  0.44831451  1  -1.237708  0  -0.694862  -1.065928  0  2.362973  0
O  O171  1  0.15605153  0.44772767  0.44831310  1  -1.241358  0  -0.694869  -1.065981  0  2.363203  0
O  O172  1  0.94810202  0.65625903  0.44753271  1  -1.223252  0  -0.694893  -1.067535  0  2.363563  0
O  O173  1  0.94810302  0.44692679  0.65686388  1  -1.218715  0  -0.694443  -1.066647  0  2.361093  0
O  O174  1  0.03848757  0.53793060  0.53854004  1  -1.197897  0  -0.791273  -1.14741  0  2.127132  0
O  O175  1  0.88503682  0.53793104  0.53854090  1  -1.198282  0  -0.791286  -1.147491  0  2.127286  0
O  O176  1  0.03830929  0.53863347  0.38474286  1  -1.193477  0  -0.791156  -1.148906  0  2.125318  0
O  O177  1  0.03829876  0.38422508  0.53917417  1  -1.193446  0  -0.790893  -1.148068  0  2.124183  0
O  O178  1  0.19252176  0.06893306  0.93155932  1  -1.110233  0  -0.356012  -0.412538  0  2.271149  0
O  O179  1  0.19250779  0.93061752  0.06986980  1  -1.100368  0  -0.355725  -0.41187  0  2.273744  0
O  O180  1  0.80698318  0.06893164  0.93155779  1  -1.103363  0  -0.356113  -0.412512  0  2.271287  0
O  O181  1  0.80700170  0.93061513  0.06986683  1  -1.102574  0  -0.355811  -0.411957  0  2.273664  0
