# generated using pymatgen
data_CuH6C7N4O5
_symmetry_space_group_name_H-M   'P 1'
_cell_length_a   6.51339115
_cell_length_b   6.96184962
_cell_length_c   11.67257050
_cell_angle_alpha   78.54077552
_cell_angle_beta   75.43259943
_cell_angle_gamma   79.32129753
_symmetry_Int_Tables_number   1
_chemical_formula_structural   CuH6C7N4O5
_chemical_formula_sum   'Cu2 H12 C14 N8 O10'
_cell_volume   496.93236109
_cell_formula_units_Z   2
loop_
 _symmetry_equiv_pos_site_id
 _symmetry_equiv_pos_as_xyz
  1  'x, y, z'
loop_
 _atom_site_type_symbol
 _atom_site_label
 _atom_site_symmetry_multiplicity
 _atom_site_fract_x
 _atom_site_fract_y
 _atom_site_fract_z
 _atom_site_occupancy
 _atom_site_hle17_ddec_charge
 _atom_site_hle17_ddec_spin_density
 _atom_site_hle17_ddec_sum_bond_order
 _atom_site_hle17_magmom
 _atom_site_hse06_10hf_ddec_charge
 _atom_site_hse06_10hf_ddec_spin_density
 _atom_site_hse06_10hf_ddec_sum_bond_order
 _atom_site_hse06_10hf_magmom
 _atom_site_hse06_ddec_charge
 _atom_site_hse06_ddec_spin_density
 _atom_site_hse06_ddec_sum_bond_order
 _atom_site_hse06_magmom
 _atom_site_pbe_cm5_charge
 _atom_site_pbe_ddec_charge
 _atom_site_pbe_ddec_spin_density
 _atom_site_pbe_ddec_sum_bond_order
 _atom_site_pbe_magmom
Cu  Cu0  1  0.00000550  0.00000585  0.99999680  1  0.952363  -0.643213  1.732559  -0.455  0.974479  -0.761018  2.119555  -0.601  1.063064  -0.855274  2.055866  -0.702  0.727871  0.919739  -0.686812  2.169121  -0.528
Cu  Cu1  1  0.50000597  0.99999727  0.99999991  1  0.951336  0.646214  1.758267  0.458  0.970991  0.76148  2.145934  0.601  1.067014  0.854671  2.065291  0.701  0.736094  0.916516  0.687056  2.195992  0.528
H  H2  1  0.47230627  0.73895405  0.34739783  1  0.11837  0.000251  0.948148  0.0  0.123405  0.000197  1.013016  0.0  0.127498  0.000133  1.010064  0.0  0.111502  0.120452  0.000253  1.015176  0.0
H  H3  1  0.52769768  0.26104489  0.65260149  1  0.118399  0.000249  0.948133  0.0  0.123394  0.000197  1.013055  0.0  0.127484  0.000133  1.010098  0.0  0.111507  0.120443  0.000252  1.015225  0.0
H  H4  1  0.40958819  0.61183484  0.56976700  1  0.112738  -0.000119  0.971717  0.0  0.118154  -0.000123  1.039776  0.0  0.121283  -7.6e-05  1.037788  0.0  0.11297  0.115957  -0.000163  1.041139  0.0
H  H5  1  0.59040885  0.38815685  0.43024017  1  0.112778  -0.000114  0.971777  0.0  0.118208  -0.000123  1.039793  0.0  0.121348  -7.7e-05  1.037802  0.0  0.112995  0.116009  -0.000163  1.041157  0.0
H  H6  1  0.72891035  0.75281292  0.59996896  1  0.119768  1.9e-05  0.97316  0.0  0.122329  8.6e-05  1.04549  0.0  0.126192  4.7e-05  1.04244  0.0  0.111459  0.119547  0.000115  1.047772  0.0
H  H7  1  0.27108378  0.24718881  0.40001681  1  0.119744  2e-05  0.973159  0.0  0.122276  8.6e-05  1.04553  0.0  0.126133  4.7e-05  1.042497  0.0  0.11143  0.11949  0.000115  1.047812  0.0
H  H8  1  0.79174430  0.87863930  0.37761271  1  0.110563  -0.000519  0.958062  0.0  0.116449  -0.000345  1.025203  0.0  0.120158  -0.000264  1.023085  0.0  0.106644  0.113834  -0.000423  1.0267  0.0
H  H9  1  0.20827729  0.12135921  0.62236538  1  0.11046  -0.000519  0.958152  0.0  0.116286  -0.000345  1.025392  0.0  0.119982  -0.000263  1.023269  0.0  0.106567  0.113672  -0.000423  1.026894  0.0
H  H10  1  0.80804666  0.62957996  0.08494275  1  0.420777  -6e-06  0.873343  0.0  0.396115  6e-06  0.927415  0.0  0.407869  5e-06  0.909855  0.0  0.292783  0.388071  7e-06  0.939467  0.0
H  H11  1  0.19194430  0.37041020  0.91505946  1  0.420817  -5e-06  0.873316  0.0  0.396152  6e-06  0.927382  0.0  0.407904  5e-06  0.909825  0.0  0.292779  0.388102  7e-06  0.939438  0.0
H  H12  1  0.82264013  0.63664828  0.94635158  1  0.418214  2.2e-05  0.875353  0.0  0.393036  4e-06  0.930554  0.0  0.404803  0.0  0.91298  0.0  0.292475  0.385047  9e-06  0.942537  0.0
H  H13  1  0.17735124  0.36333896  0.05365351  1  0.418162  2e-05  0.875427  0.0  0.392983  4e-06  0.930634  0.0  0.404752  1e-06  0.913061  0.0  0.292396  0.384998  9e-06  0.94261  0.0
C  C14  1  0.17688103  0.87970726  0.21665423  1  0.658451  4e-06  3.853603  0.0  0.618777  3.4e-05  4.147366  0.0  0.660104  6.4e-05  4.139074  0.0  0.222591  0.590794  6e-06  4.151797  0.0
C  C15  1  0.82312614  0.12029158  0.78333952  1  0.658349  6e-06  3.853689  0.0  0.618688  3.4e-05  4.147437  0.0  0.66001  6.3e-05  4.139149  0.0  0.222516  0.590711  6e-06  4.15188  0.0
C  C16  1  0.13553668  0.80977143  0.34989817  1  -0.024312  0.000163  3.679474  0.0  -0.012822  -6.9e-05  3.918626  0.0  -0.018715  -9e-06  3.938343  0.0  -0.001245  -0.008962  -0.000125  3.905492  0.0
C  C17  1  0.86447612  0.19022145  0.65009554  1  -0.024323  0.000182  3.679618  0.0  -0.01282  -6.8e-05  3.918767  0.0  -0.018705  -8e-06  3.938466  0.0  -0.001168  -0.00896  -0.000126  3.905645  0.0
C  C18  1  0.31110074  0.73881968  0.40341953  1  -0.056214  -0.001205  3.686326  -0.002  -0.076436  -0.000786  3.933488  -0.001  -0.077819  -0.000551  3.952433  -0.001  -0.074323  -0.075596  -0.000958  3.920883  -0.002
C  C19  1  0.68889943  0.26116160  0.59658593  1  -0.056179  -0.001227  3.686172  -0.002  -0.07643  -0.000787  3.933394  -0.001  -0.077811  -0.000551  3.95234  -0.001  -0.074326  -0.075598  -0.000959  3.920802  -0.002
C  C20  1  0.27780890  0.66741310  0.52531053  1  -0.096968  -0.000447  3.729172  0.0  -0.120071  -0.000375  3.981487  0.0  -0.120842  -0.000251  4.001315  0.0  -0.076174  -0.119374  -0.000477  3.968142  -0.001
C  C21  1  0.72218532  0.33258736  0.47468824  1  -0.096997  -0.000434  3.728941  0.0  -0.120041  -0.000374  3.981202  0.0  -0.120823  -0.000252  4.001034  0.0  -0.076187  -0.119346  -0.000477  3.967863  -0.001
C  C22  1  0.06760436  0.66950232  0.59264113  1  0.06725  -1.4e-05  3.720249  0.0  0.058595  4.5e-05  3.978768  0.0  0.055262  3.2e-05  4.002617  0.0  0.079706  0.060546  5.8e-05  3.962885  0.0
C  C23  1  0.93238939  0.33050116  0.40736075  1  0.067115  -3.2e-05  3.720446  0.0  0.058425  4.4e-05  3.978989  0.0  0.055088  3.1e-05  4.002843  0.0  0.079661  0.060377  5.8e-05  3.963102  0.0
C  C24  1  0.88986662  0.74770285  0.54297829  1  -0.0901  0.000254  3.700237  0.0  -0.112226  0.000169  3.954399  0.0  -0.113351  0.000125  3.975355  0.0  -0.07367  -0.111317  0.000188  3.940332  0.0
C  C25  1  0.11013495  0.25230190  0.45701293  1  -0.090046  0.000266  3.700093  0.0  -0.112133  0.00017  3.95428  0.0  -0.113256  0.000126  3.975223  0.0  -0.073613  -0.11122  0.000188  3.94021  0.0
C  C26  1  0.92568903  0.81683126  0.42016924  1  -0.063571  0.000935  3.688263  0.001  -0.086686  0.000645  3.93993  0.001  -0.088752  0.000458  3.96108  0.001  -0.079212  -0.085285  0.000776  3.925773  0.001
C  C27  1  0.07432401  0.18317058  0.57982847  1  -0.063416  0.000924  3.688054  0.001  -0.0865  0.000644  3.939776  0.001  -0.088545  0.000457  3.960904  0.001  -0.079195  -0.085104  0.000776  3.925627  0.001
N  N28  1  0.30446270  0.86236957  0.94029453  1  -0.5381  -0.000671  2.785493  -0.001  -0.602506  -2.6e-05  3.167168  0.0  -0.661356  0.000127  3.181535  0.0  -0.350075  -0.567663  4e-05  3.160387  0.0
N  N29  1  0.69554141  0.13762800  0.05971094  1  -0.53776  -0.00065  2.786005  -0.001  -0.602092  -2.2e-05  3.167621  0.0  -0.660926  0.000127  3.181989  0.0  -0.349915  -0.567268  4.5e-05  3.16085  0.0
N  N30  1  0.35687890  0.84906689  0.83431407  1  0.419976  0.000119  4.117256  0.0  0.466709  0.000168  4.435425  0.0  0.490066  -2.5e-05  4.470242  0.0  0.095854  0.451588  0.0003  4.412745  0.0
N  N31  1  0.64312718  0.15093935  0.16567892  1  0.419645  0.00011  4.117644  0.0  0.466358  0.000165  4.435854  0.0  0.489719  -2.4e-05  4.470685  0.0  0.095653  0.451236  0.000299  4.413145  0.0
N  N32  1  0.40725486  0.83453738  0.73349366  1  -0.282453  -6.5e-05  2.386356  0.0  -0.306618  0.000523  2.63226  0.001  -0.318261  0.00062  2.643179  0.001  -0.138133  -0.299273  0.000677  2.625066  0.001
N  N33  1  0.59273598  0.16548552  0.26651650  1  -0.282477  -2.7e-05  2.386021  0.0  -0.306641  0.00053  2.631947  0.001  -0.318297  0.000626  2.642877  0.001  -0.138141  -0.299278  0.000684  2.624726  0.001
N  N34  1  0.03520283  0.58495019  0.71941272  1  0.506552  0.000186  3.872179  0.0  0.525355  0.000187  4.17971  0.0  0.547675  0.000134  4.187342  0.0  0.059621  0.510475  0.000291  4.174705  0.0
N  N35  1  0.96478864  0.41505781  0.28059321  1  0.506703  0.000193  3.872518  0.0  0.525571  0.000187  4.179991  0.0  0.547897  0.000135  4.187617  0.0  0.05972  0.510686  0.000293  4.174984  0.0
O  O36  1  0.36918282  0.90377431  0.16612738  1  -0.584573  0.065066  2.142105  0.084  -0.54801  0.046937  2.413284  0.067  -0.59085  0.037749  2.404021  0.057  -0.3084  -0.520005  0.052327  2.418764  0.072
O  O37  1  0.63083222  0.09622462  0.83387384  1  -0.584563  0.065045  2.142322  0.084  -0.547975  0.046925  2.413473  0.067  -0.590814  0.037741  2.404209  0.057  -0.308366  -0.519977  0.052314  2.418964  0.072
O  O38  1  0.01644488  0.90835896  0.16879048  1  -0.592904  -0.065695  2.128951  -0.085  -0.560999  -0.047663  2.406251  -0.068  -0.602426  -0.038155  2.39919  -0.058  -0.311348  -0.533091  -0.053126  2.411011  -0.073
O  O39  1  0.98356573  0.09164877  0.83120427  1  -0.592923  -0.065705  2.128876  -0.085  -0.561031  -0.047667  2.406174  -0.068  -0.602459  -0.038159  2.399114  -0.058  -0.31139  -0.533124  -0.053131  2.410944  -0.073
O  O40  1  0.19397099  0.49109289  0.75688735  1  -0.353885  0.000458  1.820191  0.0  -0.32009  0.000295  2.027366  0.0  -0.333866  0.000216  2.022854  0.0  -0.101412  -0.311501  0.000354  2.031001  0.0
O  O41  1  0.80600866  0.50890926  0.24312008  1  -0.354036  0.00045  1.820106  0.0  -0.320279  0.000298  2.027322  0.0  -0.334062  0.000217  2.022818  0.0  -0.101504  -0.311673  0.000354  2.030942  0.0
O  O42  1  0.85109483  0.60942407  0.78365101  1  -0.353762  -0.000297  1.77937  0.0  -0.320474  -0.000183  1.978189  0.0  -0.334729  -0.000118  1.974996  0.0  -0.109819  -0.311855  -0.000253  1.981234  0.0
O  O43  1  0.14888880  0.39059430  0.21635215  1  -0.353673  -0.000292  1.779677  0.0  -0.320462  -0.000186  1.978548  0.0  -0.334716  -0.000118  1.975353  0.0  -0.109821  -0.311858  -0.000251  1.9816  0.0
O  O44  1  0.80533187  0.71841966  0.00845005  1  -0.867644  4.8e-05  1.91182  0.0  -0.844701  4.6e-05  2.098487  0.0  -0.864971  4.2e-05  2.056738  0.0  -0.593734  -0.830491  5e-06  2.127187  0.0
O  O45  1  0.19468218  0.28156446  0.99155143  1  -0.86765  5.1e-05  1.911909  0.0  -0.844696  4.6e-05  2.098591  0.0  -0.864954  4.2e-05  2.056807  0.0  -0.593626  -0.830474  5e-06  2.127307  0.0
