# generated using pymatgen
data_CuH10C13N3Cl
_symmetry_space_group_name_H-M   'P 1'
_cell_length_a   8.88368833
_cell_length_b   8.88354694
_cell_length_c   10.64800008
_cell_angle_alpha   102.73057105
_cell_angle_beta   102.73100384
_cell_angle_gamma   116.27056732
_symmetry_Int_Tables_number   1
_chemical_formula_structural   CuH10C13N3Cl
_chemical_formula_sum   'Cu2 H20 C26 N6 Cl2'
_cell_volume   684.73959829
_cell_formula_units_Z   2
loop_
 _symmetry_equiv_pos_site_id
 _symmetry_equiv_pos_as_xyz
  1  'x, y, z'
loop_
 _atom_site_type_symbol
 _atom_site_label
 _atom_site_symmetry_multiplicity
 _atom_site_fract_x
 _atom_site_fract_y
 _atom_site_fract_z
 _atom_site_occupancy
 _atom_site_hle17_bader_spin_density
 _atom_site_hle17_ddec_charge
 _atom_site_hle17_ddec_spin_density
 _atom_site_hle17_ddec_sum_bond_order
 _atom_site_hle17_magmom
 _atom_site_hse06_10hf_bader_spin_density
 _atom_site_hse06_10hf_ddec_charge
 _atom_site_hse06_10hf_ddec_spin_density
 _atom_site_hse06_10hf_ddec_sum_bond_order
 _atom_site_hse06_10hf_magmom
 _atom_site_hse06_bader_spin_density
 _atom_site_hse06_ddec_charge
 _atom_site_hse06_ddec_spin_density
 _atom_site_hse06_ddec_sum_bond_order
 _atom_site_hse06_magmom
 _atom_site_pbe_bader_spin_density
 _atom_site_pbe_cm5_charge
 _atom_site_pbe_ddec_charge
 _atom_site_pbe_ddec_spin_density
 _atom_site_pbe_ddec_sum_bond_order
 _atom_site_pbe_magmom
Cu  Cu0  1  0.90048526  0.09953192  0.50000108  1  0  0.415765  0  2.020411  0  0  0.308091  0  2.520619  0  0  0.300955  0  2.479588  0  0  0.424339  0.314943  0  2.545811  0
Cu  Cu1  1  0.09952517  0.90046982  0.50000161  1  0  0.415754  0  2.020436  0  0  0.308034  0  2.520672  0  0  0.300879  0  2.479622  0  0  0.42435  0.314878  0  2.545877  0
H  H2  1  0.84791120  0.39690710  0.46268542  1  0  0.076321  0  0.940297  0  0  0.084503  0  1.004851  0  0  0.087744  0  1.001182  0  0  0.113248  0.081807  0  1.008358  0
H  H3  1  0.60309939  0.15207440  0.53731735  1  0  0.076217  0  0.940291  0  0  0.084454  0  1.004791  0  0  0.087693  0  1.001124  0  0  0.11323  0.081753  0  1.008301  0
H  H4  1  0.15207729  0.60309222  0.53731218  1  0  0.076281  0  0.940087  0  0  0.084461  0  1.004647  0  0  0.087701  0  1.00098  0  0  0.113235  0.081761  0  1.008157  0
H  H5  1  0.39690216  0.84792309  0.46268072  1  0  0.076282  0  0.940136  0  0  0.0845  0  1.004664  0  0  0.08774  0  1.000996  0  0  0.11326  0.0818  0  1.008172  0
H  H6  1  0.77417675  0.49764498  0.27368754  1  0  0.127382  0  0.986384  0  0  0.132688  0  1.054428  0  0  0.136535  0  1.053544  0  0  0.097786  0.12978  0  1.05526  0
H  H7  1  0.50236181  0.22581380  0.72631352  1  0  0.127386  0  0.986381  0  0  0.132679  0  1.054435  0  0  0.136521  0  1.053548  0  0  0.097779  0.129763  0  1.055272  0
H  H8  1  0.22582263  0.50235764  0.72631114  1  0  0.127344  0  0.986314  0  0  0.132657  0  1.054346  0  0  0.136484  0  1.053486  0  0  0.097747  0.129744  0  1.055179  0
H  H9  1  0.49763959  0.77418790  0.27368163  1  0  0.127392  0  0.98633  0  0  0.132689  0  1.054382  0  0  0.136502  0  1.053549  0  0  0.097777  0.129777  0  1.055219  0
H  H10  1  0.70198270  0.01439953  0.99326259  1  0  0.108171  0  0.966634  0  0  0.119387  0  1.025328  0  0  0.12257  0  1.024497  0  0  0.105005  0.117178  0  1.026242  0
H  H11  1  0.98561175  0.29803701  0.00674485  1  0  0.108267  0  0.966518  0  0  0.119491  0  1.025205  0  0  0.12267  0  1.024371  0  0  0.105067  0.117286  0  1.026122  0
H  H12  1  0.29801864  0.98559339  0.00674295  1  0  0.108188  0  0.966696  0  0  0.119408  0  1.025376  0  0  0.122587  0  1.024549  0  0  0.10501  0.117202  0  1.026291  0
H  H13  1  0.01438096  0.70195879  0.99325008  1  0  0.108194  0  0.966529  0  0  0.119445  0  1.025192  0  0  0.122626  0  1.024358  0  0  0.10504  0.117237  0  1.026108  0
H  H14  1  0.78191092  0.93511633  0.19780052  1  0  0.073301  0  0.967763  0  0  0.078078  0  1.040731  0  0  0.08124  0  1.037629  0  0  0.103013  0.075779  0  1.04306  0
H  H15  1  0.06489726  0.21811132  0.80220629  1  0  0.073352  0  0.967773  0  0  0.078079  0  1.040793  0  0  0.081236  0  1.037699  0  0  0.103033  0.075782  0  1.043131  0
H  H16  1  0.21808003  0.06487448  0.80220617  1  0  0.073474  0  0.96766  0  0  0.078175  0  1.040712  0  0  0.081332  0  1.037622  0  0  0.103061  0.075882  0  1.043034  0
H  H17  1  0.93511484  0.78190796  0.19779476  1  0  0.073403  0  0.96776  0  0  0.07812  0  1.040787  0  0  0.081275  0  1.037701  0  0  0.103047  0.075824  0  1.04311  0
H  H18  1  0.43949593  0.27747421  0.11550099  1  0  0.102856  0  0.947941  0  0  0.118324  0  0.998446  0  0  0.121142  0  0.997127  0  0  0.107968  0.116213  0  0.999752  0
H  H19  1  0.72252418  0.56050340  0.88449672  1  0  0.102818  0  0.947976  0  0  0.118268  0  0.998519  0  0  0.121079  0  0.997198  0  0  0.107935  0.116154  0  0.999819  0
H  H20  1  0.56051292  0.72252890  0.88449977  1  0  0.102811  0  0.947929  0  0  0.118285  0  0.998445  0  0  0.121098  0  0.997125  0  0  0.10796  0.116171  0  0.999744  0
H  H21  1  0.27747885  0.43950203  0.11550332  1  0  0.102848  0  0.94795  0  0  0.118304  0  0.99849  0  0  0.121117  0  0.997167  0  0  0.107958  0.116196  0  0.999791  0
C  C22  1  0.81684220  0.31575021  0.35713447  1  0  0.12477  0  3.713588  0  0  0.098605  0  3.963407  0  0  0.106817  0  3.976993  0  0  0.035485  0.092983  0  3.95531  0
C  C23  1  0.68426428  0.18316373  0.64287165  1  0  0.124822  0  3.713871  0  0  0.09863  0  3.963623  0  0  0.106837  0  3.977208  0  0  0.035436  0.093015  0  3.955516  0
C  C24  1  0.18315920  0.68425541  0.64287937  1  0  0.124751  0  3.714167  0  0  0.098595  0  3.963906  0  0  0.106802  0  3.977493  0  0  0.03538  0.092977  0  3.955798  0
C  C25  1  0.31573541  0.81683414  0.35711952  1  0  0.124806  0  3.714012  0  0  0.098607  0  3.963792  0  0  0.10682  0  3.977373  0  0  0.035433  0.092991  0  3.955686  0
C  C26  1  0.77474208  0.37198704  0.24977487  1  0  -0.209197  0  3.711043  0  0  -0.22624  0  3.960194  0  0  -0.235425  0  3.978909  0  0  -0.094916  -0.220839  0  3.948035  0
C  C27  1  0.62801020  0.22524381  0.75022013  1  0  -0.20917  0  3.711025  0  0  -0.226168  0  3.960194  0  0  -0.235343  0  3.978921  0  0  -0.094812  -0.220761  0  3.948018  0
C  C28  1  0.22524210  0.62800991  0.75021476  1  0  -0.209226  0  3.711188  0  0  -0.226168  0  3.960367  0  0  -0.235339  0  3.979098  0  0  -0.094811  -0.220764  0  3.948196  0
C  C29  1  0.37198458  0.77475182  0.24977896  1  0  -0.20926  0  3.711093  0  0  -0.226208  0  3.960278  0  0  -0.235372  0  3.97901  0  0  -0.094802  -0.220808  0  3.948119  0
C  C30  1  0.73356122  0.26493690  0.11428578  1  0  0.231762  0  3.778014  0  0  0.218143  0  4.030916  0  0  0.232297  0  4.048417  0  0  0.104259  0.209126  0  4.018092  0
C  C31  1  0.73506934  0.26643250  0.88571590  1  0  0.232006  0  3.777717  0  0  0.218266  0  4.030751  0  0  0.232421  0  4.048248  0  0  0.104266  0.209243  0  4.017923  0
C  C32  1  0.26643907  0.73506114  0.88572154  1  0  0.232112  0  3.777768  0  0  0.218219  0  4.031017  0  0  0.232376  0  4.048513  0  0  0.104298  0.209194  0  4.018187  0
C  C33  1  0.26492567  0.73355831  0.11427658  1  0  0.232177  0  3.777716  0  0  0.218341  0  4.030878  0  0  0.232498  0  4.04837  0  0  0.104277  0.209319  0  4.018059  0
C  C34  1  0.73607465  0.10440974  0.09602487  1  0  -0.219174  0  3.750018  0  0  -0.238919  0  4.005779  0  0  -0.248079  0  4.025252  0  0  -0.102253  -0.233121  0  3.992392  0
C  C35  1  0.89560154  0.26394334  0.90398285  1  0  -0.21932  0  3.749714  0  0  -0.239043  0  4.005546  0  0  -0.248199  0  4.025011  0  0  -0.102267  -0.233247  0  3.992168  0
C  C36  1  0.26391935  0.89558005  0.90398036  1  0  -0.21942  0  3.750161  0  0  -0.239087  0  4.006023  0  0  -0.248246  0  4.025492  0  0  -0.102329  -0.233292  0  3.992645  0
C  C37  1  0.10440253  0.73606201  0.09601926  1  0  -0.219393  0  3.749903  0  0  -0.239105  0  4.005742  0  0  -0.248262  0  4.025211  0  0  -0.102303  -0.233302  0  3.992368  0
C  C38  1  0.78167635  0.06020684  0.20958549  1  0  0.129003  0  3.722093  0  0  0.102028  0  3.971856  0  0  0.110088  0  3.985981  0  0  0.032046  0.097121  0  3.962125  0
C  C39  1  0.93980901  0.21833004  0.79042406  1  0  0.128908  0  3.721656  0  0  0.101954  0  3.971473  0  0  0.110011  0  3.98559  0  0  0.031932  0.097044  0  3.961753  0
C  C40  1  0.21830597  0.93979009  0.79042068  1  0  0.128856  0  3.721674  0  0  0.10192  0  3.971457  0  0  0.109981  0  3.985572  0  0  0.031984  0.097004  0  3.961741  0
C  C41  1  0.06019812  0.78167429  0.20957659  1  0  0.128876  0  3.721807  0  0  0.101946  0  3.971595  0  0  0.110007  0  3.985715  0  0  0.031928  0.097032  0  3.961878  0
C  C42  1  0.59352339  0.40648405  0.99999745  1  0  0.180749  0  3.779526  0  0  0.172585  0  4.031949  0  0  0.179258  0  4.05324  0  0  0.091807  0.16808  0  4.017893  0
C  C43  1  0.40648021  0.59352121  0.99999709  1  0  0.180784  0  3.779463  0  0  0.172631  0  4.03189  0  0  0.179305  0  4.053178  0  0  0.091835  0.168132  0  4.017823  0
C  C44  1  0.46613854  0.37423578  0.06386873  1  0  -0.128453  0  3.751233  0  0  -0.14943  0  4.004885  0  0  -0.151963  0  4.024134  0  0  -0.08856  -0.148197  0  3.992798  0
C  C45  1  0.62576910  0.53388188  0.93613060  1  0  -0.128555  0  3.751405  0  0  -0.149551  0  4.005095  0  0  -0.152073  0  4.024333  0  0  -0.088612  -0.148317  0  3.992996  0
C  C46  1  0.53386481  0.62576055  0.93612853  1  0  -0.128421  0  3.751447  0  0  -0.149417  0  4.005122  0  0  -0.151942  0  4.024365  0  0  -0.088613  -0.14818  0  3.993015  0
C  C47  1  0.37423453  0.46612738  0.06387224  1  0  -0.12856  0  3.751089  0  0  -0.149572  0  4.004787  0  0  -0.152094  0  4.024023  0  0  -0.088633  -0.14834  0  3.9927  0
N  N48  1  0.82383855  0.16370498  0.34052296  1  0  -0.299891  0  3.380232  0  0  -0.234327  0  3.684068  0  0  -0.241941  0  3.688688  0  0  -0.374351  -0.230046  0  3.681136  0
N  N49  1  0.83629879  0.17615675  0.65948049  1  0  -0.299942  0  3.380048  0  0  -0.234356  0  3.683839  0  0  -0.241953  0  3.688442  0  0  -0.374326  -0.230088  0  3.680919  0
N  N50  1  0.17615571  0.83628689  0.65947241  1  0  -0.299897  0  3.380109  0  0  -0.234278  0  3.683845  0  0  -0.241877  0  3.688443  0  0  -0.374328  -0.229999  0  3.68092  0
N  N51  1  0.16370585  0.82383793  0.34052234  1  0  -0.299932  0  3.380101  0  0  -0.23434  0  3.683878  0  0  -0.241946  0  3.688483  0  0  -0.374345  -0.230049  0  3.680945  0
N  N52  1  0.68761823  0.31238303  0.99999572  1  0  -0.234196  0  3.460681  0  0  -0.155846  0  3.682239  0  0  -0.177221  0  3.703469  0  0  -0.245009  -0.142056  0  3.666901  0
N  N53  1  0.31238525  0.68761849  0.00000359  1  0  -0.234265  0  3.46101  0  0  -0.155828  0  3.682684  0  0  -0.177203  0  3.703915  0  0  -0.24497  -0.142038  0  3.667335  0
Cl  Cl54  1  0.78353511  0.78353711  0.40348184  1  0  -0.595951  0  1.150283  0  0  -0.530355  0  1.473648  0  0  -0.544888  0  1.44588  0  0  -0.34848  -0.516366  0  1.490403  0
Cl  Cl55  1  0.21647302  0.21646893  0.59651468  1  0  -0.595964  0  1.15033  0  0  -0.53035  0  1.473675  0  0  -0.544882  0  1.445898  0  0  -0.348492  -0.516363  0  1.49043  0
