# generated using pymatgen
data_HoH15(C2O)9
_symmetry_space_group_name_H-M   'P 1'
_cell_length_a   7.84388340
_cell_length_b   9.47552462
_cell_length_c   12.55272526
_cell_angle_alpha   75.45797006
_cell_angle_beta   74.53136893
_cell_angle_gamma   75.68046762
_symmetry_Int_Tables_number   1
_chemical_formula_structural   HoH15(C2O)9
_chemical_formula_sum   'Ho2 H30 C36 O18'
_cell_volume   853.95662734
_cell_formula_units_Z   2
loop_
 _symmetry_equiv_pos_site_id
 _symmetry_equiv_pos_as_xyz
  1  'x, y, z'
loop_
 _atom_site_type_symbol
 _atom_site_label
 _atom_site_symmetry_multiplicity
 _atom_site_fract_x
 _atom_site_fract_y
 _atom_site_fract_z
 _atom_site_occupancy
 _atom_site_hle17_bader_spin_density
 _atom_site_hle17_ddec_charge
 _atom_site_hle17_ddec_spin_density
 _atom_site_hle17_ddec_sum_bond_order
 _atom_site_hle17_magmom
 _atom_site_hse06_10hf_bader_spin_density
 _atom_site_hse06_10hf_ddec_charge
 _atom_site_hse06_10hf_ddec_spin_density
 _atom_site_hse06_10hf_ddec_sum_bond_order
 _atom_site_hse06_10hf_magmom
 _atom_site_hse06_bader_spin_density
 _atom_site_hse06_ddec_charge
 _atom_site_hse06_ddec_spin_density
 _atom_site_hse06_ddec_sum_bond_order
 _atom_site_hse06_magmom
 _atom_site_pbe_bader_spin_density
 _atom_site_pbe_cm5_charge
 _atom_site_pbe_ddec_charge
 _atom_site_pbe_ddec_spin_density
 _atom_site_pbe_ddec_sum_bond_order
 _atom_site_pbe_magmom
Ho  Ho0  1  0.23295942  0.20579816  0.00034392  1  0  2.288014  0  1.636974  0  0  2.147237  0  2.110646  0  0  2.272096  0  1.920777  0  0  1.52313  2.11298  0  2.140598  0
Ho  Ho1  1  0.76704251  0.79420113  0.99965811  1  0  2.288019  0  1.636979  0  0  2.147184  0  2.110726  0  0  2.272097  0  1.920781  0  0  1.52313  2.112931  0  2.140678  0
H  H2  1  0.20786576  0.50898695  0.02594810  1  0  0.427343  0  0.880642  0  0  0.392799  0  0.950625  0  0  0.404613  0  0.933492  0  0  0.294712  0.384332  0  0.963093  0
H  H3  1  0.79213326  0.49101344  0.97405421  1  0  0.427302  0  0.880703  0  0  0.392764  0  0.950677  0  0  0.404579  0  0.933544  0  0  0.294695  0.384298  0  0.963145  0
H  H4  1  0.03301463  0.46302974  0.11210189  1  0  0.435042  0  0.862908  0  0  0.407509  0  0.921338  0  0  0.417276  0  0.907399  0  0  0.302987  0.400413  0  0.931728  0
H  H5  1  0.96698493  0.53696843  0.88790075  1  0  0.435015  0  0.862964  0  0  0.407483  0  0.921388  0  0  0.41725  0  0.907448  0  0  0.302983  0.400386  0  0.93178  0
H  H6  1  0.54790711  0.33804789  0.00243945  1  0  0.440382  0  0.8534  0  0  0.41036  0  0.91476  0  0  0.420953  0  0.899437  0  0  0.304259  0.403038  0  0.925425  0
H  H7  1  0.45209165  0.66195361  0.99756268  1  0  0.440422  0  0.853346  0  0  0.410396  0  0.914713  0  0  0.42099  0  0.899388  0  0  0.304276  0.403074  0  0.925379  0
H  H8  1  0.45587934  0.43620282  0.90498503  1  0  0.434403  0  0.848978  0  0  0.407441  0  0.911135  0  0  0.417435  0  0.896641  0  0  0.30907  0.40023  0  0.921781  0
H  H9  1  0.54411598  0.56379644  0.09501811  1  0  0.434475  0  0.848937  0  0  0.407514  0  0.911042  0  0  0.41751  0  0.896548  0  0  0.309097  0.400304  0  0.921681  0
H  H10  1  0.10304997  0.90506682  0.08991991  1  0  0.466149  0  0.823868  0  0  0.436268  0  0.883949  0  0  0.447897  0  0.867048  0  0  0.309421  0.42818  0  0.895779  0
H  H11  1  0.89694299  0.09493135  0.91008703  1  0  0.466142  0  0.823879  0  0  0.436296  0  0.883912  0  0  0.447926  0  0.86701  0  0  0.309453  0.428209  0  0.895741  0
H  H12  1  0.31669556  0.87246737  0.06083480  1  0  0.446793  0  0.83123  0  0  0.419074  0  0.894184  0  0  0.428462  0  0.880536  0  0  0.319051  0.41222  0  0.904477  0
H  H13  1  0.68329793  0.12753415  0.93917379  1  0  0.446786  0  0.83119  0  0  0.419057  0  0.894215  0  0  0.428448  0  0.880564  0  0  0.319037  0.412199  0  0.904516  0
H  H14  1  0.48008817  0.42586790  0.26176745  1  0  0.09638  0  0.953011  0  0  0.107007  0  1.013664  0  0  0.110601  0  1.011216  0  0  0.105175  0.104476  0  1.015289  0
H  H15  1  0.51991161  0.57413468  0.73822713  1  0  0.096384  0  0.953066  0  0  0.107009  0  1.013713  0  0  0.1106  0  1.01127  0  0  0.105172  0.10448  0  1.015338  0
H  H16  1  0.36381736  0.37404680  0.46798251  1  0  0.085064  0  0.996036  0  0  0.096169  0  1.058445  0  0  0.097782  0  1.059963  0  0  0.095128  0.09493  0  1.057556  0
H  H17  1  0.63619115  0.62595803  0.53201176  1  0  0.085127  0  0.99597  0  0  0.096239  0  1.058371  0  0  0.097851  0  1.059889  0  0  0.095128  0.094998  0  1.057481  0
H  H18  1  0.39481715  0.22536387  0.65793740  1  0  0.104103  0  0.958888  0  0  0.112952  0  1.023738  0  0  0.115762  0  1.022293  0  0  0.106291  0.111151  0  1.024187  0
H  H19  1  0.60518979  0.77463653  0.34206118  1  0  0.104108  0  0.958912  0  0  0.112952  0  1.023761  0  0  0.115767  0  1.022314  0  0  0.106278  0.111152  0  1.024209  0
H  H20  1  0.80517836  0.83110349  0.68803854  1  0  0.104043  0  0.943381  0  0  0.113697  0  1.003699  0  0  0.117268  0  1.00179  0  0  0.109252  0.110953  0  1.005421  0
H  H21  1  0.19482119  0.16889467  0.31196172  1  0  0.104046  0  0.943382  0  0  0.113698  0  1.00371  0  0  0.117269  0  1.001802  0  0  0.109264  0.110956  0  1.005422  0
H  H22  1  0.91928396  0.87836582  0.47998372  1  0  0.083634  0  0.991446  0  0  0.094051  0  1.05583  0  0  0.095652  0  1.0574  0  0  0.094352  0.09282  0  1.054901  0
H  H23  1  0.08071665  0.12163346  0.52001694  1  0  0.083617  0  0.991427  0  0  0.094026  0  1.055824  0  0  0.095628  0  1.057388  0  0  0.094352  0.092782  0  1.054909  0
H  H24  1  0.90788344  0.04249866  0.29104646  1  0  0.108648  0  0.944791  0  0  0.1168  0  1.010578  0  0  0.120534  0  1.00786  0  0  0.109917  0.11411  0  1.012545  0
H  H25  1  0.09211821  0.95750172  0.70895301  1  0  0.108671  0  0.944772  0  0  0.116818  0  1.010552  0  0  0.120552  0  1.007835  0  0  0.109926  0.114129  0  1.012519  0
H  H26  1  0.84686015  0.21692755  0.73362744  1  0  0.103255  0  0.954448  0  0  0.11275  0  1.017557  0  0  0.116327  0  1.015155  0  0  0.107926  0.110234  0  1.019095  0
H  H27  1  0.15313967  0.78306950  0.26637458  1  0  0.103145  0  0.954542  0  0  0.112703  0  1.017577  0  0  0.116278  0  1.015176  0  0  0.107924  0.110187  0  1.019115  0
H  H28  1  0.76983078  0.30016496  0.54592858  1  0  0.091998  0  0.996122  0  0  0.100938  0  1.060293  0  0  0.10271  0  1.06183  0  0  0.100134  0.099782  0  1.059052  0
H  H29  1  0.23016216  0.69983874  0.45407332  1  0  0.091954  0  0.996155  0  0  0.100894  0  1.06033  0  0  0.102666  0  1.061868  0  0  0.100118  0.099738  0  1.05909  0
H  H30  1  0.18801156  0.54075990  0.64641768  1  0  0.108319  0  0.958054  0  0  0.115069  0  1.026095  0  0  0.118004  0  1.025276  0  0  0.106229  0.112961  0  1.026629  0
H  H31  1  0.81198403  0.45924382  0.35358536  1  0  0.108315  0  0.958061  0  0  0.115072  0  1.026084  0  0  0.118007  0  1.025266  0  0  0.106238  0.112972  0  1.026608  0
C  C32  1  0.78379490  0.27744617  0.14086525  1  0  0.727514  0  3.815936  0  0  0.674691  0  4.109436  0  0  0.711343  0  4.098376  0  0  0.240035  0.649957  0  4.117257  0
C  C33  1  0.21620411  0.72255420  0.85913387  1  0  0.727575  0  3.815814  0  0  0.674759  0  4.109304  0  0  0.711414  0  4.098244  0  0  0.240052  0.650025  0  4.117126  0
C  C34  1  0.70465975  0.23781086  0.26414082  1  0  -0.069422  0  3.750349  0  0  -0.052687  0  3.995346  0  0  -0.060015  0  4.016451  0  0  -0.017247  -0.047601  0  3.980403  0
C  C35  1  0.29533846  0.76218727  0.73585569  1  0  -0.069472  0  3.750281  0  0  -0.052764  0  3.995299  0  0  -0.060093  0  4.016403  0  0  -0.017284  -0.047679  0  3.980359  0
C  C36  1  0.54743320  0.33047703  0.31450182  1  0  -0.066658  0  3.74684  0  0  -0.093225  0  4.003733  0  0  -0.093483  0  4.023215  0  0  -0.086198  -0.092647  0  3.990043  0
C  C37  1  0.45256448  0.66952332  0.68549355  1  0  -0.066642  0  3.746941  0  0  -0.093187  0  4.0038  0  0  -0.093443  0  4.02328  0  0  -0.086158  -0.092613  0  3.990114  0
C  C38  1  0.48222655  0.30158556  0.42917284  1  0  -0.111987  0  3.751099  0  0  -0.129426  0  3.99802  0  0  -0.132777  0  4.020346  0  0  -0.089823  -0.127234  0  3.982816  0
C  C39  1  0.51777801  0.69841371  0.57082476  1  0  -0.11207  0  3.751178  0  0  -0.129521  0  3.998082  0  0  -0.132871  0  4.020407  0  0  -0.089864  -0.127324  0  3.982876  0
C  C40  1  0.56701583  0.17704156  0.49944077  1  0  0.050871  0  3.799809  0  0  0.068304  0  4.02618  0  0  0.068099  0  4.049115  0  0  -0.005394  0.068225  0  4.010783  0
C  C41  1  0.43298740  0.82295770  0.50055626  1  0  0.050861  0  3.799626  0  0  0.068294  0  4.026004  0  0  0.06809  0  4.048939  0  0  -0.005411  0.068216  0  4.010607  0
C  C42  1  0.50802870  0.14915967  0.61823496  1  0  -0.096913  0  3.674642  0  0  -0.126696  0  3.921225  0  0  -0.125769  0  3.938481  0  0  -0.075094  -0.126821  0  3.908489  0
C  C43  1  0.49197109  0.85084291  0.38176121  1  0  -0.096914  0  3.674549  0  0  -0.126697  0  3.921145  0  0  -0.125774  0  3.938403  0  0  -0.075073  -0.126819  0  3.908401  0
C  C44  1  0.59439072  0.02784855  0.68507748  1  0  -0.065473  0  3.735748  0  0  -0.04529  0  3.972002  0  0  -0.052589  0  3.993231  0  0  -0.013913  -0.04018  0  3.956496  0
C  C45  1  0.40561463  0.97215294  0.31491876  1  0  -0.065509  0  3.735794  0  0  -0.045317  0  3.972092  0  0  -0.052613  0  3.993317  0  0  -0.013983  -0.04021  0  3.956589  0
C  C46  1  0.53702443  0.00441100  0.81097736  1  0  0.732001  0  3.857062  0  0  0.68507  0  4.146107  0  0  0.721737  0  4.138101  0  0  0.236754  0.660316  0  4.154199  0
C  C47  1  0.46297987  0.99558939  0.18902166  1  0  0.73197  0  3.856944  0  0  0.684966  0  4.146126  0  0  0.721631  0  4.138125  0  0  0.236734  0.660215  0  4.154213  0
C  C48  1  0.74201002  0.92777033  0.63401349  1  0  -0.067676  0  3.732827  0  0  -0.091559  0  3.985249  0  0  -0.092481  0  4.005934  0  0  -0.081515  -0.090602  0  3.970705  0
C  C49  1  0.25799217  0.07222783  0.36598553  1  0  -0.067719  0  3.73272  0  0  -0.0916  0  3.985147  0  0  -0.092524  0  4.005832  0  0  -0.081518  -0.090641  0  3.970601  0
C  C50  1  0.80424857  0.95384344  0.51883493  1  0  -0.104505  0  3.743328  0  0  -0.122753  0  3.99278  0  0  -0.125892  0  4.015277  0  0  -0.085625  -0.120721  0  3.977439  0
C  C51  1  0.19575335  0.04615583  0.48116471  1  0  -0.104404  0  3.743092  0  0  -0.122638  0  3.992536  0  0  -0.125775  0  4.015034  0  0  -0.085597  -0.120596  0  3.977204  0
C  C52  1  0.72128103  0.07940783  0.44845310  1  0  0.052961  0  3.784727  0  0  0.068529  0  4.013377  0  0  0.06799  0  4.037263  0  0  -0.004442  0.068919  0  3.9973  0
C  C53  1  0.27871692  0.92058586  0.55154590  1  0  0.052904  0  3.784708  0  0  0.068456  0  4.013379  0  0  0.067916  0  4.037266  0  0  -0.004439  0.068846  0  3.997297  0
C  C54  1  0.78831145  0.11389352  0.33041762  1  0  -0.094112  0  3.671299  0  0  -0.124406  0  3.92007  0  0  -0.123874  0  3.938324  0  0  -0.072535  -0.124483  0  3.907252  0
C  C55  1  0.21168994  0.88610797  0.66958089  1  0  -0.094103  0  3.671235  0  0  -0.124373  0  3.919985  0  0  -0.123841  0  3.938241  0  0  -0.072533  -0.124451  0  3.907172  0
C  C56  1  0.08212184  0.31718310  0.80905744  1  0  0.65186  0  3.910203  0  0  0.602646  0  4.201911  0  0  0.636142  0  4.199705  0  0  0.204159  0.578979  0  4.208299  0
C  C57  1  0.91788088  0.68281841  0.19094403  1  0  0.651777  0  3.910175  0  0  0.602579  0  4.201874  0  0  0.636073  0  4.199672  0  0  0.204149  0.57891  0  4.208263  0
C  C58  1  0.02474574  0.37370617  0.69997933  1  0  -0.058928  0  3.763071  0  0  -0.037812  0  4.000367  0  0  -0.044454  0  4.020804  0  0  -0.016261  -0.033148  0  3.985799  0
C  C59  1  0.97525460  0.62629422  0.30002275  1  0  -0.058792  0  3.762869  0  0  -0.037723  0  4.000218  0  0  -0.044357  0  4.020651  0  0  -0.016261  -0.033058  0  3.98565  0
C  C60  1  0.90487874  0.30561492  0.67193870  1  0  -0.063257  0  3.71719  0  0  -0.087813  0  3.966438  0  0  -0.088164  0  3.985292  0  0  -0.080505  -0.087195  0  3.953082  0
C  C61  1  0.09512108  0.69438214  0.32806411  1  0  -0.063239  0  3.717105  0  0  -0.087829  0  3.966361  0  0  -0.08818  0  3.985212  0  0  -0.080541  -0.087213  0  3.953008  0
C  C62  1  0.86292980  0.35124869  0.56743083  1  0  -0.104621  0  3.731061  0  0  -0.121064  0  3.976069  0  0  -0.12343  0  3.996105  0  0  -0.082087  -0.119271  0  3.962103  0
C  C63  1  0.13706711  0.64874948  0.43257226  1  0  -0.104495  0  3.730929  0  0  -0.120966  0  3.975909  0  0  -0.123334  0  3.995948  0  0  -0.082049  -0.119175  0  3.961948  0
C  C64  1  0.94105424  0.46437170  0.48538038  1  0  0.053312  0  3.784654  0  0  0.070522  0  4.008809  0  0  0.070231  0  4.031235  0  0  -0.00105  0.070693  0  3.993506  0
C  C65  1  0.05894505  0.53562757  0.51462050  1  0  0.053167  0  3.784607  0  0  0.070503  0  4.008659  0  0  0.070214  0  4.031083  0  0  -0.001076  0.070675  0  3.993354  0
C  C66  1  0.09695084  0.48879698  0.62348086  1  0  -0.093172  0  3.660757  0  0  -0.12233  0  3.903815  0  0  -0.12098  0  3.920189  0  0  -0.069759  -0.122944  0  3.892229  0
C  C67  1  0.90304845  0.51120231  0.37652241  1  0  -0.093263  0  3.660726  0  0  -0.122379  0  3.903831  0  0  -0.121032  0  3.920206  0  0  -0.069772  -0.122999  0  3.892241  0
O  O68  1  0.15826120  0.42201893  0.07771109  1  0  -0.93426  0  1.884876  0  0  -0.886271  0  2.078483  0  0  -0.91553  0  2.040665  0  0  -0.656588  -0.872653  0  2.101405  0
O  O69  1  0.84173941  0.57798035  0.92229116  1  0  -0.934194  0  1.88495  0  0  -0.886207  0  2.078556  0  0  -0.91547  0  2.040734  0  0  -0.65656  -0.872589  0  2.101478  0
O  O70  1  0.49210802  0.33177704  0.94171796  1  0  -0.887908  0  1.86984  0  0  -0.83706  0  2.058401  0  0  -0.864526  0  2.022698  0  0  -0.622258  -0.823687  0  2.080368  0
O  O71  1  0.50788836  0.66822335  0.05828558  1  0  -0.888024  0  1.869814  0  0  -0.837167  0  2.058322  0  0  -0.864639  0  2.022604  0  0  -0.622283  -0.823788  0  2.080298  0
O  O72  1  0.21097191  0.95298458  0.06150070  1  0  -0.92945  0  1.835323  0  0  -0.88299  0  2.036275  0  0  -0.9112  0  1.996925  0  0  -0.642705  -0.87042  0  2.059749  0
O  O73  1  0.78901919  0.04701580  0.93850453  1  0  -0.929453  0  1.835347  0  0  -0.883014  0  2.036265  0  0  -0.911235  0  1.996913  0  0  -0.642714  -0.870444  0  2.05974  0
O  O74  1  0.94647386  0.21800971  0.10468065  1  0  -0.747278  0  2.045958  0  0  -0.690622  0  2.308717  0  0  -0.729459  0  2.291619  0  0  -0.410663  -0.671968  0  2.316847  0
O  O75  1  0.05352356  0.78199176  0.89531694  1  0  -0.747324  0  2.045907  0  0  -0.690643  0  2.308624  0  0  -0.729488  0  2.29152  0  0  -0.410697  -0.67199  0  2.316755  0
O  O76  1  0.68649682  0.37259586  0.07783682  1  0  -0.675659  0  2.017098  0  0  -0.60426  0  2.232004  0  0  -0.629381  0  2.217062  0  0  -0.307718  -0.586123  0  2.241335  0
O  O77  1  0.31350219  0.62740450  0.92216150  1  0  -0.675642  0  2.017042  0  0  -0.604241  0  2.231943  0  0  -0.629363  0  2.217001  0  0  -0.307668  -0.586104  0  2.241277  0
O  O78  1  0.60131722  0.88010207  0.86795646  1  0  -0.764607  0  2.059773  0  0  -0.710913  0  2.323749  0  0  -0.748965  0  2.306442  0  0  -0.425368  -0.69282  0  2.332877  0
O  O79  1  0.39869738  0.11989945  0.13203901  1  0  -0.764562  0  2.059604  0  0  -0.710854  0  2.323616  0  0  -0.748891  0  2.306311  0  0  -0.425379  -0.692763  0  2.332743  0
O  O80  1  0.43236019  0.10962724  0.85507375  1  0  -0.749097  0  2.097866  0  0  -0.696332  0  2.359913  0  0  -0.73378  0  2.344828  0  0  -0.403449  -0.678427  0  2.36729  0
O  O81  1  0.56763619  0.89036758  0.14492848  1  0  -0.749046  0  2.097851  0  0  -0.696241  0  2.359929  0  0  -0.733702  0  2.344851  0  0  -0.403394  -0.67833  0  2.367288  0
O  O82  1  0.15982619  0.39667984  0.84349739  1  0  -0.721928  0  2.010888  0  0  -0.667919  0  2.250818  0  0  -0.701131  0  2.239916  0  0  -0.380366  -0.649997  0  2.257235  0
O  O83  1  0.84017758  0.60332278  0.15650209  1  0  -0.721896  0  2.010952  0  0  -0.667867  0  2.250839  0  0  -0.701085  0  2.23993  0  0  -0.380363  -0.64996  0  2.257289  0
O  O84  1  0.06028886  0.18904629  0.86721940  1  0  -0.685083  0  2.040145  0  0  -0.628433  0  2.273438  0  0  -0.661023  0  2.262784  0  0  -0.3474  -0.610937  0  2.280413  0
O  O85  1  0.93971360  0.81095634  0.13278190  1  0  -0.68511  0  2.040129  0  0  -0.628455  0  2.273454  0  0  -0.661055  0  2.2628  0  0  -0.347406  -0.610961  0  2.280432  0
