# generated using pymatgen
data_CaH12(C5O4)2
_symmetry_space_group_name_H-M   'P 1'
_cell_length_a   7.74610934
_cell_length_b   9.89149998
_cell_length_c   15.79500000
_cell_angle_alpha   90.64589232
_cell_angle_beta   90.00000000
_cell_angle_gamma   90.00000000
_symmetry_Int_Tables_number   1
_chemical_formula_structural   CaH12(C5O4)2
_chemical_formula_sum   'Ca4 H48 C40 O32'
_cell_volume   1210.14611868
_cell_formula_units_Z   4
loop_
 _symmetry_equiv_pos_site_id
 _symmetry_equiv_pos_as_xyz
  1  'x, y, z'
loop_
 _atom_site_type_symbol
 _atom_site_label
 _atom_site_symmetry_multiplicity
 _atom_site_fract_x
 _atom_site_fract_y
 _atom_site_fract_z
 _atom_site_occupancy
 _atom_site_hle17_bader_spin_density
 _atom_site_hle17_ddec_charge
 _atom_site_hle17_ddec_spin_density
 _atom_site_hle17_ddec_sum_bond_order
 _atom_site_hle17_magmom
 _atom_site_hse06_10hf_bader_spin_density
 _atom_site_hse06_10hf_ddec_charge
 _atom_site_hse06_10hf_ddec_spin_density
 _atom_site_hse06_10hf_ddec_sum_bond_order
 _atom_site_hse06_10hf_magmom
 _atom_site_hse06_bader_spin_density
 _atom_site_hse06_ddec_charge
 _atom_site_hse06_ddec_spin_density
 _atom_site_hse06_ddec_sum_bond_order
 _atom_site_hse06_magmom
 _atom_site_pbe_bader_charge
 _atom_site_pbe_bader_spin_density
 _atom_site_pbe_cm5_charge
 _atom_site_pbe_ddec_charge
 _atom_site_pbe_ddec_spin_density
 _atom_site_pbe_ddec_sum_bond_order
 _atom_site_pbe_magmom
Ca  Ca0  1  0.45530083  0.31091194  0.63405495  1  0  1.555011  0  1.097851  0  0  1.417566  0  1.452077  0  0  1.460347  0  1.407239  0  1.646953  0  0.877919  1.385642  0  1.48385  0
Ca  Ca1  1  0.95530797  0.18908344  0.36594704  1  0  1.555029  0  1.097881  0  0  1.417616  0  1.452058  0  0  1.460382  0  1.407246  0  1.647049  0  0.877961  1.385695  0  1.483833  0
Ca  Ca2  1  0.54470055  0.68908488  0.36594718  1  0  1.555031  0  1.097982  0  0  1.417666  0  1.452092  0  0  1.460396  0  1.407338  0  1.646969  0  0.87797  1.385746  0  1.483866  0
Ca  Ca3  1  0.04469470  0.81091136  0.63405191  1  0  1.554971  0  1.098028  0  0  1.417626  0  1.45212  0  0  1.46039  0  1.407306  0  1.647042  0  0.877919  1.385702  0  1.483901  0
H  H4  1  0.27589980  0.47145896  0.50977585  1  0  0.428424  0  0.867668  0  0  0.397016  0  0.934287  0  0  0.407815  0  0.91846  0  0.658332  0  0.310113  0.389367  0  0.94548  0
H  H5  1  0.77589403  0.02854147  0.49022428  1  0  0.428447  0  0.867693  0  0  0.39704  0  0.934259  0  0  0.40784  0  0.918433  0  0.658341  0  0.310132  0.389391  0  0.945452  0
H  H6  1  0.72410287  0.52853887  0.49022565  1  0  0.42844  0  0.867661  0  0  0.397001  0  0.934305  0  0  0.4078  0  0.91848  0  0.658325  0  0.310125  0.389353  0  0.945499  0
H  H7  1  0.22410476  0.97145535  0.50977342  1  0  0.428417  0  0.867664  0  0  0.397013  0  0.934287  0  0  0.40781  0  0.918463  0  0.658094  0  0.310143  0.389363  0  0.94548  0
H  H8  1  0.20404953  0.51231178  0.60139188  1  0  0.417245  0  0.891245  0  0  0.38278  0  0.96181  0  0  0.394813  0  0.944122  0  0.640908  0  0.301447  0.374264  0  0.97429  0
H  H9  1  0.70404635  0.98768749  0.39860849  1  0  0.417267  0  0.891213  0  0  0.382803  0  0.961771  0  0  0.394837  0  0.944082  0  0.640902  0  0.301456  0.374287  0  0.974251  0
H  H10  1  0.79594926  0.48768402  0.39860961  1  0  0.417203  0  0.891303  0  0  0.382726  0  0.96189  0  0  0.394759  0  0.944203  0  0.640899  0  0.301415  0.374209  0  0.974371  0
H  H11  1  0.29594599  0.01231135  0.60139049  1  0  0.417259  0  0.891228  0  0  0.382779  0  0.961816  0  0  0.394812  0  0.94413  0  0.640925  0  0.301438  0.374263  0  0.974297  0
H  H12  1  0.36207338  0.24874552  0.45073606  1  0  0.427786  0  0.867254  0  0  0.395722  0  0.932639  0  0  0.406919  0  0.916231  0  0.630438  0  0.304037  0.387699  0  0.9444  0
H  H13  1  0.86207407  0.25125592  0.54926471  1  0  0.427778  0  0.867251  0  0  0.395706  0  0.93265  0  0  0.406904  0  0.91624  0  0.630446  0  0.304047  0.387682  0  0.944411  0
H  H14  1  0.63793316  0.75125938  0.54926106  1  0  0.427677  0  0.86738  0  0  0.395648  0  0.932729  0  0  0.406844  0  0.916321  0  0.630427  0  0.304023  0.387625  0  0.944489  0
H  H15  1  0.13792602  0.74874292  0.45073364  1  0  0.427823  0  0.867204  0  0  0.395747  0  0.932606  0  0  0.406941  0  0.916201  0  0.630441  0  0.304023  0.387723  0  0.944368  0
H  H16  1  0.53376861  0.16179868  0.47017165  1  0  0.432101  0  0.86044  0  0  0.401947  0  0.922178  0  0  0.412705  0  0.906353  0  0.64394  0  0.300451  0.394276  0  0.933451  0
H  H17  1  0.03377050  0.33820175  0.52982848  1  0  0.432113  0  0.860433  0  0  0.401956  0  0.922174  0  0  0.412715  0  0.906348  0  0.643946  0  0.300464  0.394286  0  0.933446  0
H  H18  1  0.46623793  0.83820824  0.52982485  1  0  0.432138  0  0.860387  0  0  0.401945  0  0.922184  0  0  0.412704  0  0.906358  0  0.643967  0  0.300453  0.394271  0  0.933464  0
H  H19  1  0.96623087  0.66179608  0.47017049  1  0  0.432085  0  0.860462  0  0  0.401927  0  0.922205  0  0  0.412685  0  0.90638  0  0.64392  0  0.30042  0.394257  0  0.933479  0
H  H20  1  0.93755583  0.42676826  0.69259300  1  0  0.091467  0  0.926167  0  0  0.104445  0  0.985417  0  0  0.106482  0  0.983363  0  0.057885  0  0.117391  0.102801  0  0.987366  0
H  H21  1  0.43756289  0.07323217  0.30740523  1  0  0.091439  0  0.926098  0  0  0.104434  0  0.985368  0  0  0.106473  0  0.983309  0  0.057888  0  0.117395  0.102796  0  0.987323  0
H  H22  1  0.06244167  0.57323462  0.30740601  1  0  0.091437  0  0.926165  0  0  0.104424  0  0.985423  0  0  0.106462  0  0.983367  0  0.057865  0  0.117383  0.102782  0  0.987377  0
H  H23  1  0.56244365  0.92676464  0.69259246  1  0  0.091475  0  0.926132  0  0  0.104451  0  0.98539  0  0  0.106487  0  0.983336  0  0.05786  0  0.117395  0.1028  0  0.987339  0
H  H24  1  0.86233097  0.55422012  0.76509198  1  0  0.083664  0  0.95653  0  0  0.09002  0  1.029614  0  0  0.090386  0  1.030995  0  0.079782  0  0.109669  0.090208  0  1.028066  0
H  H25  1  0.36234061  0.94578521  0.23490338  1  0  0.083586  0  0.956586  0  0  0.089932  0  1.029713  0  0  0.090279  0  1.031149  0  0.079737  0  0.10962  0.090137  0  1.028139  0
H  H26  1  0.13766524  0.44578074  0.23490828  1  0  0.083578  0  0.95656  0  0  0.089959  0  1.029651  0  0  0.090311  0  1.031071  0  0.079772  0  0.109653  0.090162  0  1.028075  0
H  H27  1  0.63766851  0.05421666  0.76509182  1  0  0.083659  0  0.956523  0  0  0.089996  0  1.029648  0  0  0.090359  0  1.031031  0  0.079806  0  0.109656  0.090187  0  1.028072  0
H  H28  1  0.50205204  0.33323656  0.87393841  1  0  0.121655  0  0.965872  0  0  0.125549  0  1.039496  0  0  0.130112  0  1.03615  0  0.108707  0  0.107854  0.122114  0  1.042226  0
H  H29  1  0.00205393  0.16676791  0.12606365  1  0  0.121618  0  0.96584  0  0  0.125491  0  1.039511  0  0  0.130051  0  1.036168  0  0.108711  0  0.107838  0.122079  0  1.042217  0
H  H30  1  0.49794675  0.66676632  0.12606439  1  0  0.121662  0  0.96586  0  0  0.125538  0  1.039521  0  0  0.130099  0  1.036177  0  0.108729  0  0.107854  0.122127  0  1.042227  0
H  H31  1  0.99794615  0.83323598  0.87393663  1  0  0.121641  0  0.965898  0  0  0.125533  0  1.039524  0  0  0.130096  0  1.036177  0  0.108719  0  0.107845  0.122098  0  1.042254  0
H  H32  1  0.56874617  0.16682251  0.98870917  1  0  0.088154  0  0.949042  0  0  0.101378  0  1.002549  0  0  0.10351  0  1.001832  0  0.056131  0  0.099971  0.099746  0  1.003275  0
H  H33  1  0.06874548  0.33318500  0.01129291  1  0  0.088127  0  0.949063  0  0  0.101353  0  1.002563  0  0  0.103484  0  1.001849  0  0.056131  0  0.099959  0.09972  0  1.003289  0
H  H34  1  0.43125908  0.83318341  0.01129429  1  0  0.088116  0  0.949091  0  0  0.10135  0  1.002583  0  0  0.103484  0  1.001864  0  0.056117  0  0.099964  0.099718  0  1.003307  0
H  H35  1  0.93125590  0.66681991  0.98870801  1  0  0.088162  0  0.949048  0  0  0.10139  0  1.002548  0  0  0.103521  0  1.001833  0  0.056133  0  0.099972  0.099757  0  1.003274  0
H  H36  1  0.85621564  0.05316822  0.99271089  1  0  0.121472  0  0.97127  0  0  0.127239  0  1.038966  0  0  0.131623  0  1.036446  0  0.112586  0  0.104677  0.124289  0  1.040475  0
H  H37  1  0.35621754  0.44683626  0.00729117  1  0  0.121472  0  0.971212  0  0  0.12723  0  1.038918  0  0  0.131613  0  1.0364  0  0.112563  0  0.104653  0.12428  0  1.040426  0
H  H38  1  0.14378573  0.94683568  0.00729066  1  0  0.12148  0  0.971255  0  0  0.127239  0  1.038968  0  0  0.131622  0  1.036452  0  0.112571  0  0.10467  0.124289  0  1.040474  0
H  H39  1  0.64378384  0.55316865  0.99270975  1  0  0.121493  0  0.971235  0  0  0.127261  0  1.038927  0  0  0.131644  0  1.036408  0  0.112592  0  0.104687  0.12431  0  1.040435  0
H  H40  1  0.00587521  0.26645781  0.76701748  1  0  0.124873  0  0.973992  0  0  0.135006  0  1.036303  0  0  0.138949  0  1.034046  0  0.076521  0  0.109652  0.132146  0  1.038151  0
H  H41  1  0.50587590  0.23354262  0.23298391  1  0  0.124851  0  0.974004  0  0  0.13498  0  1.036322  0  0  0.138924  0  1.034067  0  0.076467  0  0.109647  0.132122  0  1.038169  0
H  H42  1  0.99412617  0.73354204  0.23298340  1  0  0.124864  0  0.974011  0  0  0.134996  0  1.036323  0  0  0.13894  0  1.034065  0  0.076517  0  0.109647  0.132137  0  1.038171  0
H  H43  1  0.49412677  0.76645824  0.76701571  1  0  0.124872  0  0.974004  0  0  0.134985  0  1.036345  0  0  0.138929  0  1.034088  0  0.076513  0  0.109639  0.132126  0  1.038193  0
H  H44  1  0.36092054  0.10064229  0.86775638  1  0  0.098087  0  0.925951  0  0  0.112982  0  0.98357  0  0  0.113979  0  0.983033  0  0.101405  0  0.116906  0.112434  0  0.983758  0
H  H45  1  0.86092381  0.39935207  0.13224561  1  0  0.098018  0  0.92591  0  0  0.112961  0  0.983532  0  0  0.113957  0  0.982989  0  0.101436  0  0.116893  0.11241  0  0.983719  0
H  H46  1  0.63907696  0.89935048  0.13224319  1  0  0.098025  0  0.925942  0  0  0.112937  0  0.983555  0  0  0.113936  0  0.983015  0  0.101344  0  0.116888  0.112388  0  0.983741  0
H  H47  1  0.13907498  0.60065284  0.86775848  1  0  0.098017  0  0.925952  0  0  0.112945  0  0.983565  0  0  0.113943  0  0.983021  0  0.101368  0  0.116881  0.112395  0  0.98375  0
H  H48  1  0.24447241  0.24050661  0.82718882  1  0  0.09289  0  0.956901  0  0  0.10042  0  1.025962  0  0  0.102822  0  1.023633  0  0.095836  0  0.112373  0.098597  0  1.027936  0
H  H49  1  0.74447439  0.25948775  0.17281190  1  0  0.092988  0  0.956704  0  0  0.100521  0  1.025795  0  0  0.10292  0  1.023463  0  0.095767  0  0.112421  0.098696  0  1.02777  0
H  H50  1  0.75552768  0.75948717  0.17281075  1  0  0.093021  0  0.956674  0  0  0.1005  0  1.025785  0  0  0.102902  0  1.023457  0  0.095768  0  0.112417  0.098676  0  1.027761  0
H  H51  1  0.25552828  0.74051008  0.82718581  1  0  0.093053  0  0.956705  0  0  0.100557  0  1.025789  0  0  0.102957  0  1.023459  0  0.095774  0  0.112439  0.098733  0  1.027761  0
C  C52  1  0.74450924  0.55317370  0.64013999  1  0  0.706808  0  3.845868  0  0  0.654323  0  4.149469  0  0  0.687947  0  4.14021  0  1.633387  0  0.234339  0.631439  0  4.155272  0
C  C53  1  0.24451501  0.94682051  0.35985592  1  0  0.706685  0  3.845944  0  0  0.654322  0  4.149349  0  0  0.687944  0  4.140086  0  1.633333  0  0.234485  0.631449  0  4.15516  0
C  C54  1  0.25547922  0.44681604  0.35986146  1  0  0.706681  0  3.846287  0  0  0.654225  0  4.149871  0  0  0.687857  0  4.1406  0  1.633395  0  0.234315  0.631345  0  4.155681  0
C  C55  1  0.75548249  0.05318439  0.64013867  1  0  0.706748  0  3.846274  0  0  0.654254  0  4.149878  0  0  0.687881  0  4.140616  0  1.633357  0  0.234324  0.631365  0  4.155685  0
C  C56  1  0.82247613  0.48120532  0.71597254  1  0  -0.069389  0  3.622911  0  0  -0.127219  0  3.886317  0  0  -0.123804  0  3.886957  0  0.420072  0  -0.058129  -0.129865  0  3.886399  0
C  C57  1  0.32248447  0.01879410  0.28402441  1  0  -0.069131  0  3.622689  0  0  -0.127075  0  3.886193  0  0  -0.123665  0  3.886826  0  0.420048  0  -0.058082  -0.129752  0  3.886314  0
C  C58  1  0.17752009  0.51879352  0.28402834  1  0  -0.069217  0  3.622811  0  0  -0.12714  0  3.88629  0  0  -0.123723  0  3.886921  0  0.42014  0  -0.058109  -0.129806  0  3.886398  0
C  C59  1  0.67752336  0.98120474  0.71597077  1  0  -0.069402  0  3.623012  0  0  -0.12723  0  3.886421  0  0  -0.123811  0  3.887062  0  0.420167  0  -0.058142  -0.129862  0  3.886467  0
C  C60  1  0.74838990  0.30637745  0.81446485  1  0  0.289832  0  3.817566  0  0  0.283101  0  4.07895  0  0  0.295272  0  4.094577  0  0.40016  0  0.082462  0.275425  0  4.067524  0
C  C61  1  0.24839309  0.19362500  0.18553656  1  0  0.28986  0  3.817551  0  0  0.283167  0  4.07884  0  0  0.295342  0  4.094455  0  0.400522  0  0.082459  0.275491  0  4.067416  0
C  C62  1  0.25160889  0.69362341  0.18553604  1  0  0.28981  0  3.817613  0  0  0.283049  0  4.079012  0  0  0.295226  0  4.094625  0  0.400378  0  0.08243  0.275368  0  4.06759  0
C  C63  1  0.75161087  0.80637788  0.81446371  1  0  0.28982  0  3.817569  0  0  0.283077  0  4.078971  0  0  0.295249  0  4.094595  0  0.400178  0  0.082432  0.275384  0  4.067545  0
C  C64  1  0.62479882  0.27990152  0.87630200  1  0  -0.221042  0  3.766888  0  0  -0.250276  0  4.034326  0  0  -0.256746  0  4.052473  0  0.026191  0  -0.11492  -0.245838  0  4.021346  0
C  C65  1  0.12480072  0.22010396  0.12370006  1  0  -0.22099  0  3.766788  0  0  -0.250201  0  4.034162  0  0  -0.256679  0  4.052329  0  0.026216  0  -0.114906  -0.245782  0  4.021164  0
C  C66  1  0.37519997  0.72009934  0.12370016  1  0  -0.221003  0  3.766842  0  0  -0.250212  0  4.034245  0  0  -0.256688  0  4.05241  0  0.026143  0  -0.114887  -0.245793  0  4.021249  0
C  C67  1  0.87519937  0.77990297  0.87630087  1  0  -0.220961  0  3.766807  0  0  -0.250178  0  4.034216  0  0  -0.256654  0  4.052382  0  0.026362  0  -0.114884  -0.24574  0  4.021237  0
C  C68  1  0.66427154  0.18750623  0.93975104  1  0  -0.029704  0  3.81732  0  0  -0.039757  0  4.067917  0  0  -0.036712  0  4.087027  0  -0.073107  0  -0.094213  -0.04198  0  4.054963  0
C  C69  1  0.16427344  0.31250128  0.06025167  1  0  -0.029668  0  3.817297  0  0  -0.03972  0  4.067895  0  0  -0.036675  0  4.086997  0  -0.073837  0  -0.094205  -0.041945  0  4.054948  0
C  C70  1  0.33572854  0.81249868  0.06025051  1  0  -0.029668  0  3.817332  0  0  -0.039722  0  4.067913  0  0  -0.036677  0  4.087017  0  -0.073347  0  -0.09422  -0.041947  0  4.054967  0
C  C71  1  0.83572665  0.68750464  0.93975116  1  0  -0.029763  0  3.817361  0  0  -0.039825  0  4.067969  0  0  -0.036782  0  4.087077  0  -0.073252  0  -0.094259  -0.042048  0  4.055014  0
C  C72  1  0.82441000  0.12406086  0.94283402  1  0  -0.206512  0  3.738403  0  0  -0.231991  0  3.997861  0  0  -0.239246  0  4.016926  0  -0.012254  0  -0.11445  -0.22728  0  3.984909  0
C  C73  1  0.32441189  0.37594665  0.05717060  1  0  -0.206578  0  3.73837  0  0  -0.232051  0  3.997874  0  0  -0.239303  0  4.016932  0  -0.011633  0  -0.11441  -0.227339  0  3.984922  0
C  C74  1  0.17558879  0.87594304  0.05716816  1  0  -0.206533  0  3.738553  0  0  -0.232019  0  3.998011  0  0  -0.239273  0  4.01707  0  -0.012127  0  -0.114401  -0.227305  0  3.985056  0
C  C75  1  0.67558819  0.62405825  0.94283159  1  0  -0.206525  0  3.73849  0  0  -0.232006  0  3.997942  0  0  -0.239259  0  4.016999  0  -0.012181  0  -0.11441  -0.227293  0  3.984989  0
C  C76  1  0.94853296  0.15449397  0.88121030  1  0  0.300834  0  3.804106  0  0  0.291052  0  4.066666  0  0  0.303813  0  4.082115  0  0.43037  0  0.085516  0.282484  0  4.05621  0
C  C77  1  0.44853614  0.34550848  0.11879238  1  0  0.30091  0  3.804216  0  0  0.291074  0  4.066809  0  0  0.303847  0  4.082253  0  0.429811  0  0.085534  0.282507  0  4.056354  0
C  C78  1  0.05146713  0.84550588  0.11879122  1  0  0.300851  0  3.804258  0  0  0.291057  0  4.066806  0  0  0.30383  0  4.082248  0  0.430045  0  0.085498  0.282486  0  4.056351  0
C  C79  1  0.55146653  0.65449339  0.88120789  1  0  0.300926  0  3.804134  0  0  0.291122  0  4.066663  0  0  0.303911  0  4.082107  0  0.429897  0  0.085548  0.282554  0  4.056207  0
C  C80  1  0.91166542  0.24542529  0.81617321  1  0  -0.331032  0  3.724981  0  0  -0.357434  0  3.976961  0  0  -0.366205  0  3.994564  0  -0.044489  0  -0.125406  -0.351587  0  3.965058  0
C  C81  1  0.41166860  0.25457514  0.18382755  1  0  -0.331054  0  3.72513  0  0  -0.357457  0  3.977089  0  0  -0.366224  0  3.994681  0  -0.044077  0  -0.125397  -0.35161  0  3.965182  0
C  C82  1  0.08833467  0.75457557  0.18382768  1  0  -0.331043  0  3.725087  0  0  -0.357449  0  3.977069  0  0  -0.366216  0  3.994661  0  -0.044245  0  -0.125407  -0.3516  0  3.965163  0
C  C83  1  0.58833536  0.74542471  0.81617144  1  0  -0.331051  0  3.725064  0  0  -0.357453  0  3.977061  0  0  -0.366222  0  3.994655  0  -0.044108  0  -0.125409  -0.351604  0  3.965156  0
C  C84  1  0.24145670  0.13031410  0.83532134  1  0  -0.082249  0  3.625088  0  0  -0.141769  0  3.88469  0  0  -0.138056  0  3.884734  0  0.393255  0  -0.064149  -0.144401  0  3.884846  0
C  C85  1  0.74145868  0.36968027  0.16468001  1  0  -0.082157  0  3.624728  0  0  -0.14185  0  3.884545  0  0  -0.138111  0  3.884564  0  0.393386  0  -0.064175  -0.144472  0  3.884689  0
C  C86  1  0.75854209  0.86968070  0.16467824  1  0  -0.08226  0  3.624842  0  0  -0.141788  0  3.884453  0  0  -0.138065  0  3.884491  0  0.393473  0  -0.064161  -0.144417  0  3.884602  0
C  C87  1  0.25854012  0.63031857  0.83532086  1  0  -0.082303  0  3.625005  0  0  -0.141917  0  3.884637  0  0  -0.138171  0  3.884669  0  0.393353  0  -0.064195  -0.144538  0  3.884776  0
C  C88  1  0.24104875  0.05807678  0.74899499  1  0  0.698728  0  3.853968  0  0  0.647313  0  4.162121  0  0  0.680302  0  4.153968  0  1.602051  0  0.226264  0.624771  0  4.167053  0
C  C89  1  0.74105331  0.44191758  0.25100637  1  0  0.698539  0  3.854178  0  0  0.647157  0  4.162331  0  0  0.680142  0  4.154172  0  1.601939  0  0.226103  0.624612  0  4.167263  0
C  C90  1  0.75894488  0.94192206  0.25100399  1  0  0.698509  0  3.854316  0  0  0.647106  0  4.162432  0  0  0.680094  0  4.154277  0  1.601966  0  0.226183  0.624562  0  4.167363  0
C  C91  1  0.25893773  0.55807216  0.74899698  1  0  0.698523  0  3.854422  0  0  0.647225  0  4.162413  0  0  0.680212  0  4.154257  0  1.601995  0  0.22632  0.624681  0  4.167341  0
O  O92  1  0.63517177  0.48961307  0.59482012  1  0  -0.697035  0  1.982199  0  0  -0.633632  0  2.219833  0  0  -0.659848  0  2.207064  0  -1.227788  0  -0.359964  -0.615091  0  2.228108  0
O  O93  1  0.13518012  0.01038028  0.40517743  1  0  -0.696993  0  1.982182  0  0  -0.633644  0  2.219797  0  0  -0.659848  0  2.207016  0  -1.227608  0  -0.360038  -0.615106  0  2.228072  0
O  O94  1  0.36482444  0.51038880  0.40518331  1  0  -0.697048  0  1.982061  0  0  -0.633669  0  2.219657  0  0  -0.65988  0  2.206884  0  -1.227717  0  -0.359971  -0.615128  0  2.227932  0
O  O95  1  0.86483158  0.98961249  0.59481645  1  0  -0.697084  0  1.981925  0  0  -0.633719  0  2.219573  0  0  -0.659941  0  2.206809  0  -1.227766  0  -0.360008  -0.615182  0  2.227856  0
O  O96  1  0.79822653  0.67095200  0.62380778  1  0  -0.693927  0  2.010416  0  0  -0.628966  0  2.25162  0  0  -0.657104  0  2.24188  0  -1.222868  0  -0.354447  -0.609026  0  2.257712  0
O  O97  1  0.29823746  0.82904525  0.37618752  1  0  -0.693958  0  2.010653  0  0  -0.629028  0  2.251809  0  0  -0.657162  0  2.242073  0  -1.222947  0  -0.35453  -0.60908  0  2.257871  0
O  O98  1  0.20177484  0.32904987  0.37619186  1  0  -0.693832  0  2.010986  0  0  -0.628862  0  2.252184  0  0  -0.65701  0  2.242453  0  -1.223037  0  -0.354385  -0.608919  0  2.25826  0
O  O99  1  0.70177682  0.17094752  0.62380825  1  0  -0.69382  0  2.011012  0  0  -0.628808  0  2.252194  0  0  -0.656952  0  2.242462  0  -1.222995  0  -0.354359  -0.608854  0  2.258243  0
O  O100  1  0.69663360  0.39069560  0.74972359  1  0  -0.317259  0  2.395739  0  0  -0.241325  0  2.631263  0  0  -0.259496  0  2.635312  0  -1.095806  0  -0.188718  -0.229061  0  2.628439  0
O  O101  1  0.19663678  0.10930483  0.25027591  1  0  -0.317398  0  2.395683  0  0  -0.241427  0  2.631193  0  0  -0.259593  0  2.635234  0  -1.09591  0  -0.188772  -0.229153  0  2.628379  0
O  O102  1  0.30336520  0.60930324  0.25027602  1  0  -0.317305  0  2.395711  0  0  -0.241308  0  2.631196  0  0  -0.259475  0  2.635243  0  -1.095747  0  -0.188714  -0.229028  0  2.628372  0
O  O103  1  0.80336847  0.89069502  0.74972181  1  0  -0.317329  0  2.395766  0  0  -0.241381  0  2.631256  0  0  -0.259554  0  2.635307  0  -1.095821  0  -0.188699  -0.229081  0  2.628398  0
O  O104  1  0.10453119  0.09068362  0.89003429  1  0  -0.260381  0  2.346554  0  0  -0.186762  0  2.577218  0  0  -0.204314  0  2.579332  0  -1.078505  0  -0.174194  -0.174407  0  2.575319  0
O  O105  1  0.60453317  0.40931681  0.10996774  1  0  -0.260467  0  2.346578  0  0  -0.186757  0  2.577262  0  0  -0.204334  0  2.579382  0  -1.078404  0  -0.17422  -0.174403  0  2.575362  0
O  O106  1  0.89547019  0.90931522  0.10996722  1  0  -0.260444  0  2.346519  0  0  -0.186793  0  2.577148  0  0  -0.204365  0  2.57927  0  -1.078465  0  -0.174242  -0.174433  0  2.575245  0
O  O107  1  0.39546950  0.59068405  0.89003125  1  0  -0.260485  0  2.346499  0  0  -0.18678  0  2.577116  0  0  -0.204391  0  2.579255  0  -1.078439  0  -0.174257  -0.174425  0  2.575213  0
O  O108  1  0.31131500  0.12165258  0.68754383  1  0  -0.726268  0  1.983328  0  0  -0.65674  0  2.225535  0  0  -0.685772  0  2.214478  0  -1.234288  0  -0.368066  -0.636048  0  2.232554  0
O  O109  1  0.81132085  0.37834179  0.31245753  1  0  -0.726077  0  1.983327  0  0  -0.656572  0  2.225522  0  0  -0.685608  0  2.214483  0  -1.234183  0  -0.367971  -0.635882  0  2.232544  0
O  O110  1  0.68866443  0.87834020  0.31245384  1  0  -0.726137  0  1.983242  0  0  -0.656632  0  2.225413  0  0  -0.685657  0  2.214365  0  -1.234235  0  -0.368112  -0.635942  0  2.232434  0
O  O111  1  0.18866245  0.62165604  0.68754588  1  0  -0.726173  0  1.983219  0  0  -0.656713  0  2.225364  0  0  -0.685754  0  2.214333  0  -1.234137  0  -0.368183  -0.636021  0  2.232385  0
O  O112  1  0.18065844  0.94026093  0.74377353  1  0  -0.677547  0  1.975055  0  0  -0.6267  0  2.228835  0  0  -0.65257  0  2.219005  0  -1.221794  0  -0.357024  -0.60841  0  2.235247  0
O  O113  1  0.68065912  0.55973228  0.25622807  1  0  -0.677551  0  1.975219  0  0  -0.626688  0  2.228977  0  0  -0.652555  0  2.219156  0  -1.221977  0  -0.356991  -0.608398  0  2.235393  0
O  O114  1  0.81933649  0.05972477  0.25622726  1  0  -0.677467  0  1.975484  0  0  -0.626592  0  2.229222  0  0  -0.652463  0  2.219397  0  -1.221971  0  -0.356977  -0.608304  0  2.235637  0
O  O115  1  0.31931901  0.44026757  0.74377471  1  0  -0.677369  0  1.975475  0  0  -0.626582  0  2.229234  0  0  -0.652455  0  2.219411  0  -1.221975  0  -0.357007  -0.608294  0  2.235645  0
O  O116  1  0.22669574  0.43372316  0.56248508  1  0  -0.880953  0  1.877634  0  0  -0.816677  0  2.057285  0  0  -0.838747  0  2.02305  0  -1.310754  0  -0.600494  -0.80087  0  2.081173  0
O  O117  1  0.72668997  0.06627829  0.43751442  1  0  -0.880945  0  1.877596  0  0  -0.816687  0  2.057249  0  0  -0.838747  0  2.022994  0  -1.310723  0  -0.600501  -0.800881  0  2.081138  0
O  O118  1  0.77331209  0.56627568  0.43751706  1  0  -0.880884  0  1.877565  0  0  -0.816578  0  2.05726  0  0  -0.838635  0  2.023021  0  -1.310698  0  -0.600469  -0.80077  0  2.08115  0
O  O119  1  0.27331140  0.93372055  0.56248329  1  0  -0.880882  0  1.877517  0  0  -0.816608  0  2.057188  0  0  -0.838672  0  2.022941  0  -1.310519  0  -0.600486  -0.8008  0  2.081081  0
O  O120  1  0.43624868  0.21225127  0.49590483  1  0  -0.885762  0  1.805947  0  0  -0.82864  0  1.986719  0  0  -0.849191  0  1.953172  0  -1.293275  0  -0.626846  -0.813889  0  2.010259  0
O  O121  1  0.93625324  0.28774916  0.50409529  1  0  -0.885758  0  1.805946  0  0  -0.82862  0  1.986686  0  0  -0.849169  0  1.953139  0  -1.293272  0  -0.626868  -0.813875  0  2.010237  0
O  O122  1  0.56376044  0.78775667  0.50409231  1  0  -0.88569  0  1.806009  0  0  -0.828589  0  1.986724  0  0  -0.849133  0  1.953185  0  -1.293311  0  -0.626843  -0.813839  0  2.010278  0
O  O123  1  0.06375071  0.71224967  0.49590305  1  0  -0.885759  0  1.805938  0  0  -0.828638  0  1.986718  0  0  -0.849186  0  1.953177  0  -1.293262  0  -0.626799  -0.813882  0  2.010253  0
