# generated using pymatgen
data_NiH32C18(NO)6
_symmetry_space_group_name_H-M   'P 1'
_cell_length_a   9.32965544
_cell_length_b   14.82771543
_cell_length_c   16.37664981
_cell_angle_alpha   90.48456765
_cell_angle_beta   98.83139718
_cell_angle_gamma   101.02958278
_symmetry_Int_Tables_number   1
_chemical_formula_structural   NiH32C18(NO)6
_chemical_formula_sum   'Ni3 H96 C54 N18 O18'
_cell_volume   2195.62242154
_cell_formula_units_Z   3
loop_
 _symmetry_equiv_pos_site_id
 _symmetry_equiv_pos_as_xyz
  1  'x, y, z'
loop_
 _atom_site_type_symbol
 _atom_site_label
 _atom_site_symmetry_multiplicity
 _atom_site_fract_x
 _atom_site_fract_y
 _atom_site_fract_z
 _atom_site_occupancy
 _atom_site_pbe_bader_charge
 _atom_site_pbe_bader_spin_density
 _atom_site_pbe_cm5_charge
 _atom_site_pbe_ddec_charge
 _atom_site_pbe_ddec_spin_density
 _atom_site_pbe_ddec_sum_bond_order
 _atom_site_pbe_magmom
Ni  Ni0  1  0.00000333  0.99999628  0.99999600  1  1.052765  1.495011  0.650138  0.633011  1.795565  2.549696  1.481
Ni  Ni1  1  0.50000645  0.00000153  0.50000786  1  1.044515  -1.490652  0.643358  0.610968  -1.750044  2.559783  -1.477
Ni  Ni2  1  0.49999860  0.50000661  0.00000140  1  1.041785  -1.487776  0.638782  0.61107  -1.745098  2.532381  -1.474
H  H3  1  0.93230561  0.10841183  0.09815253  1  0.489384  -0.000307  0.286144  0.244912  0.000226  1.016018  0.0
H  H4  1  0.06771082  0.89158179  0.90184180  1  0.489188  -0.000307  0.286156  0.244856  0.000226  1.016138  0.0
H  H5  1  0.27810619  0.02432038  0.04894648  1  0.454693  -0.000449  0.293888  0.247208  0.0001  1.00477  0.0
H  H6  1  0.72190109  0.97567196  0.95104665  1  0.454812  -0.000448  0.293951  0.247281  0.000101  1.004711  0.0
H  H7  1  0.95598852  0.25890859  0.02819997  1  0.003096  0.006519  0.092079  0.028654  0.003031  1.031426  0.003
H  H8  1  0.04403264  0.74108491  0.97179953  1  0.003229  0.006517  0.092148  0.028783  0.00303  1.031582  0.003
H  H9  1  0.03277225  0.20435816  0.95159626  1  0.086247  0.000892  0.117565  0.079901  0.000303  0.999193  0.001
H  H10  1  0.96723976  0.79562787  0.04840125  1  0.086184  0.000891  0.117616  0.080024  0.000303  0.998916  0.001
H  H11  1  0.15925332  0.21188368  0.14817979  1  0.035872  0.00393  0.094092  0.0646  0.001858  1.001888  0.002
H  H12  1  0.84074366  0.78810595  0.85181692  1  0.03577  0.003928  0.094115  0.064621  0.001857  1.001743  0.002
H  H13  1  0.22877557  0.18109742  0.05811474  1  0.058061  0.000208  0.104892  0.081201  -2.3e-05  1.014733  0.0
H  H14  1  0.77124004  0.81889890  0.94188451  1  0.057873  0.000207  0.104904  0.081115  -2.3e-05  1.014813  0.0
H  H15  1  0.30915798  0.09211730  0.18337415  1  0.03784  0.003199  0.095416  0.064866  0.001509  1.023894  0.002
H  H16  1  0.69085814  0.90787491  0.81662196  1  0.037812  0.003199  0.095443  0.064785  0.001509  1.024032  0.002
H  H17  1  0.11864863  0.04644250  0.18560177  1  0.058247  -7.1e-05  0.107776  0.08886  -0.000192  1.004756  0.0
H  H18  1  0.88136643  0.95354899  0.81439730  1  0.058198  -7.2e-05  0.107871  0.088934  -0.000192  1.004536  0.0
H  H19  1  0.31549996  0.91315629  0.15365541  1  0.063106  0.006225  0.107288  0.061887  0.002998  0.974518  0.003
H  H20  1  0.68452122  0.08683866  0.84633863  1  0.062971  0.006224  0.107267  0.061843  0.002997  0.974664  0.003
H  H21  1  0.11968890  0.88820323  0.15073213  1  0.062794  0.000721  0.121064  0.084895  0.000196  0.972988  0.001
H  H22  1  0.88033503  0.11178613  0.84926559  1  0.063135  0.000721  0.121003  0.084713  0.000196  0.973152  0.001
H  H23  1  0.71104306  0.07493854  0.04278986  1  0.049279  -0.000196  0.10156  0.077943  -0.000166  1.019684  0.0
H  H24  1  0.28896816  0.92505583  0.95720356  1  0.049592  -0.000196  0.101564  0.077879  -0.000166  1.019643  0.0
H  H25  1  0.72571296  0.19461392  0.05628981  1  0.019325  0.000172  0.102094  0.065485  9.9e-05  1.042609  0.0
H  H26  1  0.27429728  0.80538044  0.94370478  1  0.019037  0.000172  0.102029  0.065371  9.9e-05  1.042649  0.0
H  H27  1  0.50040143  0.07154233  0.92585162  1  0.052163  9.4e-05  0.104852  0.077271  5.4e-05  0.979805  0.0
H  H28  1  0.49960130  0.92844097  0.07414893  1  0.052207  9.4e-05  0.104846  0.077329  5.4e-05  0.979994  0.0
H  H29  1  0.52165642  0.19287950  0.93799500  1  0.04936  4.2e-05  0.093174  0.057043  2.7e-05  1.018102  0.0
H  H30  1  0.47833358  0.80710535  0.06200177  1  0.048897  4.2e-05  0.093218  0.057148  2.8e-05  1.018351  0.0
H  H31  1  0.50099079  0.15242227  0.08255451  1  0.58679  -0.00036  0.317875  0.336126  -0.000236  0.924169  0.0
H  H32  1  0.49902853  0.84758032  0.91743841  1  0.58681  -0.00036  0.317914  0.336168  -0.000236  0.924262  0.0
H  H33  1  0.56765090  0.17070533  0.49178012  1  0.482341  0.000298  0.285338  0.249256  -0.000143  1.015231  0.001
H  H34  1  0.43236589  0.82930262  0.50822503  1  0.482404  0.000299  0.285362  0.249259  -0.000143  1.01525  0.001
H  H35  1  0.25502568  0.04093847  0.45271306  1  0.406279  0.000542  0.306152  0.252404  1e-05  0.928022  0.0
H  H36  1  0.74496509  0.95905043  0.54728938  1  0.40639  0.000542  0.306182  0.252459  1e-05  0.92803  0.0
H  H37  1  0.82938929  0.19959763  0.48100908  1  0.015522  -0.004554  0.103315  0.079894  -0.002101  0.960686  -0.002
H  H38  1  0.17062562  0.80038950  0.51900515  1  0.015329  -0.004554  0.103275  0.07995  -0.002101  0.960537  -0.002
H  H39  1  0.80442597  0.08324749  0.44403488  1  0.049049  -0.000291  0.106534  0.08494  -6e-06  0.97515  0.0
H  H40  1  0.19556326  0.91673439  0.55597704  1  0.037223  -0.00029  0.106585  0.085037  -6e-06  0.975149  0.0
H  H41  1  0.61465173  0.20295980  0.34909611  1  0.050255  -0.006931  0.107239  0.058556  -0.003231  0.977029  -0.003
H  H42  1  0.38536860  0.79701580  0.65090099  1  0.050359  -0.006928  0.107142  0.058578  -0.00323  0.977124  -0.003
H  H43  1  0.60942283  0.08290678  0.33506192  1  0.067802  -0.00078  0.11782  0.078033  -0.000252  0.995465  -0.001
H  H44  1  0.39059001  0.91706375  0.66495537  1  0.068373  -0.00078  0.117822  0.078087  -0.000251  0.99546  -0.001
H  H45  1  0.38467083  0.97908264  0.31464593  1  0.082426  -0.000831  0.118999  0.08023  -0.000204  0.988495  -0.001
H  H46  1  0.61533785  0.02089557  0.68536828  1  0.08269  -0.000831  0.118969  0.080247  -0.000204  0.988493  -0.001
H  H47  1  0.21576477  0.02180043  0.30056996  1  0.033245  -0.005235  0.10477  0.050709  -0.002451  1.017872  -0.003
H  H48  1  0.78424232  0.97818135  0.69943692  1  0.033057  -0.005236  0.104776  0.050701  -0.002451  1.017996  -0.003
H  H49  1  0.25493480  0.85584523  0.38641359  1  0.06317  -0.000157  0.114552  0.098855  5.3e-05  0.96568  0.0
H  H50  1  0.74508905  0.14414448  0.61360675  1  0.063127  -0.000157  0.114583  0.098987  5.3e-05  0.965434  0.0
H  H51  1  0.09491793  0.89833137  0.40271901  1  0.067467  -0.003781  0.101213  0.07702  -0.001796  0.966942  -0.002
H  H52  1  0.90509472  0.10165179  0.59728458  1  0.06765  -0.003781  0.10117  0.076926  -0.001796  0.966937  -0.002
H  H53  1  0.35314596  0.21176723  0.42748837  1  0.057642  -8e-06  0.101315  0.089476  1.8e-05  0.994111  0.0
H  H54  1  0.64685280  0.78821331  0.57251430  1  0.057342  -8e-06  0.101247  0.089389  1.8e-05  0.99413  0.0
H  H55  1  0.20945962  0.16297895  0.34614764  1  0.022761  -0.000292  0.106599  0.083689  -0.000137  0.973505  0.0
H  H56  1  0.79055259  0.83700703  0.65385233  1  0.022639  -0.000292  0.106647  0.083734  -0.000137  0.973435  0.0
H  H57  1  0.47526768  0.31501608  0.32911343  1  0.040941  -0.000232  0.104602  0.07574  -0.000112  0.957589  0.0
H  H58  1  0.52474541  0.68496827  0.67090305  1  0.041303  -0.000232  0.10453  0.075721  -0.000112  0.957551  0.0
H  H59  1  0.35393941  0.25226710  0.24428602  1  0.000178  -0.000154  0.078011  0.017353  -9.1e-05  1.064989  0.0
H  H60  1  0.64607493  0.74773253  0.75572303  1  3.1e-05  -0.000154  0.07808  0.017491  -9.1e-05  1.065032  0.0
H  H61  1  0.16388049  0.30960743  0.30539592  1  0.618771  -1.5e-05  0.289382  0.315105  -2e-06  1.000926  0.0
H  H62  1  0.83613640  0.69038717  0.69462476  1  0.618607  -1.5e-05  0.289287  0.315015  -2e-06  1.001037  0.0
H  H63  1  0.48985251  0.45913834  0.14687788  1  0.50541  0.000247  0.284895  0.253957  -0.00021  1.016991  0.0
H  H64  1  0.51013771  0.54085960  0.85312050  1  0.505353  0.000247  0.28492  0.253944  -0.000211  1.017149  0.0
H  H65  1  0.23466163  0.47960180  0.93844766  1  0.424944  0.000576  0.303842  0.249793  3.7e-05  0.934883  0.0
H  H66  1  0.76531406  0.52038852  0.06156186  1  0.424656  0.000574  0.30378  0.249875  3.8e-05  0.934819  0.0
H  H67  1  0.47062786  0.28803612  0.14655872  1  0.030832  -0.006869  0.103433  0.045475  -0.003173  1.019554  -0.003
H  H68  1  0.52934134  0.71195759  0.85341260  1  0.031323  -0.00687  0.103378  0.045454  -0.003174  1.019671  -0.003
H  H69  1  0.45290014  0.29334362  0.03607364  1  0.10659  -0.000932  0.11691  0.074159  -0.000312  1.026199  -0.001
H  H70  1  0.54706721  0.70666318  0.96390040  1  0.106972  -0.000932  0.11698  0.074167  -0.000312  1.026248  -0.001
H  H71  1  0.24000562  0.37621390  0.14417675  1  0.058551  -0.003955  0.098158  0.072851  -0.001827  0.999966  -0.002
H  H72  1  0.76000497  0.62379879  0.85583795  1  0.058469  -0.003956  0.098148  0.072778  -0.001827  1.000165  -0.002
H  H73  1  0.23245334  0.34780511  0.03705833  1  0.060992  -8.7e-05  0.105072  0.081344  9.1e-05  0.994719  0.0
H  H74  1  0.76751530  0.65220052  0.96294754  1  0.06096  -8.8e-05  0.105067  0.081421  9.1e-05  0.994738  0.0
H  H75  1  0.10711092  0.47982482  0.05692960  1  -0.02509  -0.003808  0.090395  0.059233  -0.00176  0.994643  -0.002
H  H76  1  0.89290399  0.52021388  0.94309651  1  -0.0252  -0.003807  0.090382  0.059113  -0.00176  0.994969  -0.002
H  H77  1  0.27576466  0.54313888  0.11300650  1  0.085299  -0.000238  0.118019  0.103735  7e-06  0.958251  0.0
H  H78  1  0.72429591  0.45687145  0.88699707  1  0.085353  -0.000238  0.118031  0.103703  7e-06  0.958339  0.0
H  H79  1  0.15664128  0.62694107  0.95910847  1  0.035878  -0.005037  0.100685  0.042966  -0.002298  1.020553  -0.003
H  H80  1  0.84333382  0.37303863  0.04087320  1  0.035952  -0.005038  0.100722  0.043022  -0.002298  1.020482  -0.003
H  H81  1  0.33038002  0.66171277  0.02423347  1  0.092967  -0.000758  0.122439  0.084511  -0.000215  0.988501  -0.001
H  H82  1  0.66959383  0.33829596  0.97574590  1  0.092523  -0.000759  0.122423  0.084352  -0.000215  0.988641  -0.001
H  H83  1  0.80176323  0.44682615  0.18902804  1  0.004949  -5.3e-05  0.095448  0.068537  4e-06  0.984493  0.0
H  H84  1  0.19817989  0.55318571  0.81094530  1  0.004554  -5.3e-05  0.095489  0.068631  4e-06  0.984531  0.0
H  H85  1  0.67501980  0.36368297  0.23005585  1  0.049314  -0.000437  0.115491  0.102775  -0.000221  0.976627  0.0
H  H86  1  0.32493094  0.63632260  0.76991777  1  0.049245  -0.000437  0.115555  0.102856  -0.000221  0.976589  0.0
H  H87  1  0.93917055  0.31940233  0.15613302  1  0.020849  -9.7e-05  0.085105  0.034844  -4e-05  1.024707  0.0
H  H88  1  0.06080458  0.68061035  0.84385816  1  0.020695  -9.7e-05  0.085132  0.034773  -4.1e-05  1.024614  0.0
H  H89  1  0.81415413  0.24102456  0.20557891  1  0.07833  -0.000103  0.109024  0.090713  -5e-05  0.956919  0.0
H  H90  1  0.18580420  0.75898840  0.79440393  1  0.077867  -0.000103  0.109087  0.090626  -5e-05  0.957015  0.0
H  H91  1  0.99602323  0.40231269  0.28822637  1  0.615738  -4e-06  0.331578  0.357923  3e-06  0.879874  0.0
H  H92  1  0.00394660  0.59769510  0.71177230  1  0.615756  -4e-06  0.331577  0.357859  2e-06  0.879983  0.0
H  H93  1  0.74652633  0.77425710  0.10235536  1  0.10143  -1e-06  0.096914  0.097102  -0.0  1.046406  0.0
H  H94  1  0.25331172  0.22575735  0.89760198  1  0.101474  -1e-06  0.096802  0.096914  0.0  1.04646  0.0
H  H95  1  0.53509410  0.68043691  0.31067465  1  0.128743  -4e-05  0.106568  0.117794  6e-06  1.005298  0.0
H  H96  1  0.46488488  0.31959768  0.68932595  1  0.128185  -4e-05  0.106641  0.118093  6e-06  1.005199  0.0
H  H97  1  0.72580667  0.96703639  0.29491632  1  0.112342  -0.00025  0.095983  0.098887  -0.00018  1.047974  0.0
H  H98  1  0.27425143  0.03297582  0.70510121  1  0.112223  -0.00025  0.09579  0.098617  -0.00018  1.047955  0.0
C  C99  1  0.95459295  0.19258322  0.99596320  1  0.611273  -0.000979  0.022811  0.063366  -5.2e-05  3.945869  -0.003
C  C100  1  0.04542003  0.80740901  0.00403394  1  0.610712  -0.000978  0.022709  0.063258  -5.2e-05  3.946014  -0.003
C  C101  1  0.15341729  0.15603431  0.10198017  1  0.270301  6.9e-05  -0.072331  -0.048018  0.000493  3.911991  -0.001
C  C102  1  0.84659481  0.84395516  0.89801745  1  0.267681  7e-05  -0.072417  -0.047885  0.000493  3.911607  -0.001
C  C103  1  0.19916460  0.07275955  0.14487673  1  0.282904  -6.2e-05  -0.076049  -0.055515  0.000301  3.895352  -0.001
C  C104  1  0.80085097  0.92723057  0.85512111  1  0.283209  -6.2e-05  -0.076111  -0.055512  0.0003  3.895559  -0.001
C  C105  1  0.20773355  0.90939530  0.11343087  1  0.591239  -0.000337  0.025491  0.061334  0.000267  3.915741  -0.002
C  C106  1  0.79228646  0.09059896  0.88656492  1  0.590752  -0.000339  0.02552  0.061296  0.000266  3.915938  -0.002
C  C107  1  0.70029232  0.13808891  0.00892695  1  0.314779  -0.000187  -0.081788  -0.120678  -0.000134  3.971591  0.0
C  C108  1  0.29972022  0.86190614  0.99106657  1  0.314515  -0.000187  -0.081826  -0.120309  -0.000134  3.971566  0.0
C  C109  1  0.53988866  0.13018734  0.97026733  1  0.421179  0.000165  -0.074881  0.062371  0.000132  3.897841  0.0
C  C110  1  0.46011301  0.86980016  0.02972961  1  0.421623  0.000165  -0.074883  0.062117  0.000132  3.898582  0.0
C  C111  1  0.76468783  0.12950056  0.48461369  1  0.312265  -0.000479  -0.065624  -0.041948  -0.000726  3.912265  0.001
C  C112  1  0.23531833  0.87048667  0.51539879  1  0.324158  -0.000482  -0.065558  -0.042124  -0.000727  3.912381  0.001
C  C113  1  0.56403169  0.13385612  0.36712606  1  0.627773  0.000261  0.027138  0.061401  -0.000356  3.929111  0.002
C  C114  1  0.43598081  0.86612488  0.63288418  1  0.627736  0.000258  0.027165  0.061252  -0.000356  3.929559  0.002
C  C115  1  0.32403938  0.02655496  0.34012652  1  0.643375  0.000859  0.02449  0.044804  0.000184  3.967866  0.002
C  C116  1  0.67596900  0.97342604  0.65988592  1  0.642664  0.000857  0.024513  0.044799  0.000183  3.968292  0.002
C  C117  1  0.21333514  0.90169480  0.42632880  1  0.239826  -0.000382  -0.065339  -0.048454  -0.000545  3.899894  0.001
C  C118  1  0.78667525  0.09829514  0.57368463  1  0.240081  -0.000383  -0.065225  -0.048311  -0.000545  3.899346  0.001
C  C119  1  0.32909625  0.19137352  0.36095846  1  0.288158  3.7e-05  -0.072634  -0.108366  3.5e-05  3.928833  0.0
C  C120  1  0.67091730  0.80860893  0.63904576  1  0.289807  3.7e-05  -0.072543  -0.108249  3.5e-05  3.928585  0.0
C  C121  1  0.36194690  0.27643768  0.30927503  1  0.487675  -0.000371  -0.080377  0.069089  -0.000248  3.966788  0.0
C  C122  1  0.63806714  0.72354815  0.69073422  1  0.486256  -0.000372  -0.080322  0.068963  -0.000249  3.966399  0.0
C  C123  1  0.50239786  0.33111734  0.09487651  1  0.649824  0.00062  0.023407  0.048426  -0.000107  3.954153  0.002
C  C124  1  0.49757762  0.66888035  0.90510203  1  0.649434  0.000621  0.023109  0.048147  -0.000107  3.95487  0.002
C  C125  1  0.27999258  0.40057457  0.08658961  1  0.233003  -0.000202  -0.070172  -0.04831  -0.000496  3.907018  0.001
C  C126  1  0.71999704  0.59943569  0.91341643  1  0.233454  -0.000202  -0.070151  -0.04821  -0.000496  3.907182  0.001
C  C127  1  0.22905133  0.49032554  0.06349836  1  0.305195  -0.000357  -0.066188  -0.046329  -0.000585  3.90959  0.001
C  C128  1  0.77095854  0.50969076  0.93650662  1  0.305069  -0.000357  -0.066222  -0.046256  -0.000584  3.910023  0.001
C  C129  1  0.27373643  0.61966790  0.96882844  1  0.618183  0.000799  0.027633  0.056826  0.000122  3.935553  0.002
C  C130  1  0.72624889  0.38032820  0.03115798  1  0.61857  0.000798  0.027625  0.056919  0.000121  3.935785  0.002
C  C131  1  0.74926530  0.37288637  0.18352256  1  0.356519  -6.5e-05  -0.069388  -0.110761  -0.000107  3.961314  0.0
C  C132  1  0.25069397  0.62711768  0.81645580  1  0.341343  -6.5e-05  -0.069736  -0.111285  -0.000107  3.961241  0.0
C  C133  1  0.86709429  0.31378513  0.20431167  1  0.391514  -0.000152  -0.078479  0.049169  -0.000139  3.947466  0.0
C  C134  1  0.13287816  0.68622967  0.79567757  1  0.407214  -0.000152  -0.078449  0.049689  -0.000138  3.947045  0.0
C  C135  1  0.82935599  0.95505957  0.14942193  1  1.5577  -0.000712  0.191723  0.552037  0.000608  4.230078  -0.001
C  C136  1  0.17065074  0.04495620  0.85057367  1  1.557603  -0.000715  0.191829  0.552363  0.000606  4.229483  -0.001
C  C137  1  0.56930325  0.84689910  0.39002982  1  1.552097  0.000154  0.192538  0.549012  -0.000817  4.245079  0.0
C  C138  1  0.43073912  0.15311739  0.60998873  1  1.553752  0.000157  0.192395  0.549195  -0.000816  4.245712  0.0
C  C139  1  0.59470201  0.62093746  0.16338723  1  1.537595  -6.9e-05  0.19684  0.556542  -0.00088  4.229797  0.001
C  C140  1  0.40527247  0.37908261  0.83661758  1  1.537873  -6.4e-05  0.196689  0.556383  -0.000879  4.229564  0.001
C  C141  1  0.74892584  0.87833515  0.19515775  1  -0.046626  0.006673  -0.030853  -0.050848  0.00422  4.0118  0.005
C  C142  1  0.25105168  0.12169206  0.80482971  1  -0.046903  0.006675  -0.030762  -0.051042  0.004221  4.012185  0.005
C  C143  1  0.71472380  0.78821389  0.16169403  1  -0.052879  0.000676  -0.086933  -0.114706  0.000388  3.975393  0.0
C  C144  1  0.28519501  0.21181125  0.83828312  1  -0.052455  0.000677  -0.086861  -0.114396  0.000388  3.975011  0.0
C  C145  1  0.63724826  0.71675297  0.20231954  1  -0.024889  -0.00733  -0.027779  -0.046924  -0.004533  4.003658  -0.006
C  C146  1  0.36270923  0.28328128  0.79767059  1  -0.026439  -0.007332  -0.027735  -0.046642  -0.004533  4.003433  -0.006
C  C147  1  0.59446352  0.73564007  0.27802323  1  -0.07127  -0.001752  -0.075485  -0.098087  -0.001033  3.916039  -0.001
C  C148  1  0.40551478  0.26439446  0.72198221  1  -0.070237  -0.001754  -0.075342  -0.09848  -0.001034  3.916048  -0.001
C  C149  1  0.62467299  0.82589325  0.31127542  1  0.010724  -0.006824  -0.026393  -0.04173  -0.004183  3.989685  -0.005
C  C150  1  0.37533316  0.17413410  0.68873088  1  0.010078  -0.006826  -0.026528  -0.041988  -0.004183  3.990248  -0.005
C  C151  1  0.70211590  0.89668965  0.26959985  1  -0.086513  0.001099  -0.087366  -0.117033  0.000663  3.964817  0.001
C  C152  1  0.29790569  0.10333895  0.73040557  1  -0.085923  0.001098  -0.087298  -0.11662  0.000663  3.965237  0.001
N  N153  1  0.00404682  0.12679032  0.05559085  1  -1.099956  0.076419  -0.505251  -0.348486  0.047357  3.542167  0.066
N  N154  1  0.99596639  0.87319987  0.94440440  1  -1.097309  0.076397  -0.505274  -0.348672  0.047345  3.542547  0.066
N  N155  1  0.19336578  0.00077248  0.08144324  1  -1.072607  0.075702  -0.504  -0.350345  0.047137  3.538242  0.066
N  N156  1  0.80664555  0.99921841  0.91855254  1  -1.072405  0.075708  -0.50413  -0.350295  0.04714  3.538727  0.066
N  N157  1  0.80644839  0.16033752  0.95165578  1  -1.050336  0.001062  -0.347009  -0.184928  0.000371  3.522537  0.001
N  N158  1  0.19356439  0.83965748  0.04834082  1  -1.04988  0.001063  -0.346903  -0.185165  0.000371  3.523012  0.001
N  N159  1  0.60544777  0.12345601  0.45678476  1  -1.09157  -0.079322  -0.496229  -0.347652  -0.047901  3.513191  -0.069
N  N160  1  0.39456109  0.87654296  0.54322577  1  -1.091355  -0.079303  -0.496112  -0.347465  -0.047891  3.513219  -0.069
N  N161  1  0.30187690  0.99511230  0.42374694  1  -1.042311  -0.073874  -0.495416  -0.331425  -0.045127  3.548625  -0.065
N  N162  1  0.69812889  0.00487700  0.57626558  1  -1.042035  -0.073901  -0.495462  -0.331564  -0.045142  3.548809  -0.065
N  N163  1  0.40595035  0.11912665  0.33914571  1  -1.105381  -0.000518  -0.342042  -0.178808  -3e-05  3.587316  -0.001
N  N164  1  0.59406133  0.88085304  0.66086016  1  -1.106507  -0.000517  -0.342157  -0.178882  -2.9e-05  3.587905  -0.001
N  N165  1  0.44186036  0.41587597  0.09463768  1  -1.095534  -0.077097  -0.497424  -0.34012  -0.046532  3.509571  -0.067
N  N166  1  0.55812879  0.58412618  0.90535709  1  -1.095602  -0.077091  -0.497392  -0.340051  -0.04653  3.509815  -0.067
N  N167  1  0.28526022  0.52335705  0.98762498  1  -1.054245  -0.073025  -0.489958  -0.331052  -0.044647  3.537324  -0.064
N  N168  1  0.71473700  0.47664492  0.01237638  1  -1.054023  -0.073032  -0.489862  -0.331126  -0.044653  3.537074  -0.064
N  N169  1  0.66160049  0.34609593  0.10192963  1  -1.152267  -0.00092  -0.33793  -0.166292  -0.000275  3.591651  -0.001
N  N170  1  0.33837213  0.65389351  0.89804789  1  -1.152488  -0.00092  -0.337474  -0.165936  -0.000276  3.591494  -0.001
O  O171  1  0.45067722  0.11296712  0.03478407  1  -1.127541  3.9e-05  -0.397141  -0.459875  -2.4e-05  2.303479  0.0
O  O172  1  0.54934195  0.88701943  0.96521939  1  -1.127596  4e-05  -0.397166  -0.459911  -2.4e-05  2.303664  0.0
O  O173  1  0.26828042  0.34026120  0.31673412  1  -1.158895  -7e-05  -0.430248  -0.488035  5e-06  2.22721  0.0
O  O174  1  0.73174297  0.65972367  0.68328727  1  -1.158088  -7e-05  -0.430224  -0.487972  5e-06  2.227079  0.0
O  O175  1  0.95448122  0.33659480  0.28441378  1  -1.124082  -0.000248  -0.401968  -0.47378  -0.000119  2.220766  0.0
O  O176  1  0.04548890  0.66341240  0.71557816  1  -1.123796  -0.000248  -0.402012  -0.473875  -0.000118  2.220749  0.0
O  O177  1  0.87499140  0.92903930  0.08457825  1  -1.168205  0.068467  -0.322899  -0.55334  0.041977  2.369042  0.064
O  O178  1  0.12500323  0.07097863  0.91541853  1  -1.16746  0.068485  -0.322858  -0.553418  0.041988  2.368737  0.064
O  O179  1  0.84547046  0.03730740  0.17637390  1  -1.191604  -0.001547  -0.35022  -0.578585  -0.001115  2.119095  -0.001
O  O180  1  0.15458513  0.96271603  0.82363341  1  -1.191655  -0.001546  -0.350326  -0.578754  -0.001114  2.11895  -0.001
O  O181  1  0.59247084  0.93290329  0.41195025  1  -1.169069  -0.069818  -0.331754  -0.578677  -0.041466  2.35871  -0.065
O  O182  1  0.40759989  0.06712251  0.58807332  1  -1.17003  -0.069789  -0.331636  -0.578582  -0.041452  2.359172  -0.065
O  O183  1  0.50361764  0.78125843  0.42728988  1  -1.180972  0.00055  -0.335335  -0.552238  0.000613  2.123044  0.0
O  O184  1  0.49643533  0.21876291  0.57272028  1  -1.181388  0.000554  -0.335304  -0.552452  0.000615  2.12288  0.0
O  O185  1  0.58923283  0.61563261  0.08394637  1  -1.186994  -0.071993  -0.335286  -0.584043  -0.042659  2.322446  -0.067
O  O186  1  0.41081856  0.38438118  0.91606225  1  -1.187257  -0.072009  -0.335207  -0.583962  -0.042667  2.32248  -0.067
O  O187  1  0.56548700  0.55405063  0.20912555  1  -1.171011  0.000402  -0.335733  -0.545202  0.000554  2.123083  0.0
O  O188  1  0.43442886  0.44597629  0.79087288  1  -1.170933  0.000406  -0.335699  -0.545173  0.000556  2.12308  0.0
