# generated using pymatgen
data_KH5C6(ClO3)2
_symmetry_space_group_name_H-M   'P 1'
_cell_length_a   6.38720566
_cell_length_b   9.89860198
_cell_length_c   15.26396228
_cell_angle_alpha   89.99961068
_cell_angle_beta   90.00029969
_cell_angle_gamma   99.87670679
_symmetry_Int_Tables_number   1
_chemical_formula_structural   KH5C6(ClO3)2
_chemical_formula_sum   'K4 H20 C24 Cl8 O24'
_cell_volume   950.75201546
_cell_formula_units_Z   4
loop_
 _symmetry_equiv_pos_site_id
 _symmetry_equiv_pos_as_xyz
  1  'x, y, z'
loop_
 _atom_site_type_symbol
 _atom_site_label
 _atom_site_symmetry_multiplicity
 _atom_site_fract_x
 _atom_site_fract_y
 _atom_site_fract_z
 _atom_site_occupancy
 _atom_site_pbe_bader_spin_density
 _atom_site_pbe_cm5_charge
 _atom_site_pbe_ddec_charge
 _atom_site_pbe_ddec_spin_density
 _atom_site_pbe_ddec_sum_bond_order
 _atom_site_pbe_magmom
K  K0  1  0.14982477  0.18867041  0.93798818  1  0  0.672257  0.818364  0  0.711307  0
K  K1  1  0.35015178  0.81132638  0.43799103  1  0  0.672268  0.818379  0  0.711299  0
K  K2  1  0.85017646  0.81132917  0.06201318  1  0  0.672258  0.818358  0  0.711315  0
K  K3  1  0.64982854  0.18866492  0.56201163  1  0  0.672269  0.818374  0  0.711335  0
H  H4  1  0.03668248  0.48727284  0.65607632  1  0  0.303511  0.373072  0  0.949393  0
H  H5  1  0.46331447  0.51273181  0.15607484  1  0  0.303573  0.373136  0  0.94931  0
H  H6  1  0.96331407  0.51273287  0.34392372  1  0  0.303498  0.373051  0  0.949461  0
H  H7  1  0.53668546  0.48726879  0.84392193  1  0  0.303511  0.373101  0  0.949431  0
H  H8  1  0.66084525  0.32796889  0.88547388  1  0  0.287139  0.390224  0  0.951257  0
H  H9  1  0.83915888  0.67203036  0.38547601  1  0  0.287115  0.390215  0  0.951285  0
H  H10  1  0.33915676  0.67202762  0.11452354  1  0  0.287128  0.390226  0  0.951263  0
H  H11  1  0.16083818  0.32797126  0.61452207  1  0  0.287106  0.390246  0  0.951247  0
H  H12  1  0.54993783  0.37255217  0.97338203  1  0  0.300134  0.397038  0  0.926467  0
H  H13  1  0.95006066  0.62744520  0.47338591  1  0  0.300134  0.397059  0  0.926429  0
H  H14  1  0.45006131  0.62744536  0.02661343  1  0  0.30011  0.397027  0  0.926469  0
H  H15  1  0.04992698  0.37255023  0.52661217  1  0  0.300135  0.397084  0  0.926393  0
H  H16  1  0.79730922  0.20314381  0.79000433  1  0  0.289208  0.382512  0  0.959087  0
H  H17  1  0.70268871  0.79685426  0.29000562  1  0  0.289181  0.382417  0  0.959215  0
H  H18  1  0.20269253  0.79685167  0.20999636  1  0  0.289205  0.38247  0  0.959131  0
H  H19  1  0.29730678  0.20314735  0.70999770  1  0  0.28919  0.382424  0  0.959184  0
H  H20  1  0.91505794  0.35937145  0.79023931  1  0  0.296337  0.38158  0  0.948247  0
H  H21  1  0.58494313  0.64062663  0.29023972  1  0  0.296325  0.381547  0  0.948307  0
H  H22  1  0.08494564  0.64062507  0.20976073  1  0  0.296349  0.381628  0  0.948206  0
H  H23  1  0.41505680  0.35937397  0.70976032  1  0  0.296309  0.381508  0  0.94835  0
C  C24  1  0.07133308  0.64913152  0.73770356  1  0  0.096568  0.204961  0  4.056326  0
C  C25  1  0.42866808  0.35086725  0.23770403  1  0  0.096605  0.204935  0  4.056377  0
C  C26  1  0.92866005  0.35086700  0.26229779  1  0  0.096549  0.204926  0  4.056375  0
C  C27  1  0.57134230  0.64913134  0.76229667  1  0  0.096551  0.204899  0  4.056337  0
C  C28  1  0.09534255  0.74363398  0.65986973  1  0  0.098801  0.232214  0  4.223282  0
C  C29  1  0.40464998  0.25636549  0.15986990  1  0  0.0988  0.232241  0  4.223255  0
C  C30  1  0.90463597  0.25636859  0.34013163  1  0  0.09887  0.23229  0  4.223304  0
C  C31  1  0.59536613  0.74363107  0.84013080  1  0  0.09885  0.232285  0  4.223375  0
C  C32  1  0.13019645  0.88685386  0.67681066  1  0  -0.037764  -0.144843  0  4.049948  0
C  C33  1  0.36980357  0.11314343  0.17680876  1  0  -0.037778  -0.144814  0  4.050042  0
C  C34  1  0.86979095  0.11314670  0.32319200  1  0  -0.037771  -0.144659  0  4.049933  0
C  C35  1  0.63021255  0.88685313  0.82319062  1  0  -0.037777  -0.144751  0  4.049952  0
C  C36  1  0.15167963  0.94432566  0.76182125  1  0  0.103109  0.234723  0  4.140983  0
C  C37  1  0.34832020  0.05567288  0.26181956  1  0  0.10307  0.234608  0  4.141172  0
C  C38  1  0.84831612  0.05567697  0.23818273  1  0  0.103017  0.234528  0  4.141035  0
C  C39  1  0.65168808  0.94432366  0.73818114  1  0  0.103037  0.234607  0  4.140881  0
C  C40  1  0.11816235  0.84487580  0.84007307  1  0  0.12506  0.273766  0  4.097634  0
C  C41  1  0.38184167  0.15512304  0.34007101  1  0  0.12518  0.273924  0  4.097582  0
C  C42  1  0.88183731  0.15512377  0.15992829  1  0  0.125136  0.273801  0  4.097898  0
C  C43  1  0.61817340  0.84487557  0.65992838  1  0  0.12516  0.273921  0  4.097523  0
C  C44  1  0.08637466  0.69918093  0.82208589  1  0  -0.027102  -0.119165  0  4.025975  0
C  C45  1  0.41362840  0.30082115  0.32208392  1  0  -0.027124  -0.119212  0  4.0261  0
C  C46  1  0.91362683  0.30081968  0.17791678  1  0  -0.027138  -0.11922  0  4.026175  0
C  C47  1  0.58638172  0.69918256  0.67791154  1  0  -0.027165  -0.119219  0  4.026042  0
Cl  Cl48  1  0.15148725  0.99484344  0.58799864  1  0  0.039311  -0.004043  0  1.833854  0
Cl  Cl49  1  0.34850639  0.00515773  0.08799849  1  0  0.039334  -0.004023  0  1.833915  0
Cl  Cl50  1  0.84850381  0.00515918  0.41200402  1  0  0.039327  -0.004078  0  1.833868  0
Cl  Cl51  1  0.65149119  0.99483978  0.91200221  1  0  0.03934  -0.004059  0  1.833841  0
Cl  Cl52  1  0.06243225  0.58855793  0.90994337  1  0  0.042574  -0.002383  0  1.727359  0
Cl  Cl53  1  0.43757535  0.41143924  0.40994227  1  0  0.042598  -0.002344  0  1.727362  0
Cl  Cl54  1  0.93758909  0.41144070  0.09005536  1  0  0.042611  -0.002334  0  1.727342  0
Cl  Cl55  1  0.56242615  0.58856136  0.59005515  1  0  0.042588  -0.002363  0  1.727395  0
O  O56  1  0.03491071  0.51629786  0.72168439  1  0  -0.30392  -0.389446  0  2.455135  0
O  O57  1  0.46508846  0.48370617  0.22168041  1  0  -0.304048  -0.38949  0  2.454947  0
O  O58  1  0.96508661  0.48370478  0.27831500  1  0  -0.303944  -0.389469  0  2.455129  0
O  O59  1  0.53491305  0.51630058  0.77831242  1  0  -0.303887  -0.389417  0  2.455168  0
O  O60  1  0.08575861  0.68919445  0.58512843  1  0  -0.329074  -0.495635  0  2.292186  0
O  O61  1  0.41423473  0.31080572  0.08512576  1  0  -0.329076  -0.495678  0  2.292182  0
O  O62  1  0.91421600  0.31081117  0.41487423  1  0  -0.329066  -0.495674  0  2.292272  0
O  O63  1  0.58578582  0.68918983  0.91487232  1  0  -0.329057  -0.495636  0  2.292296  0
O  O64  1  0.19309832  0.07062401  0.77887187  1  0  -0.341377  -0.450858  0  2.273204  0
O  O65  1  0.30690405  0.92937745  0.27887083  1  0  -0.341361  -0.45082  0  2.273301  0
O  O66  1  0.80690475  0.92937660  0.22113342  1  0  -0.34136  -0.45083  0  2.273108  0
O  O67  1  0.69310451  0.07062626  0.72113052  1  0  -0.341378  -0.450913  0  2.273043  0
O  O68  1  0.11841571  0.89273766  0.91535551  1  0  -0.347451  -0.4769  0  2.313234  0
O  O69  1  0.38158204  0.10726352  0.41535563  1  0  -0.347529  -0.477003  0  2.313355  0
O  O70  1  0.88158709  0.10726193  0.08464781  1  0  -0.347478  -0.476896  0  2.313526  0
O  O71  1  0.61842078  0.89274221  0.58464376  1  0  -0.347519  -0.477031  0  2.313166  0
O  O72  1  0.53568140  0.36607235  0.90956308  1  0  -0.63114  -0.799284  0  2.05888  0
O  O73  1  0.96432141  0.63392666  0.40956762  1  0  -0.631128  -0.799277  0  2.058944  0
O  O74  1  0.46431801  0.63392620  0.09043172  1  0  -0.631112  -0.799279  0  2.058962  0
O  O75  1  0.03567539  0.36607393  0.59043112  1  0  -0.631112  -0.799326  0  2.058903  0
O  O76  1  0.85629142  0.28242777  0.82842413  1  0  -0.636194  -0.805896  0  2.089493  0
O  O77  1  0.64370821  0.71756892  0.32842498  1  0  -0.636135  -0.805782  0  2.089598  0
O  O78  1  0.14371033  0.71756771  0.17157657  1  0  -0.636189  -0.805883  0  2.089455  0
O  O79  1  0.35628806  0.28242962  0.67157637  1  0  -0.63614  -0.805736  0  2.089617  0
