# generated using pymatgen
data_Zn4H16C33O19
_symmetry_space_group_name_H-M   'P 1'
_cell_length_a   18.32184597
_cell_length_b   18.38811533
_cell_length_c   18.35407975
_cell_angle_alpha   90.28764063
_cell_angle_beta   119.67583058
_cell_angle_gamma   119.82506945
_symmetry_Int_Tables_number   1
_chemical_formula_structural   Zn4H16C33O19
_chemical_formula_sum   'Zn8 H32 C66 O38'
_cell_volume   4394.36113210
_cell_formula_units_Z   2
loop_
 _symmetry_equiv_pos_site_id
 _symmetry_equiv_pos_as_xyz
  1  'x, y, z'
loop_
 _atom_site_type_symbol
 _atom_site_label
 _atom_site_symmetry_multiplicity
 _atom_site_fract_x
 _atom_site_fract_y
 _atom_site_fract_z
 _atom_site_occupancy
 _atom_site_pbe_bader_charge
 _atom_site_pbe_bader_spin_density
 _atom_site_pbe_cm5_charge
 _atom_site_pbe_ddec_charge
 _atom_site_pbe_ddec_spin_density
 _atom_site_pbe_ddec_sum_bond_order
 _atom_site_pbe_magmom
Zn  Zn0  1  0.91152290  0.79284319  0.70577363  1  1.311633  0  0.677274  0.9689  0  2.364744  0
Zn  Zn1  1  0.08843708  0.20808165  0.29473446  1  1.309226  0  0.674397  0.965559  0  2.370709  0
Zn  Zn2  1  0.08547644  0.79274266  0.70485741  1  1.305825  0  0.674311  0.965554  0  2.371546  0
Zn  Zn3  1  0.90973739  0.20311003  0.29115192  1  1.307783  0  0.672902  0.966699  0  2.367573  0
Zn  Zn4  1  0.91291587  0.62001661  0.70783495  1  1.300436  0  0.674596  0.962714  0  2.38495  0
Zn  Zn5  1  0.08569659  0.37893823  0.29215373  1  1.313297  0  0.671708  0.959323  0  2.390926  0
Zn  Zn6  1  0.08638951  0.79287664  0.88098457  1  1.308398  0  0.678263  0.976879  0  2.346093  0
Zn  Zn7  1  0.91180986  0.20715285  0.11776897  1  1.320807  0  0.678345  0.973731  0  2.35237  0
H  H8  1  0.13223278  0.11957145  0.71227954  1  0.074289  0  0.107888  0.109556  0  1.000108  0
H  H9  1  0.11464651  0.66154876  0.54582709  1  0.105044  0  0.109438  0.114266  0  0.992163  0
H  H10  1  0.86085052  0.92769611  0.52382838  1  0.094423  0  0.111813  0.11868  0  0.988172  0
H  H11  1  0.14075078  0.07434237  0.47815846  1  0.103359  0  0.112798  0.119443  0  0.985947  0
H  H12  1  0.86155830  0.02438784  0.42724347  1  0.115278  0  0.109363  0.118388  0  0.991754  0
H  H13  1  0.14063994  0.97866875  0.57578533  1  0.093864  0  0.114618  0.123719  0  0.980643  0
H  H14  1  0.19621196  0.07233265  0.95947420  1  0.114699  0  0.108965  0.121057  0  0.993775  0
H  H15  1  0.80752719  0.93634786  0.04688949  1  0.110813  0  0.113233  0.123706  0  0.989956  0
H  H16  1  0.91870145  0.05478600  0.78158249  1  0.080168  0  0.111924  0.116887  0  0.978133  0
H  H17  1  0.07893551  0.94239754  0.21885178  1  0.09182  0  0.110964  0.114719  0  0.980764  0
H  H18  1  0.96888625  0.09394900  0.67670581  1  0.074521  0  0.105761  0.102352  0  0.987503  0
H  H19  1  0.87460703  0.88794462  0.29485229  1  0.048809  0  0.102853  0.090716  0  1.025158  0
H  H20  1  0.03064684  0.90689862  0.32524377  1  0.07628  0  0.107614  0.104948  0  0.985253  0
H  H21  1  0.59590031  0.43131142  0.54908237  1  0.085822  0  0.110357  0.115738  0  0.990967  0
H  H22  1  0.40373587  0.56963555  0.45051054  1  0.094061  0  0.109497  0.114668  0  0.990762  0
H  H23  1  0.40300536  0.33557747  0.45146999  1  0.064673  0  0.109845  0.115337  0  0.992279  0
H  H24  1  0.59667693  0.66535144  0.54777197  1  0.067593  0  0.110205  0.115869  0  0.990856  0
H  H25  1  0.88153237  0.43334775  0.83587859  1  0.116785  0  0.111149  0.1161  0  0.989329  0
H  H26  1  0.12177644  0.56824661  0.16560699  1  0.111999  0  0.108222  0.113278  0  0.993205  0
H  H27  1  0.55743868  0.07106032  0.84705327  1  0.647841  0  0.34537  0.379733  0  0.856869  0
H  H28  1  0.46782546  0.92498926  0.15948986  1  0.607741  0  0.338587  0.370971  0  0.874549  0
H  H29  1  0.40061587  0.14336530  0.95064264  1  0.612579  0  0.33904  0.37936  0  0.865748  0
H  H30  1  0.88071236  0.33599758  0.93136714  1  0.111098  0  0.112717  0.120628  0  0.986643  0
H  H31  1  0.78762335  0.92907212  0.27075516  1  0.611514  0  0.318527  0.350941  0  0.936151  0
H  H32  1  0.13108853  0.29343783  0.05299182  1  0.61972  0  0.351892  0.391474  0  0.836287  0
H  H33  1  0.96293358  0.74889023  0.06974524  1  0.619815  0  0.353758  0.391001  0  0.836469  0
H  H34  1  0.12326383  0.66556950  0.06989373  1  0.106808  0  0.109465  0.115759  0  0.992032  0
H  H35  1  0.39966265  0.02364288  0.86068042  1  0.125961  0  0.112233  0.120405  0  1.005037  0
H  H36  1  0.59680073  0.96831551  0.13138310  1  0.136942  0  0.113823  0.121545  0  1.008478  0
H  H37  1  0.88182200  0.43136743  0.54961591  1  0.111159  0  0.110252  0.115586  0  0.991637  0
H  H38  1  0.11516163  0.56258891  0.45146478  1  0.088981  0  0.109446  0.114565  0  0.992734  0
H  H39  1  0.88219835  0.33233386  0.45514089  1  0.127656  0  0.109286  0.114379  0  0.993288  0
C  C40  1  0.27561507  0.88701895  0.88641765  1  1.597763  0  0.232703  0.611072  0  4.175367  0
C  C41  1  0.97578221  0.91569509  0.00726825  1  0.01649  0  0.003272  -0.075149  0  3.898683  0
C  C42  1  0.00057951  0.05340366  0.05473074  1  0.037296  0  0.00204  -0.07284  0  3.89969  0
C  C43  1  0.99814326  0.94589512  0.94596501  1  -0.01836  0  0.005211  -0.069701  0  3.89949  0
C  C44  1  0.97684471  0.96960070  0.06291606  1  -0.016984  0  0.013527  0.042421  0  3.92122  0
C  C45  1  0.02197606  0.02945785  0.93796474  1  0.093913  0  0.016936  0.047186  0  3.928728  0
C  C46  1  0.55300900  0.46079251  0.52689709  1  -0.08805  0  -0.077097  -0.089742  0  3.965541  0
C  C47  1  0.44660401  0.54013313  0.47226853  1  0.028008  0  -0.078723  -0.090118  0  3.968293  0
C  C48  1  0.44628379  0.40781469  0.47294916  1  0.060886  0  -0.078011  -0.088166  0  3.967181  0
C  C49  1  0.55334458  0.59310892  0.52607533  1  -0.05256  0  -0.077787  -0.089958  0  3.962872  0
C  C50  1  0.39260770  0.44723660  0.44535705  1  0.00077  0  -0.013221  -0.033344  0  3.971224  0
C  C51  1  0.72060072  0.10917063  0.10882220  1  1.584179  0  0.234281  0.616105  0  4.157718  0
C  C52  1  0.60699389  0.55368037  0.55355824  1  0.049982  0  -0.011325  -0.025429  0  3.956749  0
C  C53  1  0.93373884  0.46207056  0.90810806  1  0.01044  0  -0.075038  -0.083772  0  3.955304  0
C  C54  1  0.06943863  0.53957781  0.09337958  1  0.005182  0  -0.080376  -0.091783  0  3.972259  0
C  C55  1  0.72168384  0.61083967  0.61117407  1  1.489863  0  0.231671  0.607376  0  4.161213  0
C  C56  1  0.27802164  0.38998138  0.38755323  1  1.54056  0  0.228931  0.60477  0  4.169729  0
C  C57  1  0.93332763  0.40814917  0.96093830  1  -0.062829  0  -0.074852  -0.084725  0  3.954812  0
C  C58  1  0.06999421  0.59343719  0.04050196  1  -0.084979  0  -0.07926  -0.092016  0  3.969014  0
C  C59  1  0.00112211  0.44675242  0.05385327  1  -0.025907  0  -0.013416  -0.035116  0  3.971415  0
C  C60  1  0.00187694  0.55486133  0.94759718  1  -0.014887  0  -0.010038  -0.028463  0  3.960174  0
C  C61  1  0.44364454  0.01183447  0.92015580  1  -0.124214  0  -0.080764  -0.14209  0  3.964119  0
C  C62  1  0.99031962  0.06716160  0.79735569  1  -0.03149  0  -0.069966  -0.080909  0  3.919456  0
C  C63  1  0.55265068  0.98163517  0.07360542  1  -0.003059  0  -0.069096  -0.108677  0  3.935671  0
C  C64  1  0.55105194  0.06806551  0.97410537  1  -0.013117  0  -0.006977  -0.069621  0  3.988726  0
C  C65  1  0.44533342  0.92585519  0.02024652  1  -0.058309  0  -0.003801  -0.0656  0  3.961254  0
C  C66  1  0.60571054  0.05253710  0.05125386  1  0.080299  0  0.001855  -0.018428  0  3.918503  0
C  C67  1  0.39063942  0.94158189  0.94317327  1  0.02063  0  0.00365  -0.010635  0  3.920172  0
C  C68  1  0.93243333  0.45922679  0.52759939  1  -0.058226  0  -0.0776  -0.087561  0  3.963494  0
C  C69  1  0.06438185  0.53468843  0.47330386  1  -0.043982  0  -0.078138  -0.088034  0  3.965099  0
C  C70  1  0.93268338  0.40443626  0.47536356  1  -0.072065  0  -0.078831  -0.091021  0  3.970213  0
C  C71  1  0.06409287  0.58944108  0.52548101  1  -0.051334  0  -0.078172  -0.089011  0  3.96666  0
C  C72  1  0.99852121  0.44193939  0.44780907  1  -0.012145  0  -0.012885  -0.032409  0  3.966728  0
C  C73  1  0.00869563  0.93254216  0.20405383  1  -0.040715  0  -0.072928  -0.089708  0  3.934452  0
C  C74  1  0.99796594  0.55194836  0.55274418  1  0.051881  0  -0.011216  -0.029648  0  3.962897  0
C  C75  1  0.92128452  0.95976815  0.51284772  1  -0.111599  0  -0.078952  -0.092526  0  3.973331  0
C  C76  1  0.07970749  0.04150839  0.48832571  1  -0.10024  0  -0.076586  -0.088103  0  3.959493  0
C  C77  1  0.92157053  0.01298260  0.45922724  1  -0.052577  0  -0.087609  -0.114345  0  3.992794  0
C  C78  1  0.07941091  0.98835449  0.54193082  1  0.032899  0  -0.072509  -0.082559  0  3.945307  0
C  C79  1  0.99984709  0.88968589  0.61161921  1  1.549749  0  0.230073  0.601717  0  4.172685  0
C  C80  1  0.00020157  0.11023618  0.38814901  1  1.542075  0  0.223149  0.590283  0  4.193727  0
C  C81  1  0.00066508  0.05387916  0.44650462  1  0.03342  0  -0.017863  -0.042443  0  3.991427  0
C  C82  1  0.00006362  0.94705408  0.55415197  1  0.040908  0  -0.008177  -0.024237  0  3.955062  0
C  C83  1  0.00173540  0.61255678  0.89062990  1  1.544455  0  0.232592  0.608604  0  4.158963  0
C  C84  1  0.01872402  0.08905666  0.73861358  1  0.014836  0  -0.085045  -0.075157  0  4.007599  0
C  C85  1  0.00078695  0.38904144  0.11068095  1  1.541679  0  0.229665  0.605115  0  4.16441  0
C  C86  1  0.99751214  0.61059227  0.60892369  1  1.544568  0  0.230545  0.606994  0  4.163131  0
C  C87  1  0.99828516  0.38378895  0.39050725  1  1.534856  0  0.230504  0.607546  0  4.159887  0
C  C88  1  0.99782478  0.88756568  0.88780220  1  1.596367  0  0.230242  0.612216  0  4.199662  0
C  C89  1  0.00104692  0.11185802  0.11277776  1  1.598135  0  0.227495  0.608735  0  4.20622  0
C  C90  1  0.17421611  0.09839401  0.83816393  1  -0.059718  0  -0.020142  -0.040104  0  4.003373  0
C  C91  1  0.83123057  0.91260274  0.16857051  1  -0.053147  0  -0.023651  -0.061097  0  4.031743  0
C  C92  1  0.14613758  0.07702677  0.89758695  1  -0.015874  0  -0.082378  -0.14406  0  3.922589  0
C  C93  1  0.85739216  0.92994866  0.10756496  1  -0.012008  0  -0.075358  -0.12867  0  3.912027  0
C  C94  1  0.05340056  0.06000513  0.87691398  1  -0.019371  0  -0.010031  0.060258  0  4.003079  0
C  C95  1  0.98186049  0.91324699  0.26395506  1  -0.045148  0  -0.085693  -0.068161  0  4.008376  0
C  C96  1  0.94640364  0.94098593  0.12500774  1  0.015889  0  -0.00626  0.069307  0  3.990369  0
C  C97  1  0.60504430  0.14949988  0.95353559  1  1.565796  0  0.230407  0.57926  0  4.140841  0
C  C98  1  0.39044624  0.84544229  0.04142487  1  1.556887  0  0.233479  0.583713  0  4.114865  0
C  C99  1  0.27056184  0.11411531  0.85700003  1  1.474931  0  0.227152  0.571669  0  4.128969  0
C  C100  1  0.73761949  0.90660666  0.14624110  1  1.500831  0  0.227443  0.566482  0  4.113112  0
C  C101  1  0.04363052  0.17158142  0.98479450  1  1.544998  0  0.235439  0.587313  0  4.121972  0
C  C102  1  0.94045521  0.82145788  0.00224259  1  1.530424  0  0.235064  0.588043  0  4.118083  0
C  C103  1  0.10967293  0.10365757  0.75805003  1  -0.003177  0  -0.076905  -0.087222  0  3.961507  0
C  C104  1  0.89373188  0.90350953  0.24676981  1  -0.005887  0  -0.087335  -0.111704  0  4.012454  0
C  C105  1  0.02159887  0.08287108  0.99273026  1  -0.018141  0  0.004257  -0.070673  0  3.900141  0
O  O106  1  0.00021777  0.75075945  0.75048496  1  -1.188238  0  -0.571567  -1.029444  0  2.530721  0
O  O107  1  0.23290531  0.42917943  0.36391092  1  -1.164452  0  -0.314406  -0.546962  0  2.338747  0
O  O108  1  0.23300616  0.86984163  0.92748933  1  -1.154264  0  -0.306531  -0.54017  0  2.346433  0
O  O109  1  0.76457852  0.13424827  0.06877288  1  -1.157491  0  -0.303349  -0.536429  0  2.34005  0
O  O110  1  0.76572538  0.69471344  0.62984393  1  -1.159144  0  -0.313658  -0.544706  0  2.341314  0
O  O111  1  0.23417199  0.30602789  0.36632111  1  -1.187093  0  -0.314276  -0.544212  0  2.347933  0
O  O112  1  0.06322935  0.86902462  0.63473162  1  -1.18177  0  -0.310979  -0.542371  0  2.345345  0
O  O113  1  0.92884487  0.12222797  0.35624564  1  -1.184913  0  -0.315788  -0.55224  0  2.358495  0
O  O114  1  0.94317525  0.57326534  0.80667050  1  -1.173894  0  -0.311672  -0.543277  0  2.344794  0
O  O115  1  0.05818598  0.42794036  0.19474090  1  -1.166717  0  -0.314677  -0.546768  0  2.34251  0
O  O116  1  0.05893016  0.69447210  0.62963042  1  -1.178457  0  -0.314576  -0.546991  0  2.333946  0
O  O117  1  0.99780234  0.24809666  0.24832846  1  -1.219032  0  -0.571937  -1.029528  0  2.532966  0
O  O118  1  0.93621308  0.29965389  0.36842815  1  -1.169378  0  -0.315505  -0.548085  0  2.329129  0
O  O119  1  0.06275786  0.86899777  0.92886339  1  -1.167814  0  -0.309222  -0.542425  0  2.333477  0
O  O120  1  0.93751381  0.13184296  0.07173964  1  -1.158876  0  -0.306848  -0.539771  0  2.34129  0
O  O121  1  0.93564677  0.57197028  0.63145097  1  -1.152434  0  -0.312654  -0.544448  0  2.344091  0
O  O122  1  0.06010617  0.42310868  0.36807244  1  -1.160037  0  -0.313417  -0.544066  0  2.350467  0
O  O123  1  0.93460591  0.86433107  0.80453986  1  -1.157221  0  -0.300395  -0.525551  0  2.347418  0
O  O124  1  0.06415516  0.13498365  0.19614772  1  -1.163272  0  -0.303302  -0.531307  0  2.350778  0
O  O125  1  0.65228795  0.22455849  0.00157633  1  -1.10984  0  -0.282893  -0.446113  0  2.026554  0
O  O126  1  0.59311299  0.13462048  0.87443208  1  -1.132368  0  -0.332032  -0.465564  0  2.182817  0
O  O127  1  0.32676231  0.77055570  0.98818949  1  -1.107275  0  -0.276206  -0.437894  0  2.038963  0
O  O128  1  0.93604153  0.86613064  0.63203195  1  -1.157985  0  -0.310132  -0.543897  0  2.347048  0
O  O129  1  0.41954935  0.86104467  0.12741755  1  -1.099791  0  -0.33848  -0.473243  0  2.179407  0
O  O130  1  0.28828835  0.11129023  0.80126560  1  -1.130692  0  -0.301862  -0.496662  0  2.057431  0
O  O131  1  0.33965051  0.13251970  0.94491151  1  -1.112871  0  -0.341061  -0.485924  0  2.2096  0
O  O132  1  0.67304462  0.89797883  0.07234339  1  -1.125439  0  -0.280659  -0.448949  0  2.062767  0
O  O133  1  0.72583391  0.91266026  0.21350202  1  -1.115545  0  -0.345116  -0.478064  0  2.228121  0
O  O134  1  0.99616024  0.18317124  0.91644660  1  -1.124806  0  -0.276067  -0.468656  0  2.077184  0
O  O135  1  0.12427467  0.23886128  0.06371198  1  -1.111914  0  -0.331225  -0.47919  0  2.200082  0
O  O136  1  0.87246266  0.75873106  0.93288034  1  -1.110107  0  -0.283533  -0.468899  0  2.046441  0
O  O137  1  0.99231154  0.81261723  0.08174395  1  -1.10977  0  -0.323737  -0.477756  0  2.238382  0
O  O138  1  0.07002819  0.14074472  0.37430084  1  -1.165768  0  -0.309635  -0.537704  0  2.346217  0
O  O139  1  0.05987824  0.69644602  0.93063595  1  -1.161836  0  -0.310761  -0.542072  0  2.339957  0
O  O140  1  0.94356293  0.30520940  0.07065891  1  -1.174442  0  -0.313076  -0.545009  0  2.343511  0
O  O141  1  0.23258260  0.86596900  0.80281776  1  -1.173903  0  -0.307661  -0.530968  0  2.319641  0
O  O142  1  0.76314429  0.12608499  0.19220803  1  -1.159834  0  -0.308423  -0.535831  0  2.323812  0
O  O143  1  0.76621653  0.57128452  0.63669069  1  -1.162583  0  -0.312947  -0.545438  0  2.338728  0
