# generated using pymatgen
data_BiH3RhC8O8F9
_symmetry_space_group_name_H-M   'P 1'
_cell_length_a   8.77908219
_cell_length_b   9.59318712
_cell_length_c   19.98864398
_cell_angle_alpha   89.99928679
_cell_angle_beta   90.00300581
_cell_angle_gamma   105.41055449
_symmetry_Int_Tables_number   1
_chemical_formula_structural   BiH3RhC8O8F9
_chemical_formula_sum   'Bi4 H12 Rh4 C32 O32 F36'
_cell_volume   1622.90587079
_cell_formula_units_Z   4
loop_
 _symmetry_equiv_pos_site_id
 _symmetry_equiv_pos_as_xyz
  1  'x, y, z'
loop_
 _atom_site_type_symbol
 _atom_site_label
 _atom_site_symmetry_multiplicity
 _atom_site_fract_x
 _atom_site_fract_y
 _atom_site_fract_z
 _atom_site_occupancy
 _atom_site_pbe_bader_spin_density
 _atom_site_pbe_cm5_charge
 _atom_site_pbe_ddec_charge
 _atom_site_pbe_ddec_spin_density
 _atom_site_pbe_ddec_sum_bond_order
 _atom_site_pbe_magmom
Bi  Bi0  1  0.71916787  0.46396595  0.66178515  1  0  0.623516  0.986519  0  2.570925  0
Bi  Bi1  1  0.28081603  0.03606224  0.16177598  1  0  0.623668  0.98671  0  2.57083  0
Bi  Bi2  1  0.28084862  0.53609352  0.33822117  1  0  0.623842  0.98699  0  2.570506  0
Bi  Bi3  1  0.71919350  0.96392915  0.83821783  1  0  0.623672  0.986767  0  2.570679  0
H  H4  1  0.83028210  0.57645232  0.91119171  1  0  0.106644  0.177024  0  0.97787  0
H  H5  1  0.16969339  0.92353792  0.41119916  1  0  0.106607  0.177095  0  0.977867  0
H  H6  1  0.16970443  0.42353034  0.08881661  1  0  0.106534  0.176921  0  0.977764  0
H  H7  1  0.83029456  0.07646959  0.58881066  1  0  0.106563  0.176999  0  0.97785  0
H  H8  1  0.99867445  0.71921935  0.88762984  1  0  0.101125  0.171873  0  0.985253  0
H  H9  1  0.00132412  0.78076983  0.38760776  1  0  0.101156  0.171926  0  0.985323  0
H  H10  1  0.00132838  0.28074069  0.11240900  1  0  0.101111  0.171833  0  0.985374  0
H  H11  1  0.99867605  0.21924853  0.61239206  1  0  0.101074  0.171856  0  0.985244  0
H  H12  1  0.00182172  0.53256241  0.88212379  1  0  0.101589  0.174613  0  1.005373  0
H  H13  1  0.99818364  0.96742893  0.38210005  1  0  0.101627  0.1747  0  1.00546  0
H  H14  1  0.99817000  0.46741055  0.11788953  1  0  0.10163  0.174692  0  1.005365  0
H  H15  1  0.00183384  0.03258625  0.61788626  1  0  0.1016  0.174678  0  1.005423  0
Rh  Rh16  1  0.77798697  0.73644066  0.68573361  1  0  0.645853  0.530419  0  3.636747  0
Rh  Rh17  1  0.22199110  0.76356511  0.18573322  1  0  0.645758  0.530143  0  3.637053  0
Rh  Rh18  1  0.22200491  0.26357658  0.31426521  1  0  0.645796  0.530124  0  3.637043  0
Rh  Rh19  1  0.77799903  0.23643809  0.81426209  1  0  0.645724  0.530174  0  3.636897  0
C  C20  1  0.86655416  0.60120389  0.80623596  1  0  0.231703  0.674836  0  4.050987  0
C  C21  1  0.13348175  0.89880246  0.30623072  1  0  0.231951  0.67518  0  4.050641  0
C  C22  1  0.13345700  0.39880911  0.19378037  1  0  0.231804  0.674926  0  4.050076  0
C  C23  1  0.86656281  0.10119986  0.69377460  1  0  0.232104  0.675508  0  4.05015  0
C  C24  1  0.92980248  0.60904031  0.87605681  1  0  -0.243008  -0.540622  0  3.865302  0
C  C25  1  0.07020453  0.89095535  0.37604515  1  0  -0.243039  -0.540909  0  3.865636  0
C  C26  1  0.07019607  0.39094456  0.12396152  1  0  -0.242879  -0.540592  0  3.86525  0
C  C27  1  0.92980788  0.10905009  0.62395566  1  0  -0.242899  -0.54079  0  3.865294  0
C  C28  1  0.45613569  0.59610469  0.72701376  1  0  0.213967  0.41124  0  4.224939  0
C  C29  1  0.54385868  0.90387318  0.22699194  1  0  0.214096  0.41166  0  4.224894  0
C  C30  1  0.54388218  0.40392777  0.27301057  1  0  0.213781  0.411007  0  4.225076  0
C  C31  1  0.45612456  0.09609003  0.77300438  1  0  0.213919  0.411458  0  4.22519  0
C  C32  1  0.30044027  0.60229316  0.76209437  1  0  0.304662  0.599639  0  4.027028  0
C  C33  1  0.69956163  0.89770429  0.26208818  1  0  0.304657  0.599557  0  4.027135  0
C  C34  1  0.69953640  0.39770675  0.23791145  1  0  0.304647  0.59934  0  4.0272  0
C  C35  1  0.30044147  0.10229248  0.73790914  1  0  0.304641  0.599463  0  4.02708  0
C  C36  1  0.66942655  0.68541179  0.54874623  1  0  0.21244  0.411814  0  4.221692  0
C  C37  1  0.33052115  0.81458481  0.04874554  1  0  0.212345  0.41147  0  4.221937  0
C  C38  1  0.33054720  0.31459783  0.45125709  1  0  0.212406  0.411657  0  4.221772  0
C  C39  1  0.66950248  0.18541203  0.95125828  1  0  0.212435  0.411567  0  4.221723  0
C  C40  1  0.64627944  0.75102046  0.47958850  1  0  0.304008  0.60266  0  4.022298  0
C  C41  1  0.35369816  0.74897649  0.97959704  1  0  0.30413  0.603111  0  4.021814  0
C  C42  1  0.35370003  0.24896542  0.52039681  1  0  0.30413  0.603023  0  4.021756  0
C  C43  1  0.64630971  0.25101706  0.02039927  1  0  0.304221  0.603247  0  4.021151  0
C  C44  1  0.04596508  0.67073618  0.61748462  1  0  0.212141  0.402952  0  4.243186  0
C  C45  1  0.95398573  0.82924660  0.11749972  1  0  0.212008  0.402756  0  4.242936  0
C  C46  1  0.95402307  0.32927997  0.38250369  1  0  0.211965  0.402745  0  4.24314  0
C  C47  1  0.04599945  0.17073930  0.88250210  1  0  0.212125  0.402946  0  4.242986  0
C  C48  1  0.20384203  0.71921274  0.57815697  1  0  0.300833  0.595374  0  4.041647  0
C  C49  1  0.79611885  0.78078184  0.07815620  1  0  0.300695  0.595549  0  4.041429  0
C  C50  1  0.79617174  0.28078947  0.42183435  1  0  0.300774  0.595455  0  4.041768  0
C  C51  1  0.20386610  0.21921918  0.92184111  1  0  0.300708  0.595379  0  4.041414  0
O  O52  1  0.81262548  0.47814802  0.77785859  1  0  -0.280027  -0.480377  0  2.351223  0
O  O53  1  0.18740175  0.02186772  0.27784936  1  0  -0.280156  -0.480549  0  2.35079  0
O  O54  1  0.18742017  0.52188995  0.22215773  1  0  -0.280058  -0.480384  0  2.350442  0
O  O55  1  0.81268283  0.97812718  0.72216347  1  0  -0.280195  -0.480805  0  2.35096  0
O  O56  1  0.98551737  0.53611039  0.62019739  1  0  -0.270761  -0.439857  0  2.302754  0
O  O57  1  0.01444329  0.96387783  0.12019702  1  0  -0.270803  -0.439815  0  2.302424  0
O  O58  1  0.01448415  0.46390473  0.37979442  1  0  -0.270805  -0.439908  0  2.30267  0
O  O59  1  0.98554374  0.03611455  0.87979979  1  0  -0.270794  -0.439843  0  2.30268  0
O  O60  1  0.66711440  0.55400957  0.55114596  1  0  -0.271397  -0.447071  0  2.309266  0
O  O61  1  0.33288517  0.94601206  0.05115204  1  0  -0.271386  -0.447019  0  2.309356  0
O  O62  1  0.33287342  0.44601738  0.44884935  1  0  -0.27152  -0.447217  0  2.309354  0
O  O63  1  0.66714487  0.05399128  0.94884878  1  0  -0.271415  -0.44713  0  2.309495  0
O  O64  1  0.46095112  0.47889762  0.70068472  1  0  -0.26227  -0.429854  0  2.342498  0
O  O65  1  0.53903960  0.02107454  0.20065808  1  0  -0.262411  -0.430065  0  2.342595  0
O  O66  1  0.53907033  0.52109165  0.29934761  1  0  -0.262084  -0.429496  0  2.343423  0
O  O67  1  0.46095118  0.97890706  0.79932723  1  0  -0.262287  -0.429888  0  2.343102  0
O  O68  1  0.86832727  0.72145364  0.77776345  1  0  -0.293581  -0.464566  0  2.467536  0
O  O69  1  0.13173786  0.77855921  0.27777240  1  0  -0.293773  -0.464728  0  2.467895  0
O  O70  1  0.13170440  0.27857132  0.22223937  1  0  -0.293738  -0.464613  0  2.468024  0
O  O71  1  0.86827198  0.22143326  0.72222892  1  0  -0.293766  -0.464745  0  2.467767  0
O  O72  1  0.99338441  0.77280827  0.64002603  1  0  -0.281517  -0.397687  0  2.52046  0
O  O73  1  0.00656028  0.72718752  0.14005742  1  0  -0.281372  -0.397528  0  2.520536  0
O  O74  1  0.00661379  0.22721116  0.35995178  1  0  -0.281476  -0.397614  0  2.520429  0
O  O75  1  0.99342509  0.27280702  0.85994840  1  0  -0.281422  -0.397622  0  2.520503  0
O  O76  1  0.69376270  0.77879396  0.59552529  1  0  -0.290794  -0.402641  0  2.497083  0
O  O77  1  0.30614782  0.72120049  0.09552160  1  0  -0.290726  -0.40241  0  2.497531  0
O  O78  1  0.30621621  0.22122972  0.40447352  1  0  -0.290701  -0.402459  0  2.497427  0
O  O79  1  0.69385331  0.27879735  0.90447672  1  0  -0.290753  -0.402478  0  2.497351  0
O  O80  1  0.56442370  0.71496210  0.73046912  1  0  -0.289316  -0.426169  0  2.538179  0
O  O81  1  0.43558352  0.78502338  0.23044851  1  0  -0.28933  -0.42641  0  2.538472  0
O  O82  1  0.43557119  0.28504975  0.26954221  1  0  -0.289475  -0.426349  0  2.537197  0
O  O83  1  0.56441254  0.21496471  0.76954881  1  0  -0.289361  -0.426383  0  2.537733  0
F  F84  1  0.16956705  0.71416697  0.51124660  1  0  -0.102005  -0.196702  0  1.300868  0
F  F85  1  0.83043718  0.78583188  0.01124859  1  0  -0.101989  -0.196765  0  1.300883  0
F  F86  1  0.83049275  0.28582892  0.48874322  1  0  -0.101935  -0.196699  0  1.300664  0
F  F87  1  0.16955804  0.21416918  0.98874972  1  0  -0.101968  -0.196704  0  1.300748  0
F  F88  1  0.28781090  0.85491738  0.59318656  1  0  -0.099296  -0.18867  0  1.36508  0
F  F89  1  0.71214008  0.64507613  0.09317217  1  0  -0.099288  -0.188801  0  1.365062  0
F  F90  1  0.71220942  0.14507189  0.40680575  1  0  -0.099277  -0.188636  0  1.365118  0
F  F91  1  0.28783668  0.35492810  0.90681564  1  0  -0.099317  -0.188742  0  1.36508  0
F  F92  1  0.29596679  0.62856789  0.58986845  1  0  -0.096795  -0.1844  0  1.373825  0
F  F93  1  0.70398690  0.87142454  0.08984751  1  0  -0.096657  -0.18432  0  1.373804  0
F  F94  1  0.70402305  0.37142235  0.41014087  1  0  -0.09672  -0.184374  0  1.373915  0
F  F95  1  0.29599867  0.12857864  0.91014581  1  0  -0.096713  -0.184351  0  1.373736  0
F  F96  1  0.50430584  0.78286993  0.47563352  1  0  -0.106133  -0.212742  0  1.336946  0
F  F97  1  0.49568299  0.71714000  0.97565854  1  0  -0.106347  -0.212991  0  1.336606  0
F  F98  1  0.49568265  0.21712354  0.52433928  1  0  -0.106356  -0.212951  0  1.336468  0
F  F99  1  0.50431753  0.28284379  0.02432627  1  0  -0.106359  -0.213008  0  1.336395  0
F  F100  1  0.76128152  0.87633329  0.47026866  1  0  -0.096131  -0.188714  0  1.331038  0
F  F101  1  0.23870171  0.62365932  0.97027630  1  0  -0.096005  -0.188723  0  1.33107  0
F  F102  1  0.23868957  0.12364716  0.52970314  1  0  -0.095912  -0.188577  0  1.330947  0
F  F103  1  0.76129994  0.37633636  0.02973052  1  0  -0.096064  -0.188785  0  1.330815  0
F  F104  1  0.65485341  0.66028756  0.42898764  1  0  -0.090812  -0.182035  0  1.398141  0
F  F105  1  0.34512361  0.83970059  0.92898744  1  0  -0.090769  -0.182074  0  1.397909  0
F  F106  1  0.34513012  0.33968861  0.57101118  1  0  -0.09085  -0.182206  0  1.397673  0
F  F107  1  0.65485556  0.16028421  0.07101088  1  0  -0.090798  -0.182081  0  1.397801  0
F  F108  1  0.32722482  0.62560447  0.82876146  1  0  -0.100555  -0.200558  0  1.359299  0
F  F109  1  0.67276112  0.87441689  0.32875629  1  0  -0.100582  -0.200612  0  1.359285  0
F  F110  1  0.67269803  0.37439849  0.17124386  1  0  -0.100547  -0.200456  0  1.359278  0
F  F111  1  0.32725169  0.12560584  0.67124102  1  0  -0.100555  -0.200565  0  1.359232  0
F  F112  1  0.18496761  0.47906763  0.75430499  1  0  -0.087385  -0.168369  0  1.389434  0
F  F113  1  0.81502529  0.02092954  0.25429721  1  0  -0.08733  -0.168288  0  1.389416  0
F  F114  1  0.81502451  0.52092261  0.24568933  1  0  -0.087318  -0.168248  0  1.389408  0
F  F115  1  0.18496992  0.97907152  0.74568960  1  0  -0.087337  -0.168268  0  1.389472  0
F  F116  1  0.24652884  0.71238124  0.73732536  1  0  -0.096741  -0.18793  0  1.379889  0
F  F117  1  0.75348603  0.78761618  0.23733557  1  0  -0.096752  -0.187914  0  1.379944  0
F  F118  1  0.75344214  0.28760677  0.26267646  1  0  -0.096738  -0.187852  0  1.379742  0
F  F119  1  0.24652452  0.21238277  0.76267025  1  0  -0.096751  -0.18787  0  1.379844  0
