# generated using pymatgen
data_Zn2H17C27N2O8F
_symmetry_space_group_name_H-M   'P 1'
_cell_length_a   9.73026738
_cell_length_b   11.10926490
_cell_length_c   24.39668350
_cell_angle_alpha   90.11588689
_cell_angle_beta   88.66253323
_cell_angle_gamma   89.98344749
_symmetry_Int_Tables_number   1
_chemical_formula_structural   Zn2H17C27N2O8F
_chemical_formula_sum   'Zn4 H34 C54 N4 O16 F2'
_cell_volume   2636.46275882
_cell_formula_units_Z   2
loop_
 _symmetry_equiv_pos_site_id
 _symmetry_equiv_pos_as_xyz
  1  'x, y, z'
loop_
 _atom_site_type_symbol
 _atom_site_label
 _atom_site_symmetry_multiplicity
 _atom_site_fract_x
 _atom_site_fract_y
 _atom_site_fract_z
 _atom_site_occupancy
 _atom_site_pbe_bader_charge
 _atom_site_pbe_bader_spin_density
 _atom_site_pbe_cm5_charge
 _atom_site_pbe_ddec_charge
 _atom_site_pbe_ddec_spin_density
 _atom_site_pbe_ddec_sum_bond_order
 _atom_site_pbe_magmom
Zn  Zn0  1  0.63133613  0.50263651  0.50143583  1  1.278716  0  0.663241  0.811497  0  2.434209  0
Zn  Zn1  1  0.34906279  0.50205843  0.49909906  1  1.273645  0  0.663499  0.808302  0  2.447178  0
Zn  Zn2  1  0.36674348  0.50463356  0.04271347  1  1.293438  0  0.663354  0.813774  0  2.435825  0
Zn  Zn3  1  0.64889694  0.50386257  0.04628413  1  1.267801  0  0.6624  0.804658  0  2.444841  0
H  H4  1  0.86133859  0.38158269  0.43544965  1  0.115399  0  0.136249  0.116918  0  0.974938  0
H  H5  1  0.12146488  0.37998891  0.43431783  1  0.142791  0  0.136881  0.118291  0  0.969825  0
H  H6  1  0.11683576  0.61497087  0.61897360  1  0.094291  0  0.110143  0.133204  0  0.989915  0
H  H7  1  0.12230871  0.73662934  0.57145313  1  0.125455  0  0.109621  0.129074  0  0.99853  0
H  H8  1  0.86039954  0.74130546  0.57180209  1  0.09278  0  0.11349  0.137  0  0.970718  0
H  H9  1  0.85597884  0.61912234  0.61926248  1  0.124558  0  0.113923  0.138536  0  0.969191  0
H  H10  1  0.72583794  0.11164808  0.50169321  1  0.08072  0  0.09909  0.104292  0  1.007244  0
H  H11  1  0.72118328  0.88779324  0.50261375  1  0.053738  0  0.097798  0.100225  0  1.017517  0
H  H12  1  0.18413027  0.89093308  0.45984459  1  0.06527  0  0.096036  0.106512  0  0.981903  0
H  H13  1  0.17446966  0.89973835  0.53284731  1  0.029437  0  0.089533  0.091637  0  1.016714  0
H  H14  1  0.17873062  0.12509547  0.52838993  1  0.062323  0  0.093728  0.102812  0  0.986628  0
H  H15  1  0.19245898  0.11796218  0.45544580  1  0.047625  0  0.093015  0.099343  0  0.989985  0
H  H16  1  0.32294459  0.50001889  0.86453446  1  0.113698  0  0.104447  0.113183  0  1.023659  0
H  H17  1  0.76424777  0.49237115  0.87324805  1  0.11018  0  0.11044  0.135044  0  1.010153  0
H  H18  1  0.67650787  0.49817275  0.68008149  1  0.111989  0  0.104269  0.113132  0  1.022476  0
H  H19  1  0.23509996  0.49294284  0.67149212  1  0.105408  0  0.110478  0.135286  0  1.010255  0
H  H20  1  0.27047809  0.50643632  0.32143999  1  0.090081  0  0.098685  0.103114  0  1.00929  0
H  H21  1  0.28259751  0.50721816  0.21941169  1  0.077592  0  0.098513  0.10288  0  1.008745  0
H  H22  1  0.82331737  0.41807410  0.22388717  1  0.054738  0  0.089989  0.094121  0  0.997051  0
H  H23  1  0.82587815  0.57849020  0.22438847  1  0.069598  0  0.094639  0.103826  0  0.984908  0
H  H24  1  0.81327937  0.57665169  0.32787212  1  0.070249  0  0.094617  0.104455  0  0.984646  0
H  H25  1  0.80995128  0.41614399  0.32680244  1  0.039209  0  0.090502  0.095099  0  0.996195  0
H  H26  1  0.13830498  0.38377977  0.10876554  1  0.1515  0  0.137527  0.120999  0  0.965653  0
H  H27  1  0.87816521  0.38286065  0.11105409  1  0.143612  0  0.135835  0.114544  0  0.978987  0
H  H28  1  0.87851936  0.61537456  0.92638827  1  0.10644  0  0.110238  0.133717  0  0.990752  0
H  H29  1  0.87382259  0.73785281  0.97364941  1  0.087963  0  0.10977  0.12965  0  1.000299  0
H  H30  1  0.13590654  0.74239824  0.97256994  1  0.12257  0  0.113541  0.136354  0  0.970347  0
H  H31  1  0.13940460  0.62001815  0.92496298  1  0.090153  0  0.114063  0.138818  0  0.96892  0
H  H32  1  0.27516679  0.11366383  0.04258297  1  0.088592  0  0.099595  0.105224  0  1.006539  0
H  H33  1  0.27974481  0.88974520  0.04161606  1  0.070341  0  0.097522  0.099843  0  1.016596  0
H  H34  1  0.81648080  0.89269618  0.08535108  1  0.057511  0  0.095672  0.105791  0  0.982665  0
H  H35  1  0.82681337  0.90131160  0.01237878  1  0.041676  0  0.089468  0.091955  0  1.016591  0
H  H36  1  0.82246031  0.12658671  0.01707163  1  0.048066  0  0.093881  0.103207  0  0.985989  0
H  H37  1  0.80786716  0.11976218  0.08998252  1  0.044688  0  0.092577  0.0988  0  0.990579  0
C  C38  1  0.50063238  0.73844644  0.50168104  1  1.55633  0  0.213565  0.596655  0  4.179944  0
C  C39  1  0.46891167  0.49871041  0.60831835  1  1.569658  0  0.215005  0.590943  0  4.170033  0
C  C40  1  0.50844387  0.26687909  0.49842887  1  1.566037  0  0.213711  0.598217  0  4.179807  0
C  C41  1  0.48148588  0.50251917  0.39274384  1  1.520419  0  0.213689  0.59857  0  4.177852  0
C  C42  1  0.50021312  0.74027743  0.04279587  1  1.595241  0  0.214563  0.598362  0  4.17623  0
C  C43  1  0.52967609  0.49980243  0.93642209  1  1.558631  0  0.214991  0.589842  0  4.169811  0
C  C44  1  0.49284487  0.26868083  0.04621144  1  1.524587  0  0.213944  0.597406  0  4.178035  0
C  C45  1  0.50925722  0.50465162  0.15219709  1  1.527112  0  0.213788  0.599564  0  4.175181  0
C  C46  1  0.06129241  0.56400399  0.53494046  1  0.546664  0  0.148045  0.200127  0  3.861793  0
C  C47  1  0.91919300  0.43523125  0.46439142  1  0.541176  0  0.066354  0.043487  0  3.871632  0
C  C48  1  0.91800638  0.56634764  0.53502603  1  0.575109  0  0.148325  0.198486  0  3.860771  0
C  C49  1  0.06261834  0.43376002  0.46399163  1  0.447253  0  0.067147  0.044306  0  3.871478  0
C  C50  1  0.07069872  0.65173793  0.58201762  1  -0.05159  0  -0.136462  -0.223821  0  3.815655  0
C  C51  1  0.90712887  0.65458535  0.58213469  1  -0.085746  0  -0.135187  -0.226178  0  3.810819  0
C  C52  1  0.50099306  0.87281100  0.50041578  1  -0.057485  0  -0.015133  -0.074954  0  3.973119  0
C  C53  1  0.50617945  0.13270859  0.49827971  1  -0.044892  0  -0.014681  -0.071778  0  3.973161  0
C  C54  1  0.38139161  0.94155970  0.49806182  1  0.04796  0  -0.006075  0.059407  0  3.883987  0
C  C55  1  0.62798491  0.06397729  0.50050015  1  -0.00297  0  -0.089583  -0.105425  0  3.998454  0
C  C56  1  0.38422428  0.06732049  0.49671784  1  0.008401  0  -0.005649  0.062577  0  3.886035  0
C  C57  1  0.62530552  0.93841750  0.50132213  1  -0.054658  0  -0.091269  -0.107609  0  4.003337  0
C  C58  1  0.22578625  0.93632288  0.49589321  1  -0.052028  0  -0.153234  -0.196349  0  3.892794  0
C  C59  1  0.22941181  0.07851018  0.49366554  1  -0.039996  0  -0.154159  -0.197364  0  3.896345  0
C  C60  1  0.42325445  0.49951310  0.84391733  1  -0.005046  0  -0.085526  -0.143753  0  3.956308  0
C  C61  1  0.67232752  0.49609699  0.84877725  1  0.101579  0  -0.099548  -0.235552  0  3.995809  0
C  C62  1  0.68198660  0.49710565  0.79268374  1  0.338044  0  0.099236  0.245185  0  4.051386  0
C  C63  1  0.56591312  0.49843674  0.75858707  1  0.001498  0  -0.0102  -0.008247  0  4.019957  0
C  C64  1  0.57621989  0.49834817  0.70073301  1  0.042547  0  -0.085022  -0.143266  0  3.953204  0
C  C65  1  0.32702167  0.49611846  0.69597205  1  0.122202  0  -0.099268  -0.235499  0  3.995602  0
C  C66  1  0.31744830  0.49767976  0.75204030  1  0.334749  0  0.098906  0.24515  0  4.053761  0
C  C67  1  0.43360609  0.49887903  0.78608748  1  -0.028231  0  -0.010633  -0.008058  0  4.021779  0
C  C68  1  0.54053066  0.49832954  0.87488808  1  0.019309  0  -0.012835  0.00668  0  3.976147  0
C  C69  1  0.45880818  0.49744963  0.66983542  1  -0.014281  0  -0.013111  0.006353  0  3.976162  0
C  C70  1  0.50327481  0.50322132  0.21333935  1  0.057179  0  -0.014422  -0.07337  0  3.972066  0
C  C71  1  0.48956878  0.50219527  0.33164836  1  0.002692  0  -0.015498  -0.074866  0  3.975611  0
C  C72  1  0.62083462  0.50082405  0.24496694  1  -0.08444  0  -0.006412  0.060267  0  3.87807  0
C  C73  1  0.36998868  0.50450684  0.29996840  1  -0.037529  0  -0.089583  -0.104556  0  3.998692  0
C  C74  1  0.61403239  0.50020665  0.30225371  1  0.124248  0  -0.006192  0.063241  0  3.88362  0
C  C75  1  0.37671837  0.50494955  0.24278676  1  -0.091563  0  -0.090393  -0.105511  0  3.999737  0
C  C76  1  0.77686528  0.49871065  0.24282745  1  -0.073427  0  -0.154139  -0.196319  0  3.896116  0
C  C77  1  0.76890079  0.49770857  0.30764748  1  -0.082966  0  -0.154311  -0.198659  0  3.896637  0
C  C78  1  0.93599638  0.56582569  0.01019437  1  0.487793  0  0.148326  0.200089  0  3.861605  0
C  C79  1  0.07974853  0.43725990  0.08006376  1  0.504121  0  0.066976  0.043871  0  3.86956  0
C  C80  1  0.07930406  0.56772029  0.00943342  1  0.621541  0  0.148322  0.198951  0  3.862549  0
C  C81  1  0.93627512  0.43629858  0.08113192  1  0.423066  0  0.067454  0.043054  0  3.876191  0
C  C82  1  0.92543688  0.65285854  0.96309311  1  -0.085597  0  -0.136919  -0.224937  0  3.815526  0
C  C83  1  0.08910844  0.65559600  0.96231884  1  0.011931  0  -0.134705  -0.225971  0  3.810846  0
C  C84  1  0.49985367  0.87462170  0.04412005  1  -0.063512  0  -0.015117  -0.074371  0  3.972535  0
C  C85  1  0.49475368  0.13447368  0.04640511  1  0.037871  0  -0.014319  -0.071053  0  3.969805  0
C  C86  1  0.61945797  0.94324590  0.04685334  1  -0.081371  0  -0.006151  0.058689  0  3.881765  0
C  C87  1  0.37293243  0.06588063  0.04390711  1  -0.03065  0  -0.08993  -0.106452  0  3.998103  0
C  C88  1  0.61662389  0.06899301  0.04828751  1  -0.002762  0  -0.005977  0.062177  0  3.885641  0
C  C89  1  0.37560615  0.94031866  0.04302202  1  -0.018612  0  -0.090648  -0.106634  0  4.002213  0
C  C90  1  0.77507676  0.93794540  0.04929963  1  -0.041671  0  -0.153049  -0.196448  0  3.891914  0
C  C91  1  0.77139232  0.08014674  0.05165568  1  -0.008031  0  -0.154325  -0.197262  0  3.896323  0
N  N92  1  0.13694928  0.49918614  0.49993511  1  -1.200151  0  -0.286527  -0.17674  0  3.464854  0
N  N93  1  0.84358824  0.50304159  0.50041617  1  -1.217902  0  -0.285364  -0.17449  0  3.461686  0
N  N94  1  0.86105822  0.50163185  0.04556639  1  -1.212603  0  -0.285885  -0.174266  0  3.460935  0
N  N95  1  0.15455629  0.50452376  0.04368186  1  -1.2145  0  -0.285606  -0.174659  0  3.462183  0
O  O96  1  0.61699231  0.68586604  0.50383758  1  -1.165565  0  -0.320826  -0.550814  0  2.330267  0
O  O97  1  0.38397003  0.68624773  0.50051284  1  -1.159417  0  -0.314441  -0.542504  0  2.296321  0
O  O98  1  0.35528231  0.50010645  0.58337070  1  -1.166537  0  -0.316426  -0.545736  0  2.334331  0
O  O99  1  0.58826342  0.49894742  0.58592339  1  -1.163813  0  -0.315575  -0.544868  0  2.302144  0
O  O100  1  0.39211273  0.31981783  0.49792163  1  -1.158211  0  -0.315445  -0.546314  0  2.312341  0
O  O101  1  0.62533783  0.31862242  0.49947366  1  -1.166491  0  -0.322013  -0.55117  0  2.322067  0
O  O102  1  0.59516278  0.50350939  0.41779330  1  -1.173041  0  -0.31588  -0.549401  0  2.304183  0
O  O103  1  0.36204429  0.50203897  0.41543538  1  -1.166919  0  -0.322433  -0.551815  0  2.3253  0
O  O104  1  0.38384802  0.68763879  0.04119405  1  -1.16565  0  -0.321051  -0.5507  0  2.327924  0
O  O105  1  0.61704790  0.68819022  0.04344362  1  -1.162758  0  -0.31477  -0.543272  0  2.297216  0
O  O106  1  0.64275307  0.49931441  0.96172441  1  -1.164971  0  -0.316293  -0.545211  0  2.331322  0
O  O107  1  0.40988455  0.50194019  0.95841226  1  -1.163919  0  -0.316272  -0.544943  0  2.304184  0
O  O108  1  0.60926694  0.32122137  0.04779812  1  -1.158921  0  -0.315297  -0.545166  0  2.3119  0
O  O109  1  0.37626874  0.32072651  0.04407925  1  -1.161399  0  -0.322246  -0.551285  0  2.323575  0
O  O110  1  0.39613687  0.50454915  0.12687430  1  -1.161727  0  -0.320411  -0.55783  0  2.313738  0
O  O111  1  0.62923807  0.50612189  0.12981490  1  -1.159874  0  -0.318407  -0.544712  0  2.312972  0
F  F112  1  0.19046983  0.49764314  0.77712823  1  -0.629242  0  -0.109899  -0.153396  0  1.315355  0
F  F113  1  0.80899658  0.49610888  0.76762902  1  -0.626124  0  -0.109889  -0.153218  0  1.314474  0
