# generated using pymatgen
data_Al6H74C99O31
_symmetry_space_group_name_H-M   'P 1'
_cell_length_a   12.85628385
_cell_length_b   12.44488896
_cell_length_c   27.76800286
_cell_angle_alpha   90.46306772
_cell_angle_beta   89.51973982
_cell_angle_gamma   62.18070325
_symmetry_Int_Tables_number   1
_chemical_formula_structural   Al6H74C99O31
_chemical_formula_sum   'Al6 H74 C99 O31'
_cell_volume   3928.76789149
_cell_formula_units_Z   1
loop_
 _symmetry_equiv_pos_site_id
 _symmetry_equiv_pos_as_xyz
  1  'x, y, z'
loop_
 _atom_site_type_symbol
 _atom_site_label
 _atom_site_symmetry_multiplicity
 _atom_site_fract_x
 _atom_site_fract_y
 _atom_site_fract_z
 _atom_site_occupancy
 _atom_site_pbe_bader_charge
 _atom_site_pbe_bader_spin_density
 _atom_site_pbe_cm5_charge
 _atom_site_pbe_ddec_charge
 _atom_site_pbe_ddec_spin_density
 _atom_site_pbe_ddec_sum_bond_order
 _atom_site_pbe_magmom
Al  Al0  1  0.41661463  0.18291719  0.49287578  1  2.492716  0  0.393666  1.684023  0  2.560778  0
Al  Al1  1  0.41850957  0.92459691  0.49673912  1  2.476914  0  0.508736  1.661083  0  2.500243  0
Al  Al2  1  0.65131590  0.92539788  0.49527428  1  2.480268  0  0.501968  1.662207  0  2.513395  0
Al  Al3  1  0.92559845  0.16472094  0.98141737  1  2.49447  0  0.394941  1.688247  0  2.555031  0
Al  Al4  1  0.67917513  0.41063472  0.98174554  1  2.477037  0  0.502207  1.661225  0  2.509435  0
Al  Al5  1  0.90110701  0.43300235  0.98157190  1  2.481065  0  0.504231  1.659575  0  2.508986  0
H  H6  1  0.52818383  0.12287992  0.19877684  1  0.093304  0  0.108572  0.111615  0  0.980545  0
H  H7  1  0.52956975  0.59230467  0.85851322  1  0.08498  0  0.109997  0.129043  0  1.024873  0
H  H8  1  0.45490316  0.83556890  0.72058699  1  0.072805  0  0.101948  0.101599  0  1.014443  0
H  H9  1  0.43093651  0.86914952  0.63306995  1  0.136993  0  0.102647  0.101237  0  1.036537  0
H  H10  1  0.77968138  0.94669340  0.62168450  1  0.130884  0  0.110924  0.114756  0  0.993905  0
H  H11  1  0.49051440  0.26347241  0.78205633  1  0.053185  0  0.103297  0.101025  0  1.006738  0
H  H12  1  0.52226161  0.29814776  0.86827475  1  0.123887  0  0.110395  0.112676  0  0.987226  0
H  H13  1  0.80281008  0.97653336  0.70916015  1  0.050458  0  0.101853  0.101585  0  1.006894  0
H  H14  1  0.86434186  0.09649160  0.75572885  1  0.045147  0  0.102347  0.099502  0  1.006628  0
H  H15  1  0.89547253  0.12388421  0.84256324  1  0.124829  0  0.110544  0.109726  0  1.015483  0
H  H16  1  0.51037748  0.33724913  0.70356076  1  0.04332  0  0.099672  0.095603  0  1.023081  0
H  H17  1  0.64266267  0.36931477  0.21858589  1  0.062158  0  0.102606  0.106637  0  1.005659  0
H  H18  1  0.48646502  0.30485139  0.61601736  1  0.091046  0  0.117582  0.124117  0  0.980308  0
H  H19  1  0.27653957  0.28424193  0.61999745  1  0.100149  0  0.117496  0.124268  0  0.986501  0
H  H20  1  0.20394525  0.00966016  0.78157245  1  0.08472  0  0.099451  0.09518  0  1.018821  0
H  H21  1  0.14561048  0.05074543  0.86831095  1  0.114791  0  0.118245  0.125634  0  0.978595  0
H  H22  1  0.22079687  0.32243129  0.70684722  1  0.034021  0  0.10099  0.098281  0  1.009108  0
H  H23  1  0.07358067  0.39392459  0.75991098  1  0.053205  0  0.102086  0.101222  0  1.009054  0
H  H24  1  0.70512777  0.83201554  0.20237231  1  0.069552  0  0.102631  0.104051  0  0.993584  0
H  H25  1  0.02414139  0.43191990  0.84716236  1  0.084986  0  0.103729  0.102218  0  1.025135  0
H  H26  1  0.13783837  0.02418671  0.70528869  1  0.045019  0  0.099654  0.096097  0  1.010717  0
H  H27  1  0.19992560  0.98327026  0.61919489  1  0.098769  0  0.112197  0.115563  0  0.984001  0
H  H28  1  0.33716324  0.17636767  0.25641422  1  0.069272  0  0.101399  0.100339  0  1.009243  0
H  H29  1  0.82811267  0.47510389  0.21584678  1  0.048251  0  0.102752  0.101511  0  0.995078  0
H  H30  1  0.87354196  0.01831394  0.20535530  1  0.062365  0  0.104355  0.095307  0  0.988009  0
H  H31  1  0.82672910  0.20255604  0.27675996  1  0.062395  0  0.101447  0.092593  0  1.012144  0
H  H32  1  0.71691273  0.95490750  0.25560411  1  0.071177  0  0.100007  0.089128  0  1.027013  0
H  H33  1  0.38759802  0.70851664  0.23203546  1  0.006238  0  0.091222  0.123437  0  1.020493  0
H  H34  1  0.41034771  0.77198422  0.17818552  1  0.066885  0  0.096391  0.13306  0  0.991301  0
H  H35  1  0.46686112  0.61242655  0.18246238  1  0.059211  0  0.097677  0.135562  0  0.988444  0
H  H36  1  0.48923102  0.46536992  0.28340379  1  0.025078  0  0.090975  0.042565  0  1.015614  0
H  H37  1  0.50636581  0.37021486  0.33395144  1  0.05873  0  0.102599  0.069069  0  0.980225  0
H  H38  1  0.27254072  0.52730126  0.28419727  1  0.014581  0  0.089348  0.077076  0  0.992172  0
H  H39  1  0.29689206  0.02996532  0.18589193  1  0.056201  0  0.100457  0.093398  0  0.998096  0
H  H40  1  0.29159168  0.44261442  0.33744106  1  0.027973  0  0.098732  0.095244  0  0.961709  0
H  H41  1  0.36792372  0.57402456  0.37979603  1  0.045063  0  0.095403  0.127145  0  0.987462  0
H  H42  1  0.22364856  0.66287366  0.35822528  1  0.018648  0  0.092446  0.122272  0  0.993099  0
H  H43  1  0.34565880  0.65919207  0.32646653  1  -0.003878  0  0.080776  0.10073  0  1.023688  0
H  H44  1  0.14749198  0.45467522  0.25420290  1  0.032828  0  0.092133  0.124195  0  1.023257  0
H  H45  1  0.20238605  0.40073586  0.19513493  1  0.025186  0  0.097125  0.135754  0  0.985984  0
H  H46  1  0.04836202  0.47403277  0.20633029  1  0.026091  0  0.091078  0.124336  0  1.01368  0
H  H47  1  0.89858779  0.41840585  0.28964454  1  0.041771  0  0.089463  0.126725  0  1.041055  0
H  H48  1  0.94651969  0.29568700  0.33043253  1  0.059523  0  0.096104  0.132893  0  0.993068  0
H  H49  1  0.01490474  0.39030888  0.33027386  1  0.053908  0  0.098302  0.137103  0  0.990228  0
H  H50  1  0.95945824  0.18534288  0.22458723  1  0.058419  0  0.097783  0.097554  0  1.018631  0
H  H51  1  0.14487578  0.90755710  0.22614196  1  0.011298  0  0.093171  0.128644  0  0.995266  0
H  H52  1  0.24867802  0.88187914  0.27250649  1  0.065906  0  0.089844  0.119605  0  1.035847  0
H  H53  1  0.09622697  0.95692535  0.28651466  1  0.014503  0  0.095553  0.133732  0  0.98866  0
H  H54  1  0.96992140  0.73440950  0.77144474  1  0.034862  0  0.104074  0.069727  0  0.969047  0
H  H55  1  0.96513518  0.64262021  0.81919992  1  0.025166  0  0.097253  0.056765  0  0.999164  0
H  H56  1  0.81299712  0.91952313  0.81140979  1  0.062844  0  0.087376  0.084146  0  1.009219  0
H  H57  1  0.80337994  0.83273357  0.85942255  1  0.039082  0  0.09352  0.093134  0  0.983755  0
H  H58  1  0.01788413  0.76606205  0.87932960  1  0.03281  0  0.086247  0.111366  0  1.003299  0
H  H59  1  0.93083909  0.92540898  0.88408855  1  0.085582  0  0.098066  0.146305  0  0.997444  0
H  H60  1  0.02315838  0.86041854  0.83273449  1  -0.000326  0  0.077833  0.095311  0  1.017729  0
H  H61  1  0.80361643  0.64864388  0.61122307  1  0.06705  0  0.110069  0.112857  0  0.984934  0
H  H62  1  0.30640842  0.73110309  0.76548963  1  0.051259  0  0.10247  0.065976  0  0.963594  0
H  H63  1  0.36618176  0.71679020  0.82422329  1  0.04277  0  0.103135  0.065853  0  0.983425  0
H  H64  1  0.40143279  0.50462131  0.75730902  1  0.0258  0  0.091728  0.08583  0  0.985693  0
H  H65  1  0.45273246  0.48945358  0.81668156  1  0.014655  0  0.090777  0.085895  0  1.012218  0
H  H66  1  0.24111467  0.60640335  0.84771066  1  0.028564  0  0.090681  0.118974  0  0.998428  0
H  H67  1  0.26450567  0.47373904  0.81495838  1  0.00719  0  0.087426  0.116762  0  1.005924  0
H  H68  1  0.19125239  0.61832616  0.78763884  1  0.012997  0  0.082227  0.100357  0  1.028233  0
H  H69  1  0.44635184  0.96547397  0.23399266  1  0.037096  0  0.090919  0.121862  0  1.043987  0
H  H70  1  0.41551390  0.90641647  0.28745459  1  0.043045  0  0.095443  0.135875  0  1.007546  0
H  H71  1  0.52334704  0.95686123  0.28778847  1  0.04525  0  0.096945  0.136239  0  0.992576  0
H  H72  1  0.63120624  0.51670952  0.27511978  1  0.043855  0  0.097608  0.088832  0  1.025075  0
H  H73  1  0.94335645  0.65383088  0.24665923  1  0.02398  0  0.092708  0.128861  0  1.012284  0
H  H74  1  0.85648881  0.75153151  0.29448286  1  0.017513  0  0.095894  0.134336  0  0.994176  0
H  H75  1  0.92367239  0.59205569  0.30158414  1  0.061601  0  0.094988  0.13311  0  1.019183  0
H  H76  1  0.83803286  0.63973679  0.86453230  1  0.066238  0  0.109902  0.12574  0  1.03367  0
H  H77  1  0.82618181  0.60322833  0.69833232  1  0.11129  0  0.103076  0.105714  0  1.006386  0
H  H78  1  0.31618092  0.37814113  0.46055215  1  0.594231  0  0.287956  0.377467  0  0.932855  0
H  H79  1  0.02038842  0.96500533  0.00985785  1  0.577228  0  0.291924  0.381417  0  0.925285  0
C  C80  1  0.29125952  0.08697883  0.42566450  1  1.668447  0  0.273376  0.712404  0  4.165603  0
C  C81  1  0.64678958  0.70558086  0.33867243  1  -0.095239  0  -0.015225  0.002421  0  4.057808  0
C  C82  1  0.76153959  0.18450076  0.25845350  1  -0.024968  0  -0.073333  -0.07422  0  3.664612  0
C  C83  1  0.60362548  0.77877057  0.42955695  1  1.649987  0  0.281387  0.722827  0  4.155358  0
C  C84  1  0.78712236  0.08195414  0.22008846  1  -0.016853  0  -0.070606  -0.080463  0  3.62507  0
C  C85  1  0.68806633  0.20957355  0.09556193  1  -0.167537  0  -0.043859  -0.201038  0  3.977282  0
C  C86  1  0.66277158  0.11333262  0.37893285  1  0.161063  0  -0.045644  -0.207635  0  3.978979  0
C  C87  1  0.65803464  0.27787844  0.22778503  1  -0.04458  0  -0.079381  -0.163185  0  3.625305  0
C  C88  1  0.68244382  0.17541636  0.18861120  1  0.100526  0  0.009108  0.135287  0  3.816774  0
C  C89  1  0.56956281  0.24215719  0.25415954  1  0.620961  0  0.093087  0.215756  0  3.760759  0
C  C90  1  0.67589941  0.14770417  0.28647514  1  0.111555  0  -0.004509  0.047524  0  3.824888  0
C  C91  1  0.62869587  0.72724017  0.38178779  1  -0.206629  0  -0.045246  -0.219309  0  3.952791  0
C  C92  1  0.59522836  0.13948546  0.21637189  1  -0.050465  0  -0.071326  -0.138898  0  3.618833  0
C  C93  1  0.69999276  0.04690147  0.24676510  1  -0.025183  0  -0.071566  -0.072746  0  3.652474  0
C  C94  1  0.68460702  0.19219522  0.13850546  1  -0.111919  0  -0.024832  -0.034959  0  4.080315  0
C  C95  1  0.62798191  0.09384640  0.42596131  1  1.720364  0  0.274929  0.713134  0  4.169968  0
C  C96  1  0.67232644  0.12957196  0.33626876  1  -0.52621  0  -0.030342  -0.032953  0  4.119585  0
C  C97  1  0.06458054  0.26330168  0.27079592  1  0.010972  0  0.004223  0.111291  0  3.648153  0
C  C98  1  0.14041092  0.29182849  0.23271622  1  0.044967  0  0.002758  0.106962  0  3.643039  0
C  C99  1  0.06745982  0.25598130  0.10205262  1  0.249126  0  -0.049834  -0.216384  0  3.972443  0
C  C100  1  0.24097973  0.10420205  0.37847186  1  0.198041  0  -0.047364  -0.216326  0  3.964732  0
C  C101  1  0.04378910  0.18270736  0.23246003  1  -0.036672  0  -0.07538  -0.159173  0  3.617461  0
C  C102  1  0.75739566  0.56394129  0.22701496  1  -0.016764  0  -0.068632  -0.117923  0  3.619542  0
C  C103  1  0.11793978  0.21117771  0.19379094  1  0.122777  0  0.002892  0.087215  0  3.820148  0
C  C104  1  0.15679416  0.06719267  0.24872392  1  0.042811  0  0.002371  0.145173  0  3.671998  0
C  C105  1  0.18045968  0.14733961  0.28757712  1  0.070102  0  0.002474  0.040583  0  3.79518  0
C  C106  1  0.23206029  0.09585436  0.21102710  1  -0.030882  0  -0.070869  -0.11802  0  3.630085  0
C  C107  1  0.28823288  0.10453534  0.56406902  1  1.56591  0  0.270721  0.630601  0  4.104062  0
C  C108  1  0.25368090  0.17680492  0.24877016  1  -0.025342  0  -0.071571  -0.113256  0  3.63823  0
C  C109  1  0.08920666  0.23832417  0.14482671  1  -0.560194  0  -0.025511  -0.025027  0  4.08016  0
C  C110  1  0.21267233  0.12074564  0.33625034  1  -0.487432  0  -0.023301  -0.015438  0  4.083418  0
C  C111  1  0.61526266  0.75953368  0.61629977  1  -0.032149  0  -0.016306  -0.049719  0  3.994358  0
C  C112  1  0.72706698  0.68730163  0.63528417  1  -0.012052  0  -0.081023  -0.089726  0  3.984782  0
C  C113  1  0.67449365  0.66138320  0.18963558  1  0.130498  0  0.00446  0.086448  0  3.809501  0
C  C114  1  0.73954478  0.66315182  0.68434294  1  -0.054191  0  -0.086256  -0.125599  0  3.963719  0
C  C115  1  0.64206739  0.71448826  0.71628141  1  0.011348  0  0.003613  0.114723  0  3.958148  0
C  C116  1  0.53133064  0.79137211  0.69684067  1  0.003068  0  -0.086711  -0.120503  0  3.972565  0
C  C117  1  0.51749785  0.81106821  0.64763261  1  -0.101783  0  -0.082536  -0.087275  0  3.977453  0
C  C118  1  0.74961267  0.68133600  0.79552556  1  0.495263  0  0.089746  0.236613  0  4.045779  0
C  C119  1  0.59727500  0.79308988  0.56485386  1  1.529596  0  0.278639  0.651942  0  4.072846  0
C  C120  1  0.76487122  0.64509846  0.84359588  1  0.031451  0  -0.112564  -0.261332  0  4.015341  0
C  C121  1  0.58863240  0.61999774  0.84067294  1  0.005419  0  -0.112463  -0.256464  0  3.999757  0
C  C122  1  0.57370119  0.65621365  0.79260071  1  0.464854  0  0.089581  0.233901  0  4.048928  0
C  C123  1  0.65514520  0.68484372  0.76825919  1  0.052087  0  -0.015435  -0.131345  0  3.906189  0
C  C124  1  0.77169934  0.66604839  0.25576163  1  0.044308  0  0.004594  0.145488  0  3.667154  0
C  C125  1  0.68528564  0.61331856  0.86577712  1  -0.031657  0  -0.019879  -0.005332  0  4.050781  0
C  C126  1  0.63284661  0.12497660  0.61400891  1  -0.010367  0  -0.016123  -0.05418  0  3.994899  0
C  C127  1  0.72256274  0.03232853  0.63994562  1  2.5e-05  0  -0.077003  -0.075851  0  3.978584  0
C  C128  1  0.73525692  0.04961007  0.68852139  1  -0.025428  0  -0.088298  -0.134629  0  3.986919  0
C  C129  1  0.65879353  0.15929050  0.71199227  1  -0.082171  0  -0.000618  0.077388  0  4.007047  0
C  C130  1  0.56852871  0.25117279  0.68570854  1  -0.040216  0  -0.089031  -0.134264  0  3.987303  0
C  C131  1  0.61326318  0.10352104  0.56319023  1  1.559095  0  0.271919  0.634581  0  4.105318  0
C  C132  1  0.55552653  0.23447462  0.63707088  1  -0.031664  0  -0.073141  -0.075572  0  3.970635  0
C  C133  1  0.57917684  0.23467128  0.79518142  1  -0.000723  0  -0.086553  -0.133572  0  3.986915  0
C  C134  1  0.59641350  0.25307083  0.84328058  1  -0.061355  0  -0.078598  -0.084932  0  3.990312  0
C  C135  1  0.66098947  0.68746208  0.28827178  1  0.092481  0  0.001372  0.038087  0  3.794929  0
C  C136  1  0.80733082  0.15402688  0.82872427  1  -0.050097  0  -0.074333  -0.075296  0  3.976909  0
C  C137  1  0.78956293  0.13794393  0.78063295  1  -0.021305  0  -0.087193  -0.133642  0  3.991682  0
C  C138  1  0.67532918  0.17748711  0.76316976  1  -0.032133  0  0.000644  0.07625  0  4.005205  0
C  C139  1  0.71075864  0.21189318  0.86028867  1  -0.032584  0  -0.01515  -0.050483  0  3.990201  0
C  C140  1  0.24179779  0.13160323  0.61442801  1  -0.057936  0  -0.013163  -0.049775  0  3.976614  0
C  C141  1  0.24553370  0.22841212  0.63924248  1  0.00498  0  -0.072913  -0.07296  0  3.959979  0
C  C142  1  0.21334436  0.24963633  0.68759955  1  -0.007908  0  -0.089286  -0.13357  0  3.985893  0
C  C143  1  0.64746569  0.58682623  0.25836877  1  -0.027513  0  -0.074987  -0.121448  0  3.669825  0
C  C144  1  0.17532063  0.17605473  0.71259967  1  -0.066853  0  -0.001284  0.074069  0  3.993205  0
C  C145  1  0.16994874  0.08050316  0.68706079  1  -0.013703  0  -0.089392  -0.133974  0  3.978614  0
C  C146  1  0.68843406  0.76228449  0.21923773  1  -0.049766  0  -0.073674  -0.157237  0  3.621425  0
C  C147  1  0.20327707  0.05799475  0.63869718  1  -0.026449  0  -0.077438  -0.081787  0  3.981983  0
C  C148  1  0.16288167  0.10279294  0.79553821  1  -0.011407  0  -0.089306  -0.136603  0  3.982586  0
C  C149  1  0.13249813  0.12454837  0.84412775  1  -0.097935  0  -0.073766  -0.076863  0  3.965848  0
C  C150  1  0.06481417  0.33966643  0.83242491  1  -0.000469  0  -0.080272  -0.082405  0  3.985162  0
C  C151  1  0.09331918  0.31766251  0.78369403  1  0.001736  0  -0.09084  -0.137304  0  3.981461  0
C  C152  1  0.14342159  0.19883011  0.76426565  1  -0.059856  0  0.000649  0.078614  0  3.988245  0
C  C153  1  0.08367833  0.24336951  0.86302604  1  -0.029221  0  -0.015377  -0.051085  0  3.980137  0
C  C154  1  0.71144981  0.23689778  0.04781880  1  1.677063  0  0.277152  0.712744  0  4.167313  0
C  C155  1  0.56349000  0.68462935  0.22230537  1  0.03762  0  0.003712  0.10443  0  3.639121  0
C  C156  1  0.72028307  0.56727661  0.04842422  1  1.614789  0  0.281121  0.722127  0  4.152527  0
C  C157  1  0.57853850  0.78666831  0.25087476  1  0.022999  0  0.006179  0.11788  0  3.65166  0
C  C158  1  0.02734352  0.26705587  0.05324905  1  1.645255  0  0.27439  0.716993  0  4.156939  0
C  C159  1  0.73417926  0.23202968  0.91077537  1  1.551574  0  0.272016  0.637418  0  4.100433  0
C  C160  1  0.71021514  0.56217578  0.91493286  1  1.528023  0  0.276013  0.649472  0  4.055081  0
C  C161  1  0.04166458  0.26724996  0.91391222  1  1.55122  0  0.273279  0.633875  0  4.096935  0
C  C162  1  0.69316497  0.61931691  0.09605113  1  0.27684  0  -0.046415  -0.217841  0  3.963776  0
C  C163  1  0.45115549  0.69492756  0.20286827  1  -0.072401  0  -0.235205  -0.407097  0  3.983604  0
C  C164  1  0.45207122  0.41284938  0.30222505  1  0.396034  0  -0.066757  0.041677  0  3.889821  0
C  C165  1  0.32542575  0.49544175  0.31699285  1  0.01227  0  -0.165068  -0.129168  0  3.986175  0
C  C166  1  0.31513539  0.60366157  0.34699771  1  -0.032704  0  -0.238676  -0.351899  0  3.968512  0
C  C167  1  0.13393431  0.41200829  0.22170718  1  -0.031872  0  -0.237123  -0.408569  0  3.991174  0
C  C168  1  0.68417454  0.64190503  0.13921432  1  -0.554318  0  -0.015111  -0.007988  0  4.058606  0
C  C169  1  0.97626642  0.34695004  0.30687428  1  -0.093784  0  -0.23732  -0.416405  0  3.985468  0
C  C170  1  0.16211611  0.94691526  0.25885007  1  -0.050128  0  -0.236731  -0.417951  0  3.997788  0
C  C171  1  0.91241322  0.72721855  0.79938940  1  0.432213  0  -0.064452  0.032987  0  3.902001  0
C  C172  1  0.86462006  0.83803800  0.83282731  1  -0.053342  0  -0.173822  -0.146351  0  3.977792  0
C  C173  1  0.96423307  0.84829759  0.85863541  1  -0.085001  0  -0.242562  -0.351128  0  3.955797  0
C  C174  1  0.37903267  0.67118113  0.78884408  1  0.399757  0  -0.061252  0.039582  0  3.895831  0
C  C175  1  0.38076015  0.54865754  0.79314064  1  0.016512  0  -0.171231  -0.143542  0  3.984665  0
C  C176  1  0.26312886  0.56235492  0.81192864  1  -0.035887  0  -0.242421  -0.351751  0  3.974579  0
C  C177  1  0.48569439  0.90996375  0.26577825  1  -0.049099  0  -0.238852  -0.415347  0  3.975884  0
C  C178  1  0.88000176  0.66501596  0.27552870  1  -0.041071  0  -0.238533  -0.425366  0  3.990428  0
O  O179  1  0.52626853  0.17029363  0.44018098  1  -1.226456  0  -0.210563  -0.562224  0  2.30124  0
O  O180  1  0.81881368  0.55005336  0.02995983  1  -1.245031  0  -0.23036  -0.589718  0  2.242252  0
O  O181  1  0.01563457  0.35973494  0.02886264  1  -1.254667  0  -0.245983  -0.610996  0  2.229153  0
O  O182  1  0.31745438  0.16725585  0.44080937  1  -1.220537  0  -0.214375  -0.566911  0  2.286194  0
O  O183  1  0.03376617  0.18346293  0.93626565  1  -1.24777  0  -0.212021  -0.557244  0  2.349016  0
O  O184  1  0.83659278  0.16506326  0.92590196  1  -1.249337  0  -0.211992  -0.558752  0  2.375977  0
O  O185  1  0.65057043  0.31841910  0.93521651  1  -1.275164  0  -0.251953  -0.62116  0  2.278033  0
O  O186  1  0.63881551  0.52783978  0.93361133  1  -1.269062  0  -0.238229  -0.600648  0  2.28817  0
O  O187  1  0.80424136  0.54918272  0.93527089  1  -1.267305  0  -0.23582  -0.598268  0  2.30994  0
O  O188  1  0.01043377  0.37500078  0.93151579  1  -1.273908  0  -0.250588  -0.612576  0  2.264342  0
O  O189  1  0.83386774  0.33821214  0.98227462  1  -1.610111  0  -0.392204  -1.267981  0  2.29512  0
O  O190  1  0.49795928  0.81574264  0.54654618  1  -1.268529  0  -0.23714  -0.604128  0  2.300098  0
O  O191  1  0.30878567  0.98928624  0.44793352  1  -1.258788  0  -0.245291  -0.606743  0  2.229776  0
O  O192  1  0.50614857  0.79964002  0.44980591  1  -1.240657  0  -0.22972  -0.589078  0  2.235592  0
O  O193  1  0.68018168  0.80609447  0.44713662  1  -1.235877  0  -0.229261  -0.591076  0  2.257166  0
O  O194  1  0.70082707  0.99819555  0.44832750  1  -1.257519  0  -0.242596  -0.602442  0  2.235203  0
O  O195  1  0.52169531  0.18148664  0.54298080  1  -1.245594  0  -0.212974  -0.554881  0  2.348002  0
O  O196  1  0.31568466  0.17925650  0.54461294  1  -1.243341  0  -0.211917  -0.557247  0  2.37154  0
O  O197  1  0.30251474  0.00404650  0.54425195  1  -1.271959  0  -0.249996  -0.61324  0  2.27215  0
O  O198  1  0.45721295  0.31884724  0.26966632  1  -1.083788  0  -0.20306  -0.246581  0  2.500456  0
O  O199  1  0.82289266  0.71586916  0.77215492  1  -1.083941  0  -0.183059  -0.212035  0  2.559856  0
O  O200  1  0.48306961  0.66213473  0.76549524  1  -1.077728  0  -0.181812  -0.206949  0  2.578471  0
O  O201  1  0.67849011  0.80513910  0.54218493  1  -1.269877  0  -0.238183  -0.602739  0  2.277583  0
O  O202  1  0.68997351  0.00256250  0.54353533  1  -1.284725  0  -0.250111  -0.620081  0  2.301536  0
O  O203  1  0.49651086  0.00899842  0.49422221  1  -1.611921  0  -0.391143  -1.265563  0  2.284603  0
O  O204  1  0.00357358  0.18440993  0.03872004  1  -1.221023  0  -0.214318  -0.570015  0  2.299502  0
O  O205  1  0.80652127  0.16216919  0.02767653  1  -1.224407  0  -0.211388  -0.56478  0  2.289752  0
O  O206  1  0.63481154  0.33962206  0.03066800  1  -1.251931  0  -0.243583  -0.60258  0  2.223247  0
O  O207  1  0.64836663  0.53623950  0.02905333  1  -1.237175  0  -0.228185  -0.59012  0  2.250488  0
O  O208  1  0.34283913  0.34252793  0.49175134  1  -1.384514  0  -0.58171  -0.997693  0  1.797101  0
O  O209  1  0.00906826  0.00549235  0.97932775  1  -1.367908  0  -0.577501  -0.997615  0  1.800815  0
