# generated using pymatgen
data_CdH8C9N7ClO
_symmetry_space_group_name_H-M   'P 1'
_cell_length_a   8.21566106
_cell_length_b   8.21566415
_cell_length_c   17.97495881
_cell_angle_alpha   94.48645708
_cell_angle_beta   94.48605775
_cell_angle_gamma   92.88710387
_symmetry_Int_Tables_number   1
_chemical_formula_structural   CdH8C9N7ClO
_chemical_formula_sum   'Cd4 H32 C36 N28 Cl4 O4'
_cell_volume   1203.88557689
_cell_formula_units_Z   4
loop_
 _symmetry_equiv_pos_site_id
 _symmetry_equiv_pos_as_xyz
  1  'x, y, z'
loop_
 _atom_site_type_symbol
 _atom_site_label
 _atom_site_symmetry_multiplicity
 _atom_site_fract_x
 _atom_site_fract_y
 _atom_site_fract_z
 _atom_site_occupancy
 _atom_site_hle17_bader_spin_density
 _atom_site_hle17_ddec_charge
 _atom_site_hle17_ddec_spin_density
 _atom_site_hle17_ddec_sum_bond_order
 _atom_site_hle17_magmom
 _atom_site_hse06_10hf_bader_spin_density
 _atom_site_hse06_10hf_ddec_charge
 _atom_site_hse06_10hf_ddec_spin_density
 _atom_site_hse06_10hf_ddec_sum_bond_order
 _atom_site_hse06_10hf_magmom
 _atom_site_hse06_bader_spin_density
 _atom_site_hse06_ddec_charge
 _atom_site_hse06_ddec_spin_density
 _atom_site_hse06_ddec_sum_bond_order
 _atom_site_hse06_magmom
 _atom_site_pbe_bader_spin_density
 _atom_site_pbe_cm5_charge
 _atom_site_pbe_ddec_charge
 _atom_site_pbe_ddec_spin_density
 _atom_site_pbe_ddec_sum_bond_order
 _atom_site_pbe_magmom
Cd  Cd0  1  0.37861862  0.91976505  0.80780356  1  0  0.998205  0  1.890545  0  0  0.81168  0  2.35563  0  0  0.860999  0  2.312214  0  0  0.68132  0.77697  0  2.38506  0
Cd  Cd1  1  0.08023715  0.62138403  0.69219964  1  0  0.998211  0  1.890566  0  0  0.811679  0  2.355659  0  0  0.860998  0  2.312243  0  0  0.681325  0.77697  0  2.38509  0
Cd  Cd2  1  0.62138158  0.08023524  0.19219658  1  0  0.998189  0  1.89058  0  0  0.811676  0  2.355645  0  0  0.860995  0  2.312229  0  0  0.681314  0.776966  0  2.385074  0
Cd  Cd3  1  0.91976423  0.37861507  0.30780161  1  0  0.99823  0  1.890539  0  0  0.811716  0  2.355602  0  0  0.861033  0  2.312188  0  0  0.68133  0.777007  0  2.385031  0
H  H4  1  0.99687589  0.82436963  0.94142226  1  0  0.276623  0  0.950089  0  0  0.240427  0  1.035723  0  0  0.251227  0  1.027241  0  0  0.305184  0.232885  0  1.041606  0
H  H5  1  0.17563239  0.00312854  0.55857817  1  0  0.276524  0  0.950283  0  0  0.240457  0  1.035704  0  0  0.251255  0  1.027222  0  0  0.305157  0.23291  0  1.0416  0
H  H6  1  0.00312711  0.17563797  0.05857652  1  0  0.276608  0  0.950104  0  0  0.240496  0  1.035594  0  0  0.251296  0  1.027109  0  0  0.305167  0.232942  0  1.041503  0
H  H7  1  0.82436547  0.99687300  0.44142360  1  0  0.276627  0  0.950143  0  0  0.240523  0  1.035611  0  0  0.251323  0  1.027127  0  0  0.305165  0.232973  0  1.041515  0
H  H8  1  0.42897155  0.23433730  0.89775432  1  0  0.389411  0  0.934007  0  0  0.348557  0  1.015623  0  0  0.360355  0  0.999042  0  0  0.277614  0.340299  0  1.027196  0
H  H9  1  0.76566171  0.57102767  0.60224582  1  0  0.389393  0  0.934041  0  0  0.348532  0  1.015664  0  0  0.360331  0  0.999082  0  0  0.277603  0.340274  0  1.027236  0
H  H10  1  0.57103002  0.76566547  0.10224705  1  0  0.389327  0  0.934041  0  0  0.348459  0  1.015748  0  0  0.360257  0  0.999166  0  0  0.277572  0.3402  0  1.027321  0
H  H11  1  0.23433590  0.42897015  0.39775304  1  0  0.389344  0  0.933994  0  0  0.348479  0  1.01571  0  0  0.360278  0  0.999128  0  0  0.277586  0.340222  0  1.027281  0
H  H12  1  0.24570796  0.17428072  0.89149723  1  0  0.403483  0  0.861924  0  0  0.374165  0  0.941289  0  0  0.383258  0  0.930931  0  0  0.297578  0.367739  0  0.948576  0
H  H13  1  0.82571818  0.75429367  0.60850317  1  0  0.403495  0  0.861907  0  0  0.374177  0  0.94127  0  0  0.38327  0  0.930913  0  0  0.297579  0.367752  0  0.948558  0
H  H14  1  0.75429470  0.82571960  0.10850354  1  0  0.403542  0  0.861882  0  0  0.374196  0  0.94128  0  0  0.383289  0  0.930921  0  0  0.29759  0.367771  0  0.948569  0
H  H15  1  0.17428203  0.24570664  0.39149752  1  0  0.403494  0  0.861879  0  0  0.374177  0  0.941242  0  0  0.38327  0  0.930884  0  0  0.297593  0.367752  0  0.948529  0
H  H16  1  0.85524525  0.95142424  0.82386271  1  0  0.102804  0  0.979695  0  0  0.112145  0  1.04291  0  0  0.114979  0  1.039108  0  0  0.121303  0.109995  0  1.045719  0
H  H17  1  0.04858052  0.14475740  0.67613930  1  0  0.102745  0  0.979783  0  0  0.112132  0  1.042914  0  0  0.114968  0  1.039111  0  0  0.121261  0.109982  0  1.045723  0
H  H18  1  0.14475655  0.04858338  0.17613715  1  0  0.102811  0  0.979738  0  0  0.112191  0  1.042874  0  0  0.11503  0  1.039066  0  0  0.121294  0.110041  0  1.045685  0
H  H19  1  0.95142100  0.85524416  0.32386259  1  0  0.102781  0  0.979786  0  0  0.112167  0  1.042922  0  0  0.115005  0  1.039114  0  0  0.121267  0.110016  0  1.045733  0
H  H20  1  0.81398395  0.54421158  0.15511521  1  0  0.082175  0  0.956357  0  0  0.088505  0  1.024225  0  0  0.091635  0  1.020858  0  0  0.105827  0.086145  0  1.026778  0
H  H21  1  0.45577435  0.18601566  0.34488641  1  0  0.082134  0  0.956523  0  0  0.088508  0  1.024332  0  0  0.091581  0  1.02102  0  0  0.105846  0.086149  0  1.026883  0
H  H22  1  0.18601735  0.45578512  0.84488818  1  0  0.082162  0  0.956372  0  0  0.088502  0  1.024225  0  0  0.091595  0  1.020896  0  0  0.105848  0.086142  0  1.026778  0
H  H23  1  0.54421597  0.81398215  0.65511389  1  0  0.082164  0  0.956348  0  0  0.088493  0  1.02422  0  0  0.091618  0  1.020858  0  0  0.105839  0.086133  0  1.026772  0
H  H24  1  0.93187387  0.66911469  0.04895611  1  0  0.103247  0  1.011758  0  0  0.105851  0  1.084987  0  0  0.110619  0  1.081826  0  0  0.102964  0.102452  0  1.08733  0
H  H25  1  0.33087565  0.06812314  0.45104614  1  0  0.103117  0  1.011578  0  0  0.105723  0  1.084831  0  0  0.110484  0  1.081697  0  0  0.102918  0.102326  0  1.087169  0
H  H26  1  0.06812456  0.33087462  0.95104474  1  0  0.103158  0  1.011514  0  0  0.105724  0  1.084818  0  0  0.110485  0  1.081682  0  0  0.102898  0.102326  0  1.087154  0
H  H27  1  0.66911958  0.93187472  0.54895543  1  0  0.103263  0  1.011699  0  0  0.105837  0  1.084959  0  0  0.110596  0  1.081824  0  0  0.102997  0.10244  0  1.087296  0
H  H28  1  0.40967243  0.55764671  0.14531493  1  0  0.114787  0  0.957611  0  0  0.12358  0  1.021373  0  0  0.127206  0  1.019517  0  0  0.105891  0.120964  0  1.022855  0
H  H29  1  0.44234425  0.59032956  0.35467926  1  0  0.114793  0  0.957702  0  0  0.123589  0  1.021452  0  0  0.127215  0  1.019596  0  0  0.10588  0.120975  0  1.022932  0
H  H30  1  0.59033078  0.44234251  0.85468106  1  0  0.114798  0  0.957657  0  0  0.123606  0  1.021395  0  0  0.127232  0  1.019539  0  0  0.105897  0.120991  0  1.022876  0
H  H31  1  0.55765338  0.40966942  0.64531742  1  0  0.114746  0  0.957672  0  0  0.123536  0  1.021437  0  0  0.127163  0  1.019578  0  0  0.105868  0.120922  0  1.022918  0
H  H32  1  0.27076844  0.43510947  0.24649688  1  0  0.085453  0  0.962259  0  0  0.093957  0  1.02898  0  0  0.096204  0  1.026935  0  0  0.107531  0.092246  0  1.030571  0
H  H33  1  0.56488600  0.72923580  0.25349866  1  0  0.085447  0  0.962243  0  0  0.094004  0  1.028926  0  0  0.096253  0  1.026882  0  0  0.107559  0.092303  0  1.030488  0
H  H34  1  0.72923523  0.56488833  0.75349995  1  0  0.08545  0  0.962291  0  0  0.093997  0  1.028969  0  0  0.096254  0  1.026924  0  0  0.107537  0.092294  0  1.030539  0
H  H35  1  0.43510722  0.27077176  0.74649982  1  0  0.085399  0  0.962275  0  0  0.093965  0  1.028956  0  0  0.096212  0  1.026909  0  0  0.107523  0.092263  0  1.030524  0
C  C36  1  0.26628257  0.70663349  0.03013180  1  0  0.284362  0  3.765515  0  0  0.256534  0  4.03988  0  0  0.265824  0  4.056043  0  0  0.203927  0.250529  0  4.028596  0
C  C37  1  0.29336592  0.73371498  0.46986743  1  0  0.284247  0  3.765508  0  0  0.256459  0  4.039873  0  0  0.265752  0  4.056033  0  0  0.20392  0.250457  0  4.028591  0
C  C38  1  0.73372102  0.29336190  0.96986717  1  0  0.284146  0  3.765431  0  0  0.256387  0  4.039754  0  0  0.26568  0  4.055911  0  0  0.203943  0.250382  0  4.028473  0
C  C39  1  0.70663653  0.26628164  0.53013211  1  0  0.284292  0  3.765459  0  0  0.256508  0  4.03979  0  0  0.265801  0  4.055951  0  0  0.203969  0.250507  0  4.028508  0
C  C40  1  0.45925876  0.78951501  0.96883535  1  0  0.244362  0  3.848123  0  0  0.2206  0  4.114607  0  0  0.229951  0  4.131142  0  0  0.20565  0.214456  0  4.103239  0
C  C41  1  0.21048793  0.54074512  0.53116534  1  0  0.244611  0  3.847927  0  0  0.220831  0  4.114457  0  0  0.230176  0  4.131004  0  0  0.205735  0.214687  0  4.103091  0
C  C42  1  0.54074440  0.21049392  0.03116848  1  0  0.244511  0  3.848046  0  0  0.220771  0  4.114604  0  0  0.230108  0  4.13116  0  0  0.205736  0.214615  0  4.103226  0
C  C43  1  0.78950973  0.45925390  0.46883301  1  0  0.244457  0  3.848108  0  0  0.220735  0  4.114592  0  0  0.230084  0  4.131132  0  0  0.205742  0.214579  0  4.103215  0
C  C44  1  0.79331114  0.90710517  0.87015345  1  0  0.238  0  3.649356  0  0  0.170828  0  3.922667  0  0  0.186092  0  3.934088  0  0  0.160223  0.160984  0  3.91459  0
C  C45  1  0.09289790  0.20669417  0.62984862  1  0  0.238012  0  3.649426  0  0  0.170846  0  3.922696  0  0  0.18611  0  3.934119  0  0  0.160211  0.161002  0  3.914615  0
C  C46  1  0.20669068  0.09290248  0.12984753  1  0  0.237952  0  3.649508  0  0  0.170819  0  3.922732  0  0  0.186083  0  3.934155  0  0  0.160218  0.160971  0  3.914656  0
C  C47  1  0.90710358  0.79330734  0.37015104  1  0  0.237972  0  3.649495  0  0  0.170818  0  3.92273  0  0  0.186081  0  3.934152  0  0  0.16021  0.160972  0  3.914654  0
C  C48  1  0.61807305  0.82761017  0.94289940  1  0  0.254961  0  3.809405  0  0  0.233699  0  4.081493  0  0  0.244824  0  4.096169  0  0  0.218197  0.226168  0  4.07165  0
C  C49  1  0.17239220  0.38193079  0.55710219  1  0  0.254845  0  3.809288  0  0  0.233535  0  4.081483  0  0  0.244661  0  4.096164  0  0  0.218103  0.226007  0  4.071635  0
C  C50  1  0.38193265  0.17240118  0.05710293  1  0  0.255122  0  3.809065  0  0  0.233702  0  4.081421  0  0  0.244835  0  4.096095  0  0  0.218133  0.226213  0  4.071515  0
C  C51  1  0.82760313  0.61806950  0.44289834  1  0  0.255078  0  3.809196  0  0  0.233726  0  4.081436  0  0  0.244853  0  4.09611  0  0  0.218164  0.226237  0  4.071531  0
C  C52  1  0.94588081  0.55092936  0.15105585  1  0  0.13431  0  3.712101  0  0  0.104332  0  3.96219  0  0  0.112196  0  3.979675  0  0  0.039888  0.09923  0  3.950301  0
C  C53  1  0.44905976  0.05412285  0.34894469  1  0  0.13425  0  3.712019  0  0  0.104256  0  3.962122  0  0  0.112169  0  3.97962  0  0  0.039788  0.099152  0  3.950231  0
C  C54  1  0.05411913  0.44906604  0.84894412  1  0  0.134237  0  3.712117  0  0  0.104265  0  3.962209  0  0  0.11216  0  3.979701  0  0  0.03982  0.099163  0  3.950318  0
C  C55  1  0.55093095  0.94588232  0.65105641  1  0  0.134282  0  3.712162  0  0  0.10432  0  3.962254  0  0  0.112187  0  3.979739  0  0  0.03985  0.099218  0  3.950363  0
C  C56  1  0.01338498  0.62215752  0.09192967  1  0  -0.15598  0  3.697552  0  0  -0.176082  0  3.946263  0  0  -0.183716  0  3.965498  0  0  -0.09041  -0.171107  0  3.933446  0
C  C57  1  0.37783828  0.98660139  0.40806936  1  0  -0.155718  0  3.697493  0  0  -0.175834  0  3.946294  0  0  -0.183468  0  3.965519  0  0  -0.090236  -0.170861  0  3.933495  0
C  C58  1  0.98660512  0.37783660  0.90806883  1  0  -0.155745  0  3.697271  0  0  -0.175836  0  3.946051  0  0  -0.18347  0  3.965279  0  0  -0.090226  -0.170863  0  3.933249  0
C  C59  1  0.62216268  0.01339033  0.59192997  1  0  -0.15591  0  3.697474  0  0  -0.175999  0  3.946225  0  0  -0.18363  0  3.965456  0  0  -0.090384  -0.171021  0  3.93342  0
C  C60  1  0.18363488  0.63084902  0.08887085  1  0  0.063811  0  3.769638  0  0  0.078861  0  4.004048  0  0  0.083439  0  4.023595  0  0  0.01463  0.075854  0  3.990763  0
C  C61  1  0.36914772  0.81637129  0.41112858  1  0  0.063846  0  3.76973  0  0  0.078843  0  4.00424  0  0  0.083418  0  4.023787  0  0  0.014567  0.075826  0  3.990971  0
C  C62  1  0.81636729  0.36914268  0.91112741  1  0  0.06387  0  3.769687  0  0  0.078883  0  4.004154  0  0  0.083459  0  4.023698  0  0  0.014541  0.075869  0  3.990882  0
C  C63  1  0.63085525  0.18363514  0.58887239  1  0  0.063787  0  3.769684  0  0  0.078832  0  4.004097  0  0  0.083405  0  4.023644  0  0  0.014531  0.075808  0  3.990842  0
C  C64  1  0.27742217  0.56051184  0.14555251  1  0  -0.141191  0  3.690118  0  0  -0.164909  0  3.940753  0  0  -0.172034  0  3.961154  0  0  -0.085309  -0.160332  0  3.927157  0
C  C65  1  0.43948229  0.72257606  0.35444577  1  0  -0.141305  0  3.689866  0  0  -0.165011  0  3.940551  0  0  -0.172135  0  3.960954  0  0  -0.085329  -0.160433  0  3.926958  0
C  C66  1  0.72257606  0.43947495  0.85444491  1  0  -0.141259  0  3.689832  0  0  -0.164978  0  3.940492  0  0  -0.172102  0  3.960897  0  0  -0.085306  -0.160401  0  3.926901  0
C  C67  1  0.56052143  0.27742179  0.64555384  1  0  -0.141158  0  3.689839  0  0  -0.164867  0  3.94049  0  0  -0.171992  0  3.960894  0  0  -0.08526  -0.160287  0  3.9269  0
C  C68  1  0.20046874  0.49124688  0.20236279  1  0  0.121959  0  3.716533  0  0  0.091945  0  3.968182  0  0  0.098943  0  3.987538  0  0  0.035239  0.087449  0  3.954962  0
C  C69  1  0.50874958  0.79953437  0.29763350  1  0  0.121948  0  3.716259  0  0  0.091893  0  3.967902  0  0  0.098885  0  3.987267  0  0  0.035224  0.087404  0  3.954682  0
C  C70  1  0.79953341  0.50874597  0.79763160  1  0  0.12191  0  3.716155  0  0  0.091856  0  3.96777  0  0  0.098838  0  3.987141  0  0  0.035209  0.087365  0  3.954554  0
C  C71  1  0.49124602  0.20047082  0.70236776  1  0  0.122004  0  3.716025  0  0  0.091931  0  3.967675  0  0  0.09893  0  3.987028  0  0  0.035254  0.08744  0  3.954455  0
N  N72  1  0.31951758  0.82206809  0.92953787  1  0  -0.313309  0  3.104864  0  0  -0.264373  0  3.390477  0  0  -0.280257  0  3.408597  0  0  -0.241126  -0.253374  0  3.377857  0
N  N73  1  0.17793035  0.68048510  0.57046237  1  0  -0.313433  0  3.104817  0  0  -0.264482  0  3.390477  0  0  -0.280362  0  3.408599  0  0  -0.241152  -0.253482  0  3.377855  0
N  N74  1  0.68048782  0.17793718  0.07046537  1  0  -0.31334  0  3.1048  0  0  -0.264369  0  3.390417  0  0  -0.280248  0  3.408542  0  0  -0.241093  -0.25337  0  3.377795  0
N  N75  1  0.82206615  0.31951513  0.42953542  1  0  -0.313311  0  3.104826  0  0  -0.264354  0  3.390432  0  0  -0.280236  0  3.408555  0  0  -0.241103  -0.253356  0  3.377812  0
N  N76  1  0.19500640  0.76972864  0.96888459  1  0  -0.266611  0  2.98977  0  0  -0.234236  0  3.263198  0  0  -0.244564  0  3.280416  0  0  -0.213318  -0.227115  0  3.251296  0
N  N77  1  0.23026647  0.80499802  0.53111515  1  0  -0.266485  0  2.989522  0  0  -0.23419  0  3.262945  0  0  -0.244519  0  3.280163  0  0  -0.213284  -0.227064  0  3.251047  0
N  N78  1  0.80499707  0.23026432  0.03111486  1  0  -0.266536  0  2.989716  0  0  -0.234249  0  3.263155  0  0  -0.244577  0  3.28037  0  0  -0.213339  -0.227121  0  3.251258  0
N  N79  1  0.76973377  0.19500347  0.46888391  1  0  -0.266621  0  2.989605  0  0  -0.234331  0  3.26305  0  0  -0.244661  0  3.280269  0  0  -0.213368  -0.227204  0  3.251151  0
N  N80  1  0.43207509  0.71811512  0.03184079  1  0  -0.452427  0  3.057841  0  0  -0.400511  0  3.306246  0  0  -0.417036  0  3.318341  0  0  -0.328668  -0.38923  0  3.29782  0
N  N81  1  0.28188653  0.56792801  0.46815900  1  0  -0.452475  0  3.057995  0  0  -0.400545  0  3.306399  0  0  -0.417069  0  3.318495  0  0  -0.328691  -0.389264  0  3.297974  0
N  N82  1  0.56792642  0.28188642  0.96816054  1  0  -0.452457  0  3.057791  0  0  -0.400564  0  3.306183  0  0  -0.417086  0  3.318282  0  0  -0.328701  -0.389284  0  3.297761  0
N  N83  1  0.71811489  0.43207228  0.53184062  1  0  -0.452429  0  3.057868  0  0  -0.40054  0  3.306257  0  0  -0.417066  0  3.318352  0  0  -0.328694  -0.38926  0  3.297833  0
N  N84  1  0.76185023  0.79616562  0.97704707  1  0  -0.261595  0  2.879176  0  0  -0.246644  0  3.145939  0  0  -0.25405  0  3.158552  0  0  -0.215766  -0.241516  0  3.137495  0
N  N85  1  0.20383236  0.23815383  0.52295244  1  0  -0.261475  0  2.879046  0  0  -0.246515  0  3.145868  0  0  -0.253915  0  3.158471  0  0  -0.215736  -0.241391  0  3.137423  0
N  N86  1  0.23815537  0.20384448  0.02295354  1  0  -0.261682  0  2.879038  0  0  -0.246661  0  3.145865  0  0  -0.254063  0  3.15847  0  0  -0.215778  -0.241549  0  3.137403  0
N  N87  1  0.79615814  0.76184764  0.47704742  1  0  -0.261636  0  2.879147  0  0  -0.246675  0  3.145981  0  0  -0.254075  0  3.158582  0  0  -0.215811  -0.241563  0  3.13752  0
N  N88  1  0.87133866  0.84755276  0.92974586  1  0  -0.162997  0  3.433952  0  0  -0.096082  0  3.687651  0  0  -0.111106  0  3.703611  0  0  -0.25582  -0.086108  0  3.676794  0
N  N89  1  0.15244905  0.12866425  0.57025419  1  0  -0.163026  0  3.434035  0  0  -0.096186  0  3.687678  0  0  -0.111208  0  3.70364  0  0  -0.255794  -0.086205  0  3.676815  0
N  N90  1  0.12866558  0.15245488  0.07025407  1  0  -0.162983  0  3.43399  0  0  -0.096126  0  3.687627  0  0  -0.111151  0  3.703591  0  0  -0.255799  -0.086144  0  3.676767  0
N  N91  1  0.84754744  0.87133482  0.42974634  1  0  -0.163075  0  3.434043  0  0  -0.096195  0  3.687666  0  0  -0.111219  0  3.703627  0  0  -0.255748  -0.086214  0  3.676806  0
N  N92  1  0.63245992  0.89729649  0.87687109  1  0  -0.440773  0  3.149767  0  0  -0.37418  0  3.430915  0  0  -0.396392  0  3.444945  0  0  -0.346985  -0.359102  0  3.421016  0
N  N93  1  0.10270696  0.36754392  0.62313007  1  0  -0.440761  0  3.149799  0  0  -0.374178  0  3.430975  0  0  -0.396391  0  3.445009  0  0  -0.346932  -0.359103  0  3.421074  0
N  N94  1  0.36754182  0.10270992  0.12312928  1  0  -0.440865  0  3.149725  0  0  -0.37429  0  3.430977  0  0  -0.396505  0  3.445009  0  0  -0.346978  -0.359226  0  3.421065  0
N  N95  1  0.89729206  0.63245640  0.37687170  1  0  -0.440792  0  3.14981  0  0  -0.374225  0  3.431013  0  0  -0.396438  0  3.445047  0  0  -0.346968  -0.359161  0  3.421102  0
N  N96  1  0.03696171  0.48801181  0.20618361  1  0  -0.341043  0  3.260069  0  0  -0.260949  0  3.521402  0  0  -0.281198  0  3.540885  0  0  -0.337467  -0.247093  0  3.507706  0
N  N97  1  0.51198121  0.96303749  0.29381604  1  0  -0.34095  0  3.259862  0  0  -0.26087  0  3.521222  0  0  -0.281116  0  3.540686  0  0  -0.337443  -0.247015  0  3.507522  0
N  N98  1  0.96304438  0.51198365  0.79381823  1  0  -0.340948  0  3.259989  0  0  -0.260837  0  3.521305  0  0  -0.281084  0  3.54078  0  0  -0.33744  -0.246981  0  3.507604  0
N  N99  1  0.48801756  0.03695910  0.70618281  1  0  -0.341027  0  3.260009  0  0  -0.260941  0  3.521363  0  0  -0.28119  0  3.540846  0  0  -0.337465  -0.247086  0  3.507665  0
Cl  Cl100  1  0.38456307  0.61543661  0.75000043  1  0  -0.563814  0  0.963636  0  0  -0.501218  0  1.251042  0  0  -0.519885  0  1.229139  0  0  -0.286697  -0.487782  0  1.265819  0
Cl  Cl101  1  0.61543705  0.38456127  0.25000130  1  0  -0.563803  0  0.963615  0  0  -0.501202  0  1.250995  0  0  -0.519867  0  1.229086  0  0  -0.286691  -0.487767  0  1.265779  0
Cl  Cl102  1  0.07650033  0.92350088  0.74999874  1  0  -0.553865  0  1.019845  0  0  -0.489179  0  1.295723  0  0  -0.506604  0  1.271699  0  0  -0.283592  -0.476707  0  1.312107  0
Cl  Cl103  1  0.92350222  0.07649818  0.25000031  1  0  -0.553888  0  1.019824  0  0  -0.489223  0  1.295723  0  0  -0.506652  0  1.271698  0  0  -0.283586  -0.476744  0  1.312094  0
O  O104  1  0.33612777  0.18735426  0.85985219  1  0  -0.80316  0  1.920046  0  0  -0.742479  0  2.137317  0  0  -0.764123  0  2.108377  0  0  -0.58295  -0.727129  0  2.157203  0
O  O105  1  0.81264795  0.66387147  0.64014757  1  0  -0.803175  0  1.920039  0  0  -0.742479  0  2.137293  0  0  -0.764128  0  2.108365  0  0  -0.582943  -0.72713  0  2.157179  0
O  O106  1  0.66387373  0.81264728  0.14014858  1  0  -0.803147  0  1.920004  0  0  -0.742424  0  2.137367  0  0  -0.764072  0  2.108436  0  0  -0.582925  -0.727077  0  2.157255  0
O  O107  1  0.18735210  0.33612635  0.35985137  1  0  -0.803105  0  1.919954  0  0  -0.742408  0  2.137277  0  0  -0.764052  0  2.108338  0  0  -0.582939  -0.727058  0  2.157162  0
