# generated using pymatgen
data_SnH13(C4O)2
_symmetry_space_group_name_H-M   'P 1'
_cell_length_a   10.09753779
_cell_length_b   9.92721741
_cell_length_c   22.75817153
_cell_angle_alpha   89.99951514
_cell_angle_beta   89.99947948
_cell_angle_gamma   89.99935273
_symmetry_Int_Tables_number   1
_chemical_formula_structural   SnH13(C4O)2
_chemical_formula_sum   'Sn8 H104 C64 O16'
_cell_volume   2281.28942329
_cell_formula_units_Z   8
loop_
 _symmetry_equiv_pos_site_id
 _symmetry_equiv_pos_as_xyz
  1  'x, y, z'
loop_
 _atom_site_type_symbol
 _atom_site_label
 _atom_site_symmetry_multiplicity
 _atom_site_fract_x
 _atom_site_fract_y
 _atom_site_fract_z
 _atom_site_occupancy
 _atom_site_pbe_bader_charge
 _atom_site_pbe_bader_spin_density
 _atom_site_pbe_cm5_charge
 _atom_site_pbe_ddec_charge
 _atom_site_pbe_ddec_spin_density
 _atom_site_pbe_ddec_sum_bond_order
 _atom_site_pbe_magmom
Sn  Sn0  1  0.54987523  0.67627773  0.23741581  1  1.69082  0  0.520875  1.219034  0  3.378118  0
Sn  Sn1  1  0.31763151  0.80111809  0.02781144  1  1.690585  0  0.518018  1.203595  0  3.389503  0
Sn  Sn2  1  0.68238952  0.30111133  0.47219463  1  1.690768  0  0.517932  1.203463  0  3.389689  0
Sn  Sn3  1  0.45009990  0.17624829  0.26258936  1  1.690886  0  0.520991  1.219214  0  3.378184  0
Sn  Sn4  1  0.95010781  0.32374559  0.73741783  1  1.690596  0  0.520946  1.21922  0  3.378004  0
Sn  Sn5  1  0.18240548  0.19889486  0.52780604  1  1.690722  0  0.517993  1.203487  0  3.389555  0
Sn  Sn6  1  0.81764368  0.69886552  0.97218816  1  1.690504  0  0.518013  1.203601  0  3.389497  0
Sn  Sn7  1  0.04987535  0.82372727  0.76259001  1  1.691111  0  0.520947  1.21916  0  3.378031  0
H  H8  1  0.31910445  0.62312064  0.18155626  1  0.027586  0  0.083999  0.167029  0  1.049192  0
H  H9  1  0.28832776  0.73639198  0.24087795  1  0.040189  0  0.082533  0.165991  0  1.076136  0
H  H10  1  0.35772070  0.79897317  0.17370818  1  0.056045  0  0.088862  0.175712  0  1.05561  0
H  H11  1  0.52854759  0.77707781  0.34814960  1  0.036916  0  0.082476  0.163681  0  1.060089  0
H  H12  1  0.68325999  0.69140450  0.34103797  1  0.044981  0  0.084619  0.169931  0  1.052601  0
H  H13  1  0.66306746  0.85805171  0.31163546  1  0.048493  0  0.08532  0.169426  0  1.053235  0
H  H14  1  0.74840288  0.56375597  0.17316703  1  0.06302  0  0.082656  0.167618  0  1.065146  0
H  H15  1  0.70985387  0.45813852  0.23496857  1  0.062831  0  0.085299  0.168407  0  1.061175  0
H  H16  1  0.60589490  0.45643073  0.17203360  1  0.03612  0  0.083129  0.162735  0  1.061248  0
H  H17  1  0.61416466  0.11455168  0.12221663  1  0.064377  0  0.107732  0.096197  0  0.9831  0
H  H18  1  0.80054924  0.88730828  0.08317886  1  0.070106  0  0.108782  0.126544  0  1.00021  0
H  H19  1  0.76269278  0.03401468  0.04296641  1  0.059967  0  0.109219  0.132234  0  0.963545  0
H  H20  1  0.88253705  0.92217073  0.20011886  1  0.075233  0  0.09827  0.097322  0  1.036335  0
H  H21  1  0.08012586  0.03332436  0.24258236  1  0.038521  0  0.098517  0.093572  0  1.036426  0
H  H22  1  0.12268862  0.27652516  0.22331479  1  0.057159  0  0.09987  0.096481  0  1.029414  0
H  H23  1  0.96584791  0.40739447  0.16072201  1  0.071583  0  0.099789  0.095267  0  1.010686  0
H  H24  1  0.76546666  0.29699424  0.12039115  1  0.052697  0  0.098784  0.098279  0  1.011698  0
H  H25  1  0.11070035  0.96078578  0.05896356  1  0.021282  0  0.083567  0.166743  0  1.044795  0
H  H26  1  0.13796146  0.83981786  0.11566714  1  0.04626  0  0.08484  0.169899  0  1.039934  0
H  H27  1  0.24326489  0.98416989  0.11019693  1  0.057603  0  0.085564  0.172146  0  1.047552  0
H  H28  1  0.26068657  0.86482189  0.91427025  1  0.059836  0  0.085378  0.173644  0  1.060084  0
H  H29  1  0.36903097  0.98953454  0.94523390  1  0.008083  0  0.084907  0.169916  0  1.036421  0
H  H30  1  0.43512164  0.83216807  0.92120808  1  0.041385  0  0.085316  0.172135  0  1.047498  0
H  H31  1  0.47292022  0.62799827  0.08939887  1  0.051671  0  0.088051  0.174537  0  1.04594  0
H  H32  1  0.31818524  0.54719121  0.07317234  1  0.045112  0  0.083854  0.167571  0  1.038868  0
H  H33  1  0.44443277  0.56000585  0.01798037  1  0.043503  0  0.082565  0.161484  0  1.06364  0
H  H34  1  0.38582419  0.61453693  0.37778411  1  0.064592  0  0.107702  0.096159  0  0.983333  0
H  H35  1  0.19945062  0.38728565  0.41682594  1  0.069945  0  0.10877  0.126634  0  1.000258  0
H  H36  1  0.23730051  0.53400160  0.45703495  1  0.060045  0  0.109173  0.13229  0  0.963728  0
H  H37  1  0.11746346  0.42215976  0.29987506  1  0.075156  0  0.098261  0.097263  0  1.036247  0
H  H38  1  0.91988425  0.53331590  0.25740980  1  0.038203  0  0.098503  0.09346  0  1.036442  0
H  H39  1  0.87730422  0.77650417  0.27667896  1  0.056674  0  0.099918  0.096547  0  1.029606  0
H  H40  1  0.03412063  0.90737991  0.33927111  1  0.071567  0  0.099754  0.095209  0  1.010674  0
H  H41  1  0.23450081  0.79700226  0.37961023  1  0.053037  0  0.098774  0.098259  0  1.011725  0
H  H42  1  0.88927810  0.46081209  0.44103911  1  0.021947  0  0.083616  0.166775  0  1.044772  0
H  H43  1  0.86202860  0.33986528  0.38432878  1  0.046011  0  0.084937  0.170053  0  1.039929  0
H  H44  1  0.75669815  0.48418327  0.38981678  1  0.057713  0  0.085576  0.172173  0  1.047828  0
H  H45  1  0.73929636  0.36481598  0.58573703  1  0.059713  0  0.085438  0.17374  0  1.059869  0
H  H46  1  0.63096716  0.48951965  0.55476067  1  0.00817  0  0.084908  0.169934  0  1.036563  0
H  H47  1  0.56487158  0.33217054  0.57878849  1  0.041444  0  0.085328  0.172184  0  1.047647  0
H  H48  1  0.52708373  0.12800623  0.41059832  1  0.051754  0  0.088024  0.174538  0  1.045974  0
H  H49  1  0.68182909  0.04717686  0.42681933  1  0.044982  0  0.083851  0.16759  0  1.03893  0
H  H50  1  0.55557585  0.05997867  0.48201788  1  0.043515  0  0.082535  0.161419  0  1.063514  0
H  H51  1  0.68089446  0.12310469  0.31844725  1  0.027241  0  0.08392  0.166924  0  1.049203  0
H  H52  1  0.71166632  0.23639633  0.25912730  1  0.039608  0  0.08247  0.165931  0  1.076092  0
H  H53  1  0.64226464  0.29896099  0.32630411  1  0.056401  0  0.088754  0.175611  0  1.055421  0
H  H54  1  0.47143437  0.27708477  0.15185379  1  0.037065  0  0.082484  0.163769  0  1.059909  0
H  H55  1  0.31672930  0.19138881  0.15896666  1  0.044893  0  0.084615  0.169933  0  1.052521  0
H  H56  1  0.33690709  0.35803842  0.18837125  1  0.048464  0  0.085322  0.169472  0  1.053311  0
H  H57  1  0.25157016  0.06376138  0.32682757  1  0.063327  0  0.082664  0.167615  0  1.065042  0
H  H58  1  0.29015820  0.95812149  0.26504297  1  0.062587  0  0.085319  0.168487  0  1.061263  0
H  H59  1  0.39407950  0.95644868  0.32798240  1  0.035664  0  0.083209  0.162863  0  1.061285  0
H  H60  1  0.18088199  0.37689955  0.68154506  1  0.027082  0  0.08395  0.166977  0  1.049031  0
H  H61  1  0.21166177  0.26360157  0.74086120  1  0.039837  0  0.082491  0.165899  0  1.076174  0
H  H62  1  0.14224149  0.20104286  0.67369109  1  0.055762  0  0.08879  0.175651  0  1.055435  0
H  H63  1  0.97143027  0.22292533  0.84815306  1  0.036915  0  0.082468  0.163716  0  1.060072  0
H  H64  1  0.81672823  0.30860466  0.84104078  1  0.044678  0  0.084624  0.169914  0  1.052642  0
H  H65  1  0.83691969  0.14197131  0.81163322  1  0.048493  0  0.085381  0.169516  0  1.053181  0
H  H66  1  0.75156352  0.43624189  0.67318308  1  0.063488  0  0.082642  0.167589  0  1.065016  0
H  H67  1  0.79012636  0.54187839  0.73497715  1  0.064217  0  0.085251  0.168405  0  1.0611  0
H  H68  1  0.89405870  0.54357905  0.67203470  1  0.036249  0  0.083129  0.16277  0  1.061153  0
H  H69  1  0.88584664  0.88547705  0.62222899  1  0.064812  0  0.10775  0.096139  0  0.983364  0
H  H70  1  0.69945963  0.11270067  0.58318272  1  0.070118  0  0.108774  0.126578  0  1.000118  0
H  H71  1  0.73732661  0.96598742  0.54297526  1  0.06026  0  0.109143  0.132181  0  0.963837  0
H  H72  1  0.61745038  0.07782399  0.70011960  1  0.075123  0  0.098207  0.097225  0  1.036108  0
H  H73  1  0.41986554  0.96666340  0.74257710  1  0.0383  0  0.098523  0.093544  0  1.036529  0
H  H74  1  0.37730699  0.72346886  0.72331126  1  0.057431  0  0.099879  0.096509  0  1.029468  0
H  H75  1  0.53415891  0.59260561  0.66072453  1  0.071551  0  0.099793  0.095228  0  1.010761  0
H  H76  1  0.73454772  0.70299595  0.62039909  1  0.05263  0  0.098758  0.098395  0  1.011594  0
H  H77  1  0.38931977  0.03921861  0.55896692  1  0.021371  0  0.083539  0.166635  0  1.044883  0
H  H78  1  0.36205102  0.16017260  0.61567404  1  0.046257  0  0.084821  0.169777  0  1.039988  0
H  H79  1  0.25674795  0.01582683  0.61019302  1  0.05825  0  0.085536  0.172114  0  1.04766  0
H  H80  1  0.23932244  0.13515355  0.41427181  1  0.060104  0  0.085398  0.17366  0  1.060115  0
H  H81  1  0.13097505  0.01046555  0.44524679  1  0.008145  0  0.084897  0.169874  0  1.036444  0
H  H82  1  0.06490376  0.16782450  0.42121383  1  0.041324  0  0.085243  0.171992  0  1.047565  0
H  H83  1  0.02708506  0.37199140  0.58939898  1  0.051854  0  0.088005  0.174466  0  1.045992  0
H  H84  1  0.18182405  0.45282834  0.57317738  1  0.044602  0  0.083865  0.167568  0  1.038942  0
H  H85  1  0.05558207  0.44000467  0.51797911  1  0.043569  0  0.08251  0.161443  0  1.063636  0
H  H86  1  0.11418223  0.38544026  0.87776966  1  0.064533  0  0.107738  0.096275  0  0.983199  0
H  H87  1  0.30055129  0.61266397  0.91681846  1  0.070295  0  0.108674  0.126478  0  1.000302  0
H  H88  1  0.26269979  0.46595991  0.95702189  1  0.060101  0  0.109209  0.132276  0  0.963629  0
H  H89  1  0.38252721  0.57783532  0.79987006  1  0.075153  0  0.098273  0.097304  0  1.036382  0
H  H90  1  0.58011730  0.46671938  0.75739190  1  0.037336  0  0.098541  0.093434  0  1.036379  0
H  H91  1  0.62272976  0.22352585  0.77664913  1  0.05686  0  0.09983  0.096463  0  1.029421  0
H  H92  1  0.46592591  0.09264104  0.83925055  1  0.041766  0  0.099813  0.095253  0  1.010744  0
H  H93  1  0.26553123  0.20298527  0.87959409  1  0.053644  0  0.098645  0.098044  0  1.012004  0
H  H94  1  0.61071851  0.53920556  0.94103419  1  0.021511  0  0.083602  0.166743  0  1.044941  0
H  H95  1  0.63798356  0.66017535  0.88433250  1  0.046571  0  0.084884  0.169982  0  1.039765  0
H  H96  1  0.74327800  0.51582190  0.88980145  1  0.057391  0  0.085599  0.172179  0  1.04775  0
H  H97  1  0.76068462  0.63517017  0.08572865  1  0.060178  0  0.085412  0.173611  0  1.060197  0
H  H98  1  0.86903463  0.51044488  0.05476858  1  0.007781  0  0.084913  0.169939  0  1.036481  0
H  H99  1  0.93512668  0.66782166  0.07879515  1  0.04116  0  0.085287  0.172061  0  1.047601  0
H  H100  1  0.97292772  0.87200195  0.91060541  1  0.051762  0  0.088063  0.174518  0  1.045925  0
H  H101  1  0.81818626  0.95279540  0.92683253  1  0.045263  0  0.083855  0.167579  0  1.038834  0
H  H102  1  0.94442503  0.93998651  0.98202378  1  0.043485  0  0.0825  0.161412  0  1.063655  0
H  H103  1  0.81909423  0.87688003  0.81845916  1  0.026775  0  0.083951  0.166982  0  1.049114  0
H  H104  1  0.78833215  0.76361503  0.75914040  1  0.039451  0  0.082535  0.165963  0  1.07607  0
H  H105  1  0.85772354  0.70103797  0.82630479  1  0.056225  0  0.088758  0.175618  0  1.05553  0
H  H106  1  0.02853913  0.72292708  0.65186446  1  0.037087  0  0.082488  0.163732  0  1.060017  0
H  H107  1  0.18324870  0.80862004  0.65896451  1  0.045103  0  0.084604  0.169904  0  1.052523  0
H  H108  1  0.16307395  0.64197571  0.68837352  1  0.048802  0  0.085346  0.16949  0  1.053353  0
H  H109  1  0.24842470  0.93625172  0.82683795  1  0.062695  0  0.08262  0.167528  0  1.065105  0
H  H110  1  0.20984165  0.04189370  0.76503969  1  0.062427  0  0.085321  0.168486  0  1.06126  0
H  H111  1  0.10589250  0.04357063  0.82798296  1  0.035332  0  0.083083  0.162712  0  1.06118  0
C  C112  1  0.35462312  0.71369172  0.20410929  1  -0.425196  0  -0.33463  -0.745724  0  3.744326  0
C  C113  1  0.61445347  0.76113592  0.31955640  1  -0.452067  0  -0.333441  -0.748707  0  3.763673  0
C  C114  1  0.66885450  0.52020255  0.19965041  1  -0.48487  0  -0.340967  -0.749639  0  3.757016  0
C  C115  1  0.62269643  0.94226577  0.17694205  1  1.554789  0  0.234678  0.603187  0  4.126285  0
C  C116  1  0.68741909  0.03591753  0.13197204  1  0.006264  0  -0.081621  -0.142375  0  3.916402  0
C  C117  1  0.72222813  0.96184282  0.07504667  1  -0.03608  0  -0.156679  -0.325306  0  3.932645  0
C  C118  1  0.60591588  0.89078803  0.04642056  1  1.54799  0  0.232774  0.634456  0  4.114334  0
C  C119  1  0.80971502  0.10231408  0.15786516  1  -0.018694  0  -0.007809  0.09769  0  3.952339  0
C  C120  1  0.90007883  0.02895875  0.19197660  1  -0.093811  0  -0.095546  -0.138894  0  3.965808  0
C  C121  1  0.01166504  0.09147207  0.21563877  1  0.00382  0  -0.092544  -0.075255  0  4.016891  0
C  C122  1  0.03555268  0.22781009  0.20478144  1  -0.078115  0  -0.096338  -0.096439  0  4.018803  0
C  C123  1  0.94776499  0.30108274  0.16979398  1  -0.000759  0  -0.093574  -0.081545  0  4.036293  0
C  C124  1  0.83521296  0.23861478  0.14675605  1  -0.093379  0  -0.095252  -0.146719  0  3.995323  0
C  C125  1  0.18658287  0.90955924  0.08519741  1  -0.445706  0  -0.334637  -0.735835  0  3.751841  0
C  C126  1  0.34902026  0.88130696  0.94117083  1  -0.422194  0  -0.337795  -0.752048  0  3.75876  0
C  C127  1  0.39788108  0.61034592  0.05550261  1  -0.457778  0  -0.334916  -0.746051  0  3.767036  0
C  C128  1  0.37727375  0.44227036  0.32305907  1  1.554758  0  0.23469  0.603327  0  4.126722  0
C  C129  1  0.31255145  0.53592359  0.36803585  1  0.00675  0  -0.081511  -0.142318  0  3.916048  0
C  C130  1  0.27777014  0.46182512  0.42496475  1  -0.036827  0  -0.156691  -0.325548  0  3.932675  0
C  C131  1  0.39410880  0.39077764  0.45358148  1  1.548472  0  0.232957  0.634672  0  4.113925  0
C  C132  1  0.19026072  0.60231953  0.34212327  1  -0.019506  0  -0.007817  0.097683  0  3.952213  0
C  C133  1  0.09989753  0.52895298  0.30802494  1  -0.09259  0  -0.095536  -0.13885  0  3.96552  0
C  C134  1  0.98833031  0.59147873  0.28434871  1  0.003827  0  -0.092448  -0.075021  0  4.016458  0
C  C135  1  0.96443035  0.72780524  0.29521533  1  -0.077561  0  -0.096399  -0.0966  0  4.019143  0
C  C136  1  0.05222633  0.80107717  0.33019803  1  -0.00063  0  -0.093589  -0.081509  0  4.036743  0
C  C137  1  0.16474650  0.73862695  0.35325089  1  -0.094032  0  -0.0953  -0.146719  0  3.995349  0
C  C138  1  0.81339462  0.40957386  0.41480617  1  -0.446301  0  -0.334786  -0.736038  0  3.752243  0
C  C139  1  0.65096991  0.38129685  0.55882928  1  -0.422243  0  -0.337823  -0.752138  0  3.758992  0
C  C140  1  0.60213443  0.11032643  0.44449125  1  -0.457774  0  -0.334843  -0.745982  0  3.766735  0
C  C141  1  0.64537054  0.21367701  0.29589544  1  -0.424712  0  -0.334449  -0.745513  0  3.74364  0
C  C142  1  0.38553216  0.26113656  0.18044931  1  -0.452102  0  -0.333505  -0.748935  0  3.763475  0
C  C143  1  0.33113951  0.02019773  0.30035671  1  -0.484549  0  -0.341087  -0.749892  0  3.75735  0
C  C144  1  0.14536087  0.28631966  0.70409978  1  -0.424101  0  -0.334513  -0.745567  0  3.743754  0
C  C145  1  0.88553812  0.23888422  0.81955758  1  -0.451484  0  -0.33352  -0.748872  0  3.763799  0
C  C146  1  0.83112405  0.47981326  0.69965695  1  -0.486996  0  -0.340933  -0.749694  0  3.756818  0
C  C147  1  0.87726676  0.05773465  0.67695305  1  1.555753  0  0.234691  0.603294  0  4.126851  0
C  C148  1  0.81257671  0.96407837  0.63197383  1  0.005563  0  -0.081571  -0.142032  0  3.91673  0
C  C149  1  0.77778622  0.03816093  0.57504867  1  -0.036554  0  -0.156681  -0.325478  0  3.932838  0
C  C150  1  0.89410626  0.10921558  0.54642501  1  1.548132  0  0.232966  0.634575  0  4.114451  0
C  C151  1  0.69029693  0.89767752  0.65787618  1  -0.01952  0  -0.007821  0.0974  0  3.952496  0
C  C152  1  0.59990418  0.97103176  0.69197100  1  -0.092458  0  -0.095486  -0.138646  0  3.965646  0
C  C153  1  0.48833009  0.90851983  0.71564026  1  0.003675  0  -0.09253  -0.075207  0  4.016953  0
C  C154  1  0.46443721  0.77218628  0.70477617  1  -0.077666  0  -0.096344  -0.09651  0  4.018885  0
C  C155  1  0.55225214  0.69891462  0.66979637  1  -0.001118  0  -0.093661  -0.081585  0  4.036877  0
C  C156  1  0.66478288  0.76137319  0.64675415  1  -0.093567  0  -0.095193  -0.146732  0  3.995381  0
C  C157  1  0.31342664  0.09043989  0.58519862  1  -0.446509  0  -0.334588  -0.735554  0  3.751946  0
C  C158  1  0.15100087  0.11868851  0.44117607  1  -0.42246  0  -0.337673  -0.751777  0  3.758822  0
C  C159  1  0.10213729  0.38966804  0.55550509  1  -0.457435  0  -0.334828  -0.745934  0  3.767038  0
C  C160  1  0.12272036  0.55773514  0.82306015  1  1.554865  0  0.234598  0.603188  0  4.126448  0
C  C161  1  0.18744569  0.46405621  0.86801811  1  0.006243  0  -0.08161  -0.142366  0  3.916287  0
C  C162  1  0.22224510  0.53812569  0.92494370  1  -0.036191  0  -0.156519  -0.325256  0  3.932693  0
C  C163  1  0.10592836  0.60920049  0.95357234  1  1.548558  0  0.232892  0.634428  0  4.114841  0
C  C164  1  0.30973810  0.39768068  0.84211721  1  -0.020011  0  -0.007964  0.097436  0  3.952101  0
C  C165  1  0.40008568  0.47104731  0.80800575  1  -0.092529  0  -0.095527  -0.138856  0  3.966049  0
C  C166  1  0.51166356  0.40856047  0.78433166  1  0.004118  0  -0.092536  -0.074949  0  4.016516  0
C  C167  1  0.53558064  0.27221539  0.79518691  1  -0.078114  0  -0.096163  -0.096396  0  4.018521  0
C  C168  1  0.44780892  0.19893440  0.83017761  1  0.02955  0  -0.09379  -0.081752  0  4.036534  0
C  C169  1  0.33527042  0.26137387  0.85322644  1  -0.093851  0  -0.094967  -0.146264  0  3.994949  0
C  C170  1  0.68660566  0.59042789  0.91480421  1  -0.445986  0  -0.334743  -0.73595  0  3.752045  0
C  C171  1  0.84902469  0.61867734  0.05883375  1  -0.422121  0  -0.337793  -0.751946  0  3.758933  0
C  C172  1  0.89787879  0.88964539  0.94450220  1  -0.457989  0  -0.334884  -0.745973  0  3.767019  0
C  C173  1  0.85463249  0.78631954  0.79590498  1  -0.423989  0  -0.334508  -0.745572  0  3.74391  0
C  C174  1  0.11445038  0.73888045  0.68045104  1  -0.452625  0  -0.333453  -0.748804  0  3.763743  0
C  C175  1  0.16885805  0.97981354  0.80035641  1  -0.483602  0  -0.340953  -0.749663  0  3.756774  0
O  O176  1  0.54181553  0.98754370  0.21426304  1  -1.206572  0  -0.276972  -0.544247  0  2.310833  0
O  O177  1  0.65671251  0.81754722  0.17561160  1  -1.183125  0  -0.280841  -0.532124  0  2.257825  0
O  O178  1  0.48988529  0.92035501  0.06504122  1  -1.180053  0  -0.278427  -0.523423  0  2.23679  0
O  O179  1  0.62558756  0.80658883  0.00533223  1  -1.196262  0  -0.278228  -0.548121  0  2.275252  0
O  O180  1  0.45814361  0.48752434  0.28573561  1  -1.206813  0  -0.276922  -0.544329  0  2.311378  0
O  O181  1  0.34328209  0.31753632  0.32438773  1  -1.183257  0  -0.281043  -0.532337  0  2.257718  0
O  O182  1  0.51012608  0.42036924  0.43494705  1  -1.179692  0  -0.278354  -0.523379  0  2.236292  0
O  O183  1  0.37441080  0.30659532  0.49467584  1  -1.196632  0  -0.278298  -0.548102  0  2.275623  0
O  O184  1  0.95814128  0.01248431  0.71427777  1  -1.207144  0  -0.276937  -0.544356  0  2.311281  0
O  O185  1  0.84327354  0.18246509  0.67562028  1  -1.183469  0  -0.280975  -0.532361  0  2.257886  0
O  O186  1  0.01013048  0.07965027  0.56505720  1  -1.180132  0  -0.278487  -0.523456  0  2.236434  0
O  O187  1  0.87441644  0.19339067  0.50532748  1  -1.196239  0  -0.278268  -0.548032  0  2.275733  0
O  O188  1  0.04184004  0.51247473  0.78573307  1  -1.206579  0  -0.276942  -0.544324  0  2.310808  0
O  O189  1  0.15672085  0.68245326  0.82438548  1  -1.183337  0  -0.280836  -0.532162  0  2.258051  0
O  O190  1  0.98989468  0.57962335  0.93495304  1  -1.180155  0  -0.278502  -0.523497  0  2.236712  0
O  O191  1  0.12558409  0.69337670  0.99466999  1  -1.19669  0  -0.278283  -0.547992  0  2.275722  0
