# generated using pymatgen
data_AgH10C11(NO)3
_symmetry_space_group_name_H-M   'P 1'
_cell_length_a   5.39958626
_cell_length_b   8.18497530
_cell_length_c   12.80528559
_cell_angle_alpha   90.00056123
_cell_angle_beta   94.54924416
_cell_angle_gamma   90.00063395
_symmetry_Int_Tables_number   1
_chemical_formula_structural   AgH10C11(NO)3
_chemical_formula_sum   'Ag2 H20 C22 N6 O6'
_cell_volume   564.15278248
_cell_formula_units_Z   2
loop_
 _symmetry_equiv_pos_site_id
 _symmetry_equiv_pos_as_xyz
  1  'x, y, z'
loop_
 _atom_site_type_symbol
 _atom_site_label
 _atom_site_symmetry_multiplicity
 _atom_site_fract_x
 _atom_site_fract_y
 _atom_site_fract_z
 _atom_site_occupancy
 _atom_site_hle17_bader_spin_density
 _atom_site_hle17_ddec_charge
 _atom_site_hle17_ddec_spin_density
 _atom_site_hle17_ddec_sum_bond_order
 _atom_site_hle17_magmom
 _atom_site_hse06_10hf_bader_spin_density
 _atom_site_hse06_10hf_ddec_charge
 _atom_site_hse06_10hf_ddec_spin_density
 _atom_site_hse06_10hf_ddec_sum_bond_order
 _atom_site_hse06_10hf_magmom
 _atom_site_hse06_bader_spin_density
 _atom_site_hse06_ddec_charge
 _atom_site_hse06_ddec_spin_density
 _atom_site_hse06_ddec_sum_bond_order
 _atom_site_hse06_magmom
 _atom_site_pbe_bader_spin_density
 _atom_site_pbe_cm5_charge
 _atom_site_pbe_ddec_charge
 _atom_site_pbe_ddec_spin_density
 _atom_site_pbe_ddec_sum_bond_order
 _atom_site_pbe_magmom
Ag  Ag0  1  0.99999754  0.24604169  0.24999882  1  0  0.486588  0  1.472375  0  0  0.345328  0  1.901581  0  0  0.371443  0  1.863056  0  0  0.475082  0.328026  0  1.927984  0
Ag  Ag1  1  0.00000179  0.75395688  0.74999790  1  0  0.486663  0  1.472369  0  0  0.345318  0  1.90168  0  0  0.371435  0  1.863152  0  0  0.475077  0.32802  0  1.928083  0
H  H2  1  0.33525915  0.55768839  0.24741284  1  0  0.123109  0  0.954163  0  0  0.135447  0  1.021626  0  0  0.137952  0  1.019185  0  0  0.103285  0.133626  0  1.02339  0
H  H3  1  0.33525527  0.44230775  0.74741173  1  0  0.123133  0  0.954173  0  0  0.135432  0  1.021628  0  0  0.137942  0  1.019184  0  0  0.10329  0.133628  0  1.023381  0
H  H4  1  0.66477005  0.44232607  0.75259417  1  0  0.123067  0  0.954293  0  0  0.135375  0  1.021741  0  0  0.137884  0  1.019294  0  0  0.103251  0.133571  0  1.023494  0
H  H5  1  0.66477935  0.55767494  0.25258529  1  0  0.123059  0  0.954412  0  0  0.135426  0  1.021831  0  0  0.137935  0  1.019391  0  0  0.103261  0.13361  0  1.023592  0
H  H6  1  0.13692940  0.47431296  0.09086278  1  0  0.106519  0  0.965903  0  0  0.115403  0  1.031693  0  0  0.118343  0  1.030289  0  0  0.103317  0.113231  0  1.032961  0
H  H7  1  0.13693454  0.52567931  0.59086559  1  0  0.106548  0  0.965777  0  0  0.11546  0  1.031553  0  0  0.118403  0  1.030141  0  0  0.103323  0.113285  0  1.032823  0
H  H8  1  0.86306259  0.52569539  0.90913996  1  0  0.106557  0  0.965914  0  0  0.115445  0  1.031689  0  0  0.118385  0  1.030283  0  0  0.103354  0.113271  0  1.03296  0
H  H9  1  0.86306867  0.47430949  0.40914218  1  0  0.106527  0  0.965907  0  0  0.11544  0  1.031672  0  0  0.11838  0  1.030266  0  0  0.103334  0.113264  0  1.032943  0
H  H10  1  0.13491380  0.31434713  0.92171933  1  0  0.095477  0  0.976455  0  0  0.101292  0  1.046113  0  0  0.104576  0  1.043195  0  0  0.103954  0.09882  0  1.048338  0
H  H11  1  0.13492009  0.68565646  0.42172442  1  0  0.095402  0  0.976492  0  0  0.101283  0  1.046062  0  0  0.104553  0  1.043182  0  0  0.10393  0.098805  0  1.048286  0
H  H12  1  0.86506885  0.68567099  0.07827922  1  0  0.095473  0  0.976519  0  0  0.101236  0  1.046208  0  0  0.104498  0  1.043349  0  0  0.103946  0.098763  0  1.048434  0
H  H13  1  0.86507934  0.31433723  0.57827933  1  0  0.095531  0  0.976413  0  0  0.10126  0  1.046137  0  0  0.104533  0  1.043254  0  0  0.103956  0.098788  0  1.048362  0
H  H14  1  0.50637147  0.13776003  0.89383017  1  0  0.115319  0  0.943149  0  0  0.125362  0  0.998575  0  0  0.128465  0  0.99824  0  0  0.109694  0.123088  0  0.999076  0
H  H15  1  0.50639406  0.86224086  0.39383840  1  0  0.115339  0  0.943182  0  0  0.125409  0  0.998592  0  0  0.12851  0  0.998257  0  0  0.109743  0.123131  0  0.999092  0
H  H16  1  0.49359998  0.86225076  0.10616491  1  0  0.115359  0  0.943188  0  0  0.125445  0  0.998574  0  0  0.128546  0  0.998237  0  0  0.10975  0.123169  0  0.999077  0
H  H17  1  0.49360903  0.13774672  0.60616156  1  0  0.115433  0  0.943102  0  0  0.125405  0  0.99862  0  0  0.128506  0  0.998285  0  0  0.109743  0.12313  0  0.999117  0
H  H18  1  0.84477107  0.11827730  0.03562777  1  0  0.083446  0  0.950406  0  0  0.091786  0  1.017457  0  0  0.094028  0  1.015118  0  0  0.114599  0.090073  0  1.019318  0
H  H19  1  0.84479585  0.88171666  0.53563570  1  0  0.08354  0  0.950368  0  0  0.091768  0  1.017528  0  0  0.094012  0  1.015186  0  0  0.114633  0.090056  0  1.019379  0
H  H20  1  0.15519293  0.88171516  0.96436629  1  0  0.083381  0  0.950357  0  0  0.091699  0  1.017445  0  0  0.09394  0  1.015104  0  0  0.11462  0.089986  0  1.019302  0
H  H21  1  0.15520907  0.11828435  0.46436275  1  0  0.083426  0  0.950369  0  0  0.091728  0  1.017449  0  0  0.093973  0  1.015108  0  0  0.11461  0.090014  0  1.019306  0
C  C22  1  0.50001107  0.47812614  0.24999779  1  0  -0.303276  0  3.738697  0  0  -0.352011  0  3.972765  0  0  -0.355168  0  3.981722  0  0  -0.166725  -0.349574  0  3.966624  0
C  C23  1  0.50000504  0.52187121  0.75000335  1  0  -0.30325  0  3.738587  0  0  -0.351856  0  3.972582  0  0  -0.354995  0  3.981507  0  0  -0.166707  -0.349444  0  3.966429  0
C  C24  1  0.48947508  0.37861739  0.15097564  1  0  0.266131  0  3.731719  0  0  0.269371  0  3.969197  0  0  0.277619  0  3.989912  0  0  0.115521  0.263824  0  3.955249  0
C  C25  1  0.48948012  0.62137711  0.65097747  1  0  0.266203  0  3.73149  0  0  0.269379  0  3.969018  0  0  0.277623  0  3.989731  0  0  0.11552  0.263827  0  3.955077  0
C  C26  1  0.51052615  0.62138241  0.84902426  1  0  0.266107  0  3.731983  0  0  0.269354  0  3.9694  0  0  0.277599  0  3.990116  0  0  0.115507  0.263805  0  3.95546  0
C  C27  1  0.51053968  0.37861414  0.34902223  1  0  0.266147  0  3.731637  0  0  0.26938  0  3.969151  0  0  0.277631  0  3.989864  0  0  0.115525  0.26383  0  3.955202  0
C  C28  1  0.28824486  0.39188918  0.07571384  1  0  -0.188624  0  3.746692  0  0  -0.201561  0  3.993823  0  0  -0.209772  0  4.015299  0  0  -0.095003  -0.196373  0  3.979702  0
C  C29  1  0.28825148  0.60810759  0.57571407  1  0  -0.188827  0  3.746709  0  0  -0.2018  0  3.993884  0  0  -0.210008  0  4.015358  0  0  -0.095097  -0.196614  0  3.979757  0
C  C30  1  0.71173217  0.60811795  0.92428141  1  0  -0.18876  0  3.747059  0  0  -0.201712  0  3.994173  0  0  -0.209923  0  4.015651  0  0  -0.095092  -0.196523  0  3.980051  0
C  C31  1  0.71174785  0.39188855  0.42428265  1  0  -0.188723  0  3.746811  0  0  -0.201702  0  3.993921  0  0  -0.209913  0  4.015395  0  0  -0.095109  -0.196513  0  3.979795  0
C  C32  1  0.28842083  0.30498587  0.98213424  1  0  0.007623  0  3.71012  0  0  -0.011988  0  3.959068  0  0  -0.008006  0  3.978131  0  0  -0.070579  -0.014415  0  3.946277  0
C  C33  1  0.28842915  0.69500509  0.48213945  1  0  0.007786  0  3.710037  0  0  -0.011796  0  3.958927  0  0  -0.007822  0  3.977981  0  0  -0.070428  -0.014222  0  3.946135  0
C  C34  1  0.71157302  0.69501637  0.01786856  1  0  0.007832  0  3.709625  0  0  -0.011674  0  3.958514  0  0  -0.007697  0  3.977558  0  0  -0.070419  -0.014106  0  3.94573  0
C  C35  1  0.71157959  0.30498615  0.51786615  1  0  0.007722  0  3.709771  0  0  -0.011767  0  3.958663  0  0  -0.007786  0  3.977705  0  0  -0.070465  -0.014198  0  3.945872  0
C  C36  1  0.49177789  0.20600633  0.96601294  1  0  -0.109256  0  3.714759  0  0  -0.121593  0  3.965541  0  0  -0.129846  0  3.988222  0  0  -0.08229  -0.116348  0  3.950529  0
C  C37  1  0.49179181  0.79399438  0.46602205  1  0  -0.109145  0  3.714835  0  0  -0.121547  0  3.965595  0  0  -0.129817  0  3.988318  0  0  -0.082316  -0.1163  0  3.950573  0
C  C38  1  0.50818238  0.79400691  0.03397945  1  0  -0.10944  0  3.714928  0  0  -0.121805  0  3.965667  0  0  -0.130082  0  3.988397  0  0  -0.082443  -0.116555  0  3.950652  0
C  C39  1  0.50819641  0.20600542  0.53397667  1  0  -0.109361  0  3.71516  0  0  -0.121673  0  3.965909  0  0  -0.129946  0  3.988636  0  0  -0.08238  -0.116426  0  3.950892  0
C  C40  1  0.68419546  0.19595816  0.04455690  1  0  0.126655  0  3.699462  0  0  0.093569  0  3.949351  0  0  0.101674  0  3.967975  0  0  0.043273  0.088185  0  3.936868  0
C  C41  1  0.68421134  0.80404458  0.54456252  1  0  0.126468  0  3.699618  0  0  0.093536  0  3.949504  0  0  0.101639  0  3.968118  0  0  0.043216  0.088155  0  3.937014  0
C  C42  1  0.31579458  0.80403919  0.95543953  1  0  0.126879  0  3.69969  0  0  0.093837  0  3.949622  0  0  0.101944  0  3.968238  0  0  0.043321  0.088455  0  3.937138  0
C  C43  1  0.31579923  0.19596988  0.45544079  1  0  0.126668  0  3.699861  0  0  0.093666  0  3.949691  0  0  0.101768  0  3.968306  0  0  0.043301  0.088283  0  3.937204  0
N  N44  1  0.68413662  0.27992004  0.13527121  1  0  -0.340589  0  3.288969  0  0  -0.256002  0  3.557038  0  0  -0.276169  0  3.573752  0  0  -0.345079  -0.242424  0  3.545526  0
N  N45  1  0.68415277  0.72007437  0.63527399  1  0  -0.340604  0  3.288861  0  0  -0.256035  0  3.556929  0  0  -0.2762  0  3.573643  0  0  -0.345098  -0.24246  0  3.545418  0
N  N46  1  0.31583857  0.72007732  0.86472554  1  0  -0.340673  0  3.288739  0  0  -0.256165  0  3.556908  0  0  -0.276332  0  3.57362  0  0  -0.345122  -0.242586  0  3.5454  0
N  N47  1  0.31585213  0.27992543  0.36472290  1  0  -0.340597  0  3.288705  0  0  -0.256029  0  3.556759  0  0  -0.276193  0  3.573468  0  0  -0.345084  -0.242452  0  3.545248  0
N  N48  1  0.00001132  0.87115793  0.25000387  1  0  0.683482  0  4.149735  0  0  0.737539  0  4.41154  0  0  0.750509  0  4.439474  0  0  0.091811  0.718326  0  4.406893  0
N  N49  1  0.00000719  0.12884321  0.74999927  1  0  0.684841  0  4.148567  0  0  0.737785  0  4.411059  0  0  0.750727  0  4.439041  0  0  0.091892  0.718573  0  4.406414  0
O  O50  1  0.91440848  0.94874783  0.32528152  1  0  -0.476717  0  1.75218  0  0  -0.468784  0  1.968809  0  0  -0.479152  0  1.966931  0  0  -0.202106  -0.457572  0  1.974021  0
O  O51  1  0.91440665  0.05125609  0.82527808  1  0  -0.477261  0  1.751895  0  0  -0.46885  0  1.968594  0  0  -0.479209  0  1.966733  0  0  -0.202154  -0.457642  0  1.973815  0
O  O52  1  0.08560578  0.05125441  0.67472035  1  0  -0.477279  0  1.752096  0  0  -0.468846  0  1.96875  0  0  -0.479194  0  1.96689  0  0  -0.202139  -0.457635  0  1.973967  0
O  O53  1  0.08560387  0.94874248  0.17472211  1  0  -0.476725  0  1.752316  0  0  -0.468769  0  1.968909  0  0  -0.479136  0  1.967035  0  0  -0.202089  -0.457562  0  1.97413  0
O  O54  1  0.00001922  0.71583431  0.25000676  1  0  -0.484928  0  1.771601  0  0  -0.475575  0  1.982141  0  0  -0.486257  0  1.980755  0  0  -0.197371  -0.464309  0  1.987143  0
O  O55  1  0.00000863  0.28416683  0.74999979  1  0  -0.485407  0  1.771354  0  0  -0.475625  0  1.981979  0  0  -0.486355  0  1.980675  0  0  -0.197346  -0.464362  0  1.986992  0
