# generated using pymatgen
data_CuH8C6IN2
_symmetry_space_group_name_H-M   'P 1'
_cell_length_a   9.75857237
_cell_length_b   12.60792539
_cell_length_c   13.34039795
_cell_angle_alpha   89.99952575
_cell_angle_beta   102.60318397
_cell_angle_gamma   89.99963254
_symmetry_Int_Tables_number   1
_chemical_formula_structural   CuH8C6IN2
_chemical_formula_sum   'Cu8 H64 C48 I8 N16'
_cell_volume   1601.79186688
_cell_formula_units_Z   8
loop_
 _symmetry_equiv_pos_site_id
 _symmetry_equiv_pos_as_xyz
  1  'x, y, z'
loop_
 _atom_site_type_symbol
 _atom_site_label
 _atom_site_symmetry_multiplicity
 _atom_site_fract_x
 _atom_site_fract_y
 _atom_site_fract_z
 _atom_site_occupancy
 _atom_site_pbe_bader_spin_density
 _atom_site_pbe_cm5_charge
 _atom_site_pbe_ddec_charge
 _atom_site_pbe_ddec_spin_density
 _atom_site_pbe_ddec_sum_bond_order
 _atom_site_pbe_magmom
Cu  Cu0  1  0.78058976  0.19108009  0.58163783  1  0  0.386367  0.241958  0  2.551996  0
Cu  Cu1  1  0.71941334  0.69108411  0.91836582  1  0  0.386359  0.241932  0  2.551997  0
Cu  Cu2  1  0.21941143  0.80891739  0.41836060  1  0  0.386346  0.241922  0  2.551868  0
Cu  Cu3  1  0.28059099  0.30891892  0.08163313  1  0  0.386377  0.241965  0  2.551887  0
Cu  Cu4  1  0.88854751  0.98621713  0.54724412  1  0  0.254683  0.167116  0  2.622538  0
Cu  Cu5  1  0.61146179  0.48622182  0.95275298  1  0  0.254663  0.16712  0  2.622412  0
Cu  Cu6  1  0.11144948  0.01378273  0.45275288  1  0  0.254678  0.167133  0  2.622518  0
Cu  Cu7  1  0.38854886  0.51378597  0.04724474  1  0  0.25467  0.167156  0  2.622447  0
H  H8  1  0.16164543  0.44675896  0.75144702  1  0  0.096535  0.072874  0  1.058806  0
H  H9  1  0.33836172  0.94675594  0.74855006  1  0  0.096526  0.072868  0  1.058853  0
H  H10  1  0.83835045  0.55324170  0.24856105  1  0  0.096525  0.072887  0  1.058867  0
H  H11  1  0.66163948  0.05324392  0.25144538  1  0  0.096542  0.07286  0  1.058827  0
H  H12  1  0.02825752  0.27396413  0.72427743  1  0  0.101313  0.0857  0  1.049331  0
H  H13  1  0.47175159  0.77396338  0.77571457  1  0  0.10131  0.085705  0  1.049309  0
H  H14  1  0.97174049  0.72603573  0.27572498  1  0  0.10133  0.085734  0  1.049358  0
H  H15  1  0.52825485  0.22603727  0.22428397  1  0  0.10131  0.085707  0  1.049316  0
H  H16  1  0.70087608  0.43057645  0.40421251  1  0  0.09231  0.144215  0  1.007503  0
H  H17  1  0.79911592  0.93058130  0.09579655  1  0  0.092312  0.14426  0  1.007561  0
H  H18  1  0.29912401  0.56942261  0.59579324  1  0  0.09228  0.144188  0  1.007644  0
H  H19  1  0.20088103  0.06942252  0.90420720  1  0  0.092308  0.144262  0  1.00765  0
H  H20  1  0.60534227  0.47840891  0.49287943  1  0  0.09121  0.13798  0  1.016442  0
H  H21  1  0.89465234  0.97841089  0.00713119  1  0  0.091253  0.138018  0  1.016519  0
H  H22  1  0.39465258  0.52159174  0.50712473  1  0  0.091215  0.13797  0  1.016518  0
H  H23  1  0.10534673  0.02159293  0.99287065  1  0  0.091245  0.138018  0  1.016487  0
H  H24  1  0.63260015  0.33909890  0.48169796  1  0  0.085901  0.130735  0  1.055562  0
H  H25  1  0.86739181  0.83910409  0.01831481  1  0  0.085942  0.130822  0  1.055487  0
H  H26  1  0.36739575  0.66089937  0.51830712  1  0  0.085917  0.130797  0  1.055456  0
H  H27  1  0.13260516  0.16089815  0.98168594  1  0  0.08592  0.130782  0  1.055479  0
H  H28  1  0.89500587  0.68796346  0.54533273  1  0  0.085859  0.141474  0  1.033971  0
H  H29  1  0.60498676  0.18796340  0.95466925  1  0  0.085881  0.141464  0  1.033966  0
H  H30  1  0.10499005  0.31203640  0.45466635  1  0  0.085883  0.141453  0  1.034008  0
H  H31  1  0.39500705  0.81203963  0.04533174  1  0  0.085848  0.141455  0  1.034023  0
H  H32  1  0.72746824  0.64514311  0.56295748  1  0  0.090159  0.139693  0  1.003274  0
H  H33  1  0.77251857  0.14514555  0.93704464  1  0  0.090181  0.139703  0  1.003337  0
H  H34  1  0.27252348  0.35485516  0.43704241  1  0  0.090143  0.139648  0  1.003339  0
H  H35  1  0.22747630  0.85485590  0.06295502  1  0  0.09017  0.139699  0  1.003346  0
H  H36  1  0.78161908  0.61150352  0.44848920  1  0  0.091033  0.131026  0  1.020723  0
H  H37  1  0.71837128  0.11151039  0.05151309  1  0  0.091026  0.131005  0  1.020817  0
H  H38  1  0.21837683  0.38849078  0.55151362  1  0  0.091011  0.131008  0  1.020786  0
H  H39  1  0.28162674  0.88849185  0.94848857  1  0  0.091014  0.130991  0  1.020825  0
H  H40  1  0.33617746  0.05248924  0.34696516  1  0  0.097719  0.086063  0  1.055108  0
H  H41  1  0.16383300  0.55249030  0.15304387  1  0  0.097749  0.086076  0  1.05494  0
H  H42  1  0.66382475  0.94750111  0.65303869  1  0  0.097722  0.086062  0  1.055055  0
H  H43  1  0.83617553  0.44750718  0.84695575  1  0  0.097778  0.086193  0  1.054885  0
H  H44  1  0.58888666  0.11108567  0.39525971  1  0  0.100419  0.076283  0  1.077281  0
H  H45  1  0.91111732  0.61108512  0.10475080  1  0  0.100388  0.076288  0  1.077301  0
H  H46  1  0.41111242  0.88890547  0.60474138  1  0  0.100402  0.07628  0  1.077278  0
H  H47  1  0.08888805  0.38891394  0.89525056  1  0  0.100371  0.07624  0  1.077383  0
H  H48  1  0.48275643  0.31666797  0.70272113  1  0  0.085957  0.140642  0  1.010132  0
H  H49  1  0.01724478  0.81667406  0.79728350  1  0  0.085934  0.140673  0  1.010172  0
H  H50  1  0.51725000  0.68332792  0.29727891  1  0  0.085942  0.140662  0  1.010183  0
H  H51  1  0.98275641  0.18332897  0.20271568  1  0  0.085978  0.140713  0  1.010122  0
H  H52  1  0.65189248  0.25947810  0.71040290  1  0  0.082976  0.12964  0  1.043313  0
H  H53  1  0.84810984  0.75948101  0.78960459  1  0  0.083014  0.129711  0  1.043334  0
H  H54  1  0.34811711  0.74051383  0.28959690  1  0  0.08302  0.129677  0  1.043426  0
H  H55  1  0.15189028  0.24052202  0.21039592  1  0  0.083032  0.129714  0  1.043309  0
H  H56  1  0.52458453  0.19478076  0.76748860  1  0  0.092737  0.143899  0  1.046794  0
H  H57  1  0.97541118  0.69478196  0.73251533  1  0  0.092748  0.143934  0  1.046671  0
H  H58  1  0.47541876  0.80521275  0.23251093  1  0  0.092757  0.143977  0  1.046773  0
H  H59  1  0.02458897  0.30522107  0.26748069  1  0  0.092757  0.14394  0  1.046635  0
H  H60  1  0.29896295  0.12554806  0.72716242  1  0  0.095579  0.143063  0  1.030193  0
H  H61  1  0.20101732  0.62554789  0.77283356  1  0  0.095577  0.14302  0  1.030151  0
H  H62  1  0.70102774  0.87445735  0.27283357  1  0  0.095593  0.143059  0  1.030132  0
H  H63  1  0.79897969  0.37445672  0.22715895  1  0  0.095575  0.143023  0  1.030198  0
H  H64  1  0.14835984  0.12789504  0.62222174  1  0  0.0742  0.115323  0  1.092257  0
H  H65  1  0.35163199  0.62789638  0.87776934  1  0  0.074213  0.115336  0  1.09222  0
H  H66  1  0.85163611  0.87211117  0.37777359  1  0  0.074229  0.115418  0  1.092193  0
H  H67  1  0.64837446  0.37210903  0.12222695  1  0  0.074223  0.115358  0  1.092157  0
H  H68  1  0.24237972  0.24642878  0.66748905  1  0  0.091507  0.134535  0  1.020795  0
H  H69  1  0.25761391  0.74642860  0.83250665  1  0  0.091514  0.134505  0  1.020823  0
H  H70  1  0.75762463  0.75357742  0.33250615  1  0  0.091494  0.134506  0  1.020765  0
H  H71  1  0.74238202  0.25357919  0.16749168  1  0  0.091538  0.134538  0  1.020816  0
C  C72  1  0.81299358  0.42489573  0.56111283  1  0  0.124404  0.222003  0  3.876288  0
C  C73  1  0.68700374  0.92489894  0.93889331  1  0  0.124384  0.222047  0  3.876405  0
C  C74  1  0.18699813  0.57510175  0.43889006  1  0  0.124465  0.22209  0  3.876283  0
C  C75  1  0.31299638  0.07510092  0.06110795  1  0  0.124402  0.221981  0  3.87637  0
C  C76  1  0.88323011  0.52340969  0.58229048  1  0  0.126798  0.218798  0  3.930904  0
C  C77  1  0.61676542  0.02341068  0.91771251  1  0  0.126827  0.218739  0  3.930938  0
C  C78  1  0.11676055  0.47658859  0.41771224  1  0  0.126776  0.218788  0  3.930851  0
C  C79  1  0.38323366  0.97658997  0.08228708  1  0  0.126828  0.218862  0  3.930947  0
C  C80  1  0.05968942  0.44162537  0.69768350  1  0  0.030116  0.02184  0  4.019969  0
C  C81  1  0.44031253  0.94162455  0.80231277  1  0  0.030167  0.021785  0  4.020065  0
C  C82  1  0.94030543  0.55837211  0.30231990  1  0  0.030171  0.021832  0  4.020112  0
C  C83  1  0.55968655  0.05837372  0.19768607  1  0  0.03015  0.02186  0  4.020053  0
C  C84  1  0.98899492  0.34581355  0.68205879  1  0  0.029305  0.020608  0  3.963914  0
C  C85  1  0.51101173  0.84581155  0.81793973  1  0  0.029338  0.020659  0  3.963691  0
C  C86  1  0.01100098  0.65418631  0.31794478  1  0  0.029285  0.020528  0  3.964009  0
C  C87  1  0.48898943  0.15418910  0.18206245  1  0  0.029336  0.020637  0  3.963757  0
C  C88  1  0.68060203  0.41741064  0.48121872  1  0  -0.248013  -0.446485  0  3.966745  0
C  C89  1  0.81939116  0.91741527  0.01879214  1  0  -0.248079  -0.446693  0  3.966921  0
C  C90  1  0.31938967  0.58258764  0.51878492  1  0  -0.247984  -0.44653  0  3.966822  0
C  C91  1  0.18060790  0.08258776  0.98121120  1  0  -0.248058  -0.446636  0  3.966928  0
C  C92  1  0.81896104  0.62275789  0.53154847  1  0  -0.244931  -0.437968  0  3.929592  0
C  C93  1  0.68103022  0.12275813  0.96845380  1  0  -0.245002  -0.437975  0  3.929759  0
C  C94  1  0.18103382  0.37724197  0.46845344  1  0  -0.244938  -0.437917  0  3.929658  0
C  C95  1  0.31896464  0.87724490  0.03154811  1  0  -0.244931  -0.437974  0  3.929809  0
C  C96  1  0.48606118  0.18307941  0.60357970  1  0  0.12399  0.224394  0  3.85501  0
C  C97  1  0.01393840  0.68308544  0.89642045  1  0  0.124038  0.224525  0  3.854952  0
C  C98  1  0.51394001  0.81691490  0.39641948  1  0  0.124011  0.224551  0  3.854844  0
C  C99  1  0.98606594  0.31691601  0.10357849  1  0  0.124012  0.224436  0  3.85522  0
C  C100  1  0.34567596  0.14619355  0.57825864  1  0  0.123763  0.223349  0  3.855211  0
C  C101  1  0.15432194  0.64620500  0.92173929  1  0  0.123889  0.22369  0  3.854916  0
C  C102  1  0.65432207  0.85380235  0.42174004  1  0  0.123829  0.223385  0  3.855142  0
C  C103  1  0.84568346  0.35379962  0.07825833  1  0  0.123855  0.22351  0  3.855234  0
C  C104  1  0.38015563  0.08940209  0.42103960  1  0  0.025963  0.02751  0  3.959702  0
C  C105  1  0.11984920  0.58940481  0.07896297  1  0  0.026076  0.027709  0  3.959525  0
C  C106  1  0.61984449  0.91059221  0.57896091  1  0  0.02604  0.027627  0  3.959641  0
C  C107  1  0.88015830  0.41059187  0.92103424  1  0  0.02596  0.027463  0  3.959683  0
C  C108  1  0.51806378  0.12193197  0.44715196  1  0  0.022147  0.01423  0  3.993877  0
C  C109  1  0.98193799  0.62193629  0.05285586  1  0  0.022085  0.014164  0  3.993722  0
C  C110  1  0.48193845  0.87805917  0.55284740  1  0  0.02211  0.014087  0  3.994007  0
C  C111  1  0.01806739  0.37806437  0.94714476  1  0  0.022109  0.014168  0  3.993912  0
C  C112  1  0.53995473  0.24152383  0.70129614  1  0  -0.249691  -0.443841  0  3.931856  0
C  C113  1  0.96004571  0.74153008  0.79870594  1  0  -0.249762  -0.444083  0  3.93188  0
C  C114  1  0.46005170  0.75847206  0.29870465  1  0  -0.249769  -0.444072  0  3.932089  0
C  C115  1  0.03995547  0.25847136  0.20129324  1  0  -0.249806  -0.444069  0  3.931873  0
C  C116  1  0.25286822  0.16141404  0.65221562  1  0  -0.246495  -0.442118  0  3.932884  0
C  C117  1  0.24712322  0.66141537  0.84777814  1  0  -0.246544  -0.442139  0  3.932708  0
C  C118  1  0.74713194  0.83859058  0.34777815  1  0  -0.246551  -0.442187  0  3.932795  0
C  C119  1  0.75288115  0.33858925  0.15221482  1  0  -0.246579  -0.442149  0  3.932892  0
I  I120  1  0.88802132  0.14139513  0.41583589  1  0  -0.14744  -0.287865  0  2.176669  0
I  I121  1  0.61198027  0.64139784  0.08416500  1  0  -0.147429  -0.287858  0  2.176649  0
I  I122  1  0.11197778  0.85860711  0.58416071  1  0  -0.14747  -0.28789  0  2.176677  0
I  I123  1  0.38802721  0.35861153  0.91583595  1  0  -0.147483  -0.287928  0  2.176682  0
I  I124  1  0.89967882  0.06844355  0.73735703  1  0  -0.219517  -0.386191  0  1.71647  0
I  I125  1  0.60032357  0.56845270  0.76264298  1  0  -0.219522  -0.386209  0  1.71649  0
I  I126  1  0.10032448  0.93155631  0.26263875  1  0  -0.219543  -0.386218  0  1.716401  0
I  I127  1  0.39968602  0.43155430  0.23735532  1  0  -0.219527  -0.386239  0  1.71648  0
N  N128  1  0.86640554  0.33651842  0.61239663  1  0  -0.344358  -0.206319  0  3.593568  0
N  N129  1  0.63359593  0.83652314  0.88760787  1  0  -0.344402  -0.206329  0  3.593604  0
N  N130  1  0.13358931  0.66347906  0.38760677  1  0  -0.344412  -0.206338  0  3.593699  0
N  N131  1  0.36640629  0.16347672  0.11239373  1  0  -0.344372  -0.206253  0  3.593589  0
N  N132  1  0.00751475  0.53076409  0.64869795  1  0  -0.305941  -0.267889  0  3.30895  0
N  N133  1  0.49248232  0.03075666  0.85130300  1  0  -0.305978  -0.267776  0  3.309092  0
N  N134  1  0.99247694  0.46923577  0.35130644  1  0  -0.305951  -0.267853  0  3.308953  0
N  N135  1  0.50751361  0.96924320  0.14869758  1  0  -0.306014  -0.267957  0  3.309268  0
N  N136  1  0.57393696  0.16603702  0.53943956  1  0  -0.352993  -0.21838  0  3.629878  0
N  N137  1  0.92606643  0.66603726  0.96056284  1  0  -0.352961  -0.218418  0  3.629653  0
N  N138  1  0.42606633  0.83395491  0.46055922  1  0  -0.352919  -0.218285  0  3.629751  0
N  N139  1  0.07394000  0.33396339  0.03943795  1  0  -0.352905  -0.218284  0  3.629911  0
N  N140  1  0.29380690  0.09727246  0.48754532  1  0  -0.34354  -0.19787  0  3.568009  0
N  N141  1  0.20618420  0.59727454  0.01245272  1  0  -0.343725  -0.198288  0  3.568122  0
N  N142  1  0.70619007  0.90272502  0.51245468  1  0  -0.343647  -0.197971  0  3.568037  0
N  N143  1  0.79382223  0.40272532  0.98754656  1  0  -0.343644  -0.198062  0  3.568208  0
