# generated using pymatgen
data_LiP2H39PdC37(N2Cl)2
_symmetry_space_group_name_H-M   'P 1'
_cell_length_a   10.38130165
_cell_length_b   13.72964560
_cell_length_c   15.89267892
_cell_angle_alpha   107.93818999
_cell_angle_beta   103.93206137
_cell_angle_gamma   107.77734927
_symmetry_Int_Tables_number   1
_chemical_formula_structural   LiP2H39PdC37(N2Cl)2
_chemical_formula_sum   'Li2 P4 H78 Pd2 C74 N8 Cl4'
_cell_volume   1906.90929122
_cell_formula_units_Z   2
loop_
 _symmetry_equiv_pos_site_id
 _symmetry_equiv_pos_as_xyz
  1  'x, y, z'
loop_
 _atom_site_type_symbol
 _atom_site_label
 _atom_site_symmetry_multiplicity
 _atom_site_fract_x
 _atom_site_fract_y
 _atom_site_fract_z
 _atom_site_occupancy
 _atom_site_pbe_bader_charge
 _atom_site_pbe_bader_spin_density
 _atom_site_pbe_cm5_charge
 _atom_site_pbe_ddec_charge
 _atom_site_pbe_ddec_spin_density
 _atom_site_pbe_ddec_sum_bond_order
 _atom_site_pbe_magmom
Li  Li0  1  0.87595673  0.61096482  0.33643537  1  0.856018  0  0.411207  0.740422  0  0.644459  0
Li  Li1  1  0.12404421  0.38904194  0.66356717  1  0.856001  0  0.411207  0.740408  0  0.644472  0
P  P2  1  0.39479640  0.64447755  0.26713052  1  2.175127  0  0.134286  0.471034  0  4.837289  0
P  P3  1  0.60520266  0.35552416  0.73286786  1  2.175304  0  0.134258  0.471064  0  4.837206  0
P  P4  1  0.61496434  0.85723312  0.43613893  1  1.614294  0  -0.042411  0.361046  0  4.424478  0
P  P5  1  0.38503480  0.14276859  0.56386450  1  1.614267  0  -0.042413  0.360942  0  4.424479  0
H  H6  1  0.29447133  0.36243234  0.45025240  1  0.046464  0  0.092185  0.092515  0  1.052242  0
H  H7  1  0.70555967  0.63756453  0.54974319  1  0.046478  0  0.092229  0.092614  0  1.052203  0
H  H8  1  0.02937329  0.29000966  0.40145235  1  0.086288  0  0.093989  0.094357  0  1.049666  0
H  H9  1  0.97065658  0.70997961  0.59854983  1  0.086255  0  0.093983  0.0943  0  1.049612  0
H  H10  1  0.88299967  0.31513050  0.26483517  1  0.02895  0  0.097283  0.097102  0  1.02269  0
H  H11  1  0.11701602  0.68486327  0.73517679  1  0.028801  0  0.0973  0.097116  0  1.022503  0
H  H12  1  0.03531655  0.48384311  0.14377862  1  0.057267  0  0.091746  0.124254  0  1.049678  0
H  H13  1  0.96468021  0.51616289  0.85623692  1  0.05719  0  0.091783  0.124265  0  1.049769  0
H  H14  1  0.88490901  0.43073852  0.17601388  1  0.031447  0  0.10087  0.132967  0  1.006634  0
H  H15  1  0.11508936  0.56926660  0.82400859  1  0.03246  0  0.100839  0.132919  0  1.006817  0
H  H16  1  0.92617446  0.33744436  0.09317354  1  0.027479  0  0.08712  0.123566  0  1.032642  0
H  H17  1  0.07381491  0.66256093  0.90683755  1  0.027225  0  0.087136  0.123569  0  1.032657  0
H  H18  1  0.52438371  0.55876458  0.40456675  1  0.034315  0  0.064413  0.091354  0  1.09361  0
H  H19  1  0.47563048  0.44123431  0.59542307  1  0.034259  0  0.064423  0.091371  0  1.093521  0
H  H20  1  0.49786004  0.43809382  0.31097584  1  0.096437  0  0.084884  0.13601  0  1.028868  0
H  H21  1  0.50214816  0.56190687  0.68901043  1  0.096659  0  0.084837  0.135972  0  1.029109  0
H  H22  1  0.50893104  0.43607921  0.42472139  1  0.02372  0  0.085727  0.124476  0  1.010793  0
H  H23  1  0.49108413  0.56391796  0.57526498  1  0.02342  0  0.085753  0.124509  0  1.010725  0
H  H24  1  0.17556735  0.86562124  0.05214640  1  0.03715  0  0.093549  0.090649  0  1.017649  0
H  H25  1  0.82442580  0.13438397  0.94785707  1  0.036862  0  0.093501  0.090561  0  1.017776  0
H  H26  1  0.41157364  0.97429656  0.04611595  1  0.059455  0  0.096932  0.09322  0  1.006858  0
H  H27  1  0.58841612  0.02570448  0.95388147  1  0.059506  0  0.096886  0.093166  0  1.007009  0
H  H28  1  0.62195458  0.92511151  0.09067889  1  0.069587  0  0.094896  0.093083  0  1.011681  0
H  H29  1  0.37803459  0.07489209  0.90931725  1  0.069543  0  0.094867  0.093002  0  1.011774  0
H  H30  1  0.72321337  0.80889481  0.12946795  1  0.029305  0  0.086313  0.1207  0  1.007911  0
H  H31  1  0.27677354  0.19109780  0.87051859  1  0.029472  0  0.086293  0.120715  0  1.007863  0
H  H32  1  0.60907172  0.67328903  0.11642016  1  0.093483  0  0.087843  0.133005  0  1.034676  0
H  H33  1  0.39091174  0.32670619  0.88357033  1  0.093556  0  0.087868  0.133022  0  1.034615  0
H  H34  1  0.68374862  0.78813506  0.22687285  1  0.037562  0  0.069044  0.106877  0  1.085044  0
H  H35  1  0.31624459  0.21186167  0.77311764  1  0.037671  0  0.069028  0.106778  0  1.08516  0
H  H36  1  0.07276321  0.59829885  0.05684728  1  0.039339  0  0.092467  0.12957  0  1.017686  0
H  H37  1  0.92723498  0.40170458  0.94316086  1  0.039254  0  0.092446  0.129586  0  1.017614  0
H  H38  1  0.02443117  0.71360097  0.06835157  1  0.035568  0  0.087355  0.119279  0  1.034425  0
H  H39  1  0.97556124  0.28639747  0.93165373  1  0.03548  0  0.0873  0.119209  0  1.03453  0
H  H40  1  0.11077452  0.69776267  0.17099025  1  0.084909  0  0.091836  0.132236  0  1.049721  0
H  H41  1  0.88922989  0.30224318  0.82901319  1  0.084901  0  0.091812  0.132216  0  1.0497  0
H  H42  1  0.21150691  0.29952606  0.00299277  1  0.033346  0  0.093531  0.128201  0  1.024467  0
H  H43  1  0.78849459  0.70047645  0.99700619  1  0.033276  0  0.093518  0.128161  0  1.024399  0
H  H44  1  0.12431408  0.27733976  0.08351602  1  0.031217  0  0.088062  0.12036  0  1.018898  0
H  H45  1  0.87568788  0.72266359  0.91648324  1  0.031187  0  0.088084  0.120394  0  1.018795  0
H  H46  1  0.31281258  0.30751656  0.11411344  1  0.058266  0  0.093805  0.136513  0  0.983502  0
H  H47  1  0.68718794  0.69248597  0.88588538  1  0.058501  0  0.0938  0.13653  0  0.98346  0
H  H48  1  0.40309976  0.53737112  0.98326445  1  0.038684  0  0.09273  0.141149  0  1.00086  0
H  H49  1  0.59689044  0.46262906  0.01672841  1  0.038623  0  0.092706  0.14115  0  1.00088  0
H  H50  1  0.23560400  0.54952497  0.95554963  1  0.02726  0  0.096635  0.139754  0  1.015392  0
H  H51  1  0.76438527  0.45047692  0.04444921  1  0.027428  0  0.096641  0.139791  0  1.015474  0
H  H52  1  0.23795864  0.41675722  0.93842089  1  0.03563  0  0.096913  0.140288  0  1.007528  0
H  H53  1  0.76203549  0.58324628  0.06157911  1  0.035679  0  0.096915  0.140322  0  1.007502  0
H  H54  1  0.42849831  0.79918347  0.49522315  1  0.050858  0  0.092481  0.108445  0  1.024589  0
H  H55  1  0.57150329  0.20081565  0.50477617  1  0.050839  0  0.092479  0.108436  0  1.024601  0
H  H56  1  0.40031371  0.89072557  0.44366738  1  0.050593  0  0.098279  0.123068  0  1.014904  0
H  H57  1  0.59968199  0.10927536  0.55633343  1  0.050516  0  0.098281  0.123079  0  1.01494  0
H  H58  1  0.43828741  0.96632415  0.35470941  1  0.060249  0  0.098591  0.099471  0  1.035865  0
H  H59  1  0.56172228  0.03368585  0.64529532  1  0.060158  0  0.098629  0.09953  0  1.035825  0
H  H60  1  0.49464744  0.09880979  0.28074393  1  0.065836  0  0.096886  0.091157  0  1.017285  0
H  H61  1  0.50536528  0.90119506  0.71925672  1  0.065861  0  0.096848  0.091133  0  1.017269  0
H  H62  1  0.73625299  0.16633551  0.26543334  1  0.036565  0  0.099429  0.092936  0  1.015638  0
H  H63  1  0.26376046  0.83366000  0.73456490  1  0.036396  0  0.099399  0.092874  0  1.015684  0
H  H64  1  0.92250696  0.09983710  0.32677792  1  0.073544  0  0.099064  0.098959  0  1.0238  0
H  H65  1  0.07750034  0.90015089  0.67321988  1  0.073421  0  0.099042  0.098909  0  1.023772  0
H  H66  1  0.86740721  0.96735858  0.40193888  1  0.10774  0  0.097584  0.10596  0  1.019418  0
H  H67  1  0.13259172  0.03263211  0.59806091  1  0.107733  0  0.097589  0.105956  0  1.019419  0
H  H68  1  0.84801608  0.08953983  0.56206758  1  0.103767  0  0.098173  0.104848  0  1.042882  0
H  H69  1  0.15196488  0.91046306  0.43793406  1  0.103771  0  0.098163  0.104822  0  1.042865  0
H  H70  1  0.99754234  0.17725002  0.73182523  1  0.11896  0  0.109312  0.10879  0  1.00665  0
H  H71  1  0.00244991  0.82275182  0.26817656  1  0.118934  0  0.109361  0.10888  0  1.006718  0
H  H72  1  0.97030765  0.06799795  0.83178838  1  0.053685  0  0.099018  0.089337  0  1.004916  0
H  H73  1  0.02969200  0.93200121  0.16821129  1  0.053704  0  0.098988  0.089289  0  1.004889  0
H  H74  1  0.78918419  0.86803125  0.75684912  1  0.047157  0  0.102624  0.102124  0  0.991086  0
H  H75  1  0.21081450  0.13196792  0.24315166  1  0.047184  0  0.102637  0.102158  0  0.991046  0
H  H76  1  0.63759388  0.77962398  0.58561709  1  0.0349  0  0.097104  0.088587  0  1.031801  0
H  H77  1  0.36239741  0.22037618  0.41438285  1  0.034966  0  0.097063  0.088563  0  1.031742  0
H  H78  1  0.66993028  0.31894497  0.45335587  1  0.097787  0  0.111837  0.159828  0  0.985006  0
H  H79  1  0.33007923  0.68104891  0.54663757  1  0.09758  0  0.111872  0.159886  0  0.98491  0
H  H80  1  0.81455107  0.42497903  0.56173683  1  0.137363  0  0.119064  0.169498  0  1.018492  0
H  H81  1  0.18545456  0.57501322  0.43825622  1  0.137167  0  0.119076  0.169574  0  1.018438  0
H  H82  1  0.84765052  0.31980591  0.48212614  1  0.132743  0  0.124198  0.174848  0  0.978798  0
H  H83  1  0.15235598  0.68018973  0.51786669  1  0.132919  0  0.124161  0.174786  0  0.978804  0
Pd  Pd84  1  0.63416209  0.70590535  0.34625386  1  0.102053  0  0.618984  0.069591  0  3.472353  0
Pd  Pd85  1  0.36583509  0.29409640  0.65374928  1  0.10198  0  0.618972  0.069582  0  3.472412  0
C  C86  1  0.26455076  0.44988298  0.12228862  1  0.339394  0  0.065518  0.111784  0  3.986195  0
C  C87  1  0.73545292  0.55012713  0.87770831  1  0.339524  0  0.065553  0.111928  0  3.985952  0
C  C88  1  0.29870765  0.52607657  0.08417640  1  0.333343  0  0.075833  0.12772  0  3.995672  0
C  C89  1  0.70129486  0.47392593  0.91582460  1  0.333372  0  0.075762  0.127635  0  3.99538  0
C  C90  1  0.22205299  0.44465434  0.26896319  1  0.288824  0  0.084447  0.071042  0  3.928347  0
C  C91  1  0.77795009  0.55534560  0.73103783  1  0.288332  0  0.084412  0.070974  0  3.92849  0
C  C92  1  0.30496183  0.42835322  0.34397144  1  -0.044346  0  -0.016242  0.091667  0  3.975965  0
C  C93  1  0.69504999  0.57164656  0.65602457  1  -0.043319  0  -0.016191  0.091803  0  3.97609  0
C  C94  1  0.23225874  0.37326008  0.39066244  1  0.01544  0  -0.104736  -0.158226  0  4.013476  0
C  C95  1  0.76776306  0.62673612  0.60933851  1  0.015449  0  -0.104833  -0.158402  0  4.013848  0
C  C96  1  0.08135437  0.33167961  0.36268052  1  -0.135237  0  -0.101371  -0.08946  0  4.07609  0
C  C97  1  0.91867145  0.66831482  0.63732307  1  -0.135231  0  -0.10125  -0.089284  0  4.075958  0
C  C98  1  0.00099742  0.34530953  0.28689199  1  -0.003357  0  -0.101203  -0.15905  0  4.017371  0
C  C99  1  0.99901614  0.65468936  0.71311914  1  -0.003723  0  -0.101293  -0.15909  0  4.017512  0
C  C100  1  0.06882250  0.40219418  0.23921994  1  0.001481  0  -0.006722  0.102967  0  3.966164  0
C  C101  1  0.93118171  0.59780235  0.76078411  1  0.001811  0  -0.006748  0.10298  0  3.966452  0
C  C102  1  0.97496441  0.41495919  0.15886018  1  -0.035195  0  -0.241662  -0.41627  0  3.971584  0
C  C103  1  0.02502798  0.58504434  0.84115341  1  -0.036172  0  -0.241673  -0.416263  0  3.972092  0
C  C104  1  0.46647798  0.46621426  0.37242755  1  -0.084664  0  -0.250714  -0.404174  0  3.981203  0
C  C105  1  0.53353424  0.53378466  0.62756199  1  -0.084644  0  -0.250714  -0.4042  0  3.981278  0
C  C106  1  0.37412967  0.73108367  0.12759755  1  0.279969  0  0.086964  0.078023  0  3.908748  0
C  C107  1  0.62586497  0.26891898  0.87240167  1  0.280097  0  0.086915  0.07796  0  3.908588  0
C  C108  1  0.25290295  0.75669885  0.10100695  1  0.007997  0  -0.006565  0.104921  0  3.969212  0
C  C109  1  0.74709278  0.24330207  0.89899574  1  0.007999  0  -0.006552  0.10487  0  3.969474  0
C  C110  1  0.26887660  0.84520349  0.07246342  1  -0.083401  0  -0.102988  -0.160352  0  4.032137  0
C  C111  1  0.73111571  0.15479665  0.92753855  1  -0.083018  0  -0.102855  -0.160174  0  4.032106  0
C  C112  1  0.40066181  0.90563357  0.06863221  1  -0.010194  0  -0.100183  -0.084624  0  4.087143  0
C  C113  1  0.59932460  0.09436499  0.93136529  1  -0.010528  0  -0.100215  -0.084644  0  4.086983  0
C  C114  1  0.51848259  0.87804925  0.09355613  1  -0.067516  0  -0.100975  -0.153055  0  4.019081  0
C  C115  1  0.48150708  0.12195179  0.90643624  1  -0.067391  0  -0.100974  -0.152996  0  4.019122  0
C  C116  1  0.50817691  0.79104158  0.12364380  1  0.01116  0  -0.003308  0.119394  0  3.942181  0
C  C117  1  0.49181333  0.20895860  0.87635158  1  0.010899  0  -0.003322  0.119435  0  3.94185  0
C  C118  1  0.63730309  0.76361255  0.14957304  1  -0.081912  0  -0.248382  -0.409321  0  3.969169  0
C  C119  1  0.36268574  0.23638341  0.85041784  1  -0.082183  0  -0.248328  -0.409224  0  3.96894  0
C  C120  1  0.10794672  0.68830159  0.09942903  1  -0.091524  0  -0.243332  -0.412433  0  3.95742  0
C  C121  1  0.89204944  0.31170187  0.90057505  1  -0.091237  0  -0.243239  -0.412375  0  3.957503  0
C  C122  1  0.22527424  0.32707068  0.07826870  1  -0.046609  0  -0.233916  -0.407616  0  4.004873  0
C  C123  1  0.77472720  0.67293353  0.92173008  1  -0.046481  0  -0.233894  -0.407609  0  4.004752  0
C  C124  1  0.29372787  0.50619557  0.98586886  1  0.033522  0  -0.235597  -0.419999  0  3.983411  0
C  C125  1  0.70626765  0.49380875  0.01412717  1  0.033408  0  -0.235585  -0.420132  0  3.983779  0
C  C126  1  0.32572787  0.71911953  0.33917909  1  -0.580976  0  -0.101835  -0.336483  0  4.155236  0
C  C127  1  0.67426930  0.28088052  0.66082044  1  -0.580965  0  -0.101921  -0.336572  0  4.155473  0
C  C128  1  0.42811766  0.81767506  0.43245666  1  -0.448123  0  -0.159937  -0.271838  0  3.983509  0
C  C129  1  0.57188287  0.18232747  0.56754342  1  -0.448018  0  -0.159903  -0.271786  0  3.983511  0
C  C130  1  0.17832420  0.68443339  0.32076225  1  0.729417  0  0.177501  0.345503  0  4.16678  0
C  C131  1  0.82166620  0.31556679  0.67924259  1  0.729208  0  0.177511  0.345479  0  4.166717  0
C  C132  1  0.65073627  0.96002600  0.38585316  1  -0.556472  0  -0.029521  -0.074773  0  3.979431  0
C  C133  1  0.34926686  0.03997224  0.61414804  1  -0.55709  0  -0.029556  -0.074745  0  3.979449  0
C  C134  1  0.54571836  0.99678166  0.35081279  1  -0.015136  0  -0.085825  -0.087665  0  3.971131  0
C  C135  1  0.45428659  0.00322164  0.64918942  1  -0.015209  0  -0.085807  -0.087674  0  3.971151  0
C  C136  1  0.57765689  0.07185798  0.30869114  1  -0.063781  0  -0.093442  -0.084819  0  4.024448  0
C  C137  1  0.42235296  0.92814523  0.69131115  1  -0.063893  0  -0.093447  -0.084905  0  4.024273  0
C  C138  1  0.71290170  0.10929740  0.30003356  1  -0.022836  0  -0.08902  -0.080538  0  4.00313  0
C  C139  1  0.28710240  0.89069913  0.69996418  1  -0.022167  0  -0.088998  -0.080409  0  4.003184  0
C  C140  1  0.81701741  0.07180098  0.33370305  1  -0.01205  0  -0.087354  -0.069016  0  3.973834  0
C  C141  1  0.18298982  0.92819040  0.66629629  1  -0.012421  0  -0.087308  -0.068996  0  3.974148  0
C  C142  1  0.78636251  0.99735482  0.37646684  1  -0.070426  0  -0.081876  -0.075278  0  3.945074  0
C  C143  1  0.21363738  0.00263585  0.62353183  1  -0.069782  0  -0.081911  -0.075314  0  3.945253  0
C  C144  1  0.72898602  0.92891804  0.56210919  1  -0.511271  0  -0.026628  -0.05846  0  3.965039  0
C  C145  1  0.27100041  0.07108221  0.43789318  1  -0.510943  0  -0.026665  -0.058342  0  3.965075  0
C  C146  1  0.83205253  0.04058081  0.60407239  1  -0.138021  0  -0.082028  -0.085222  0  3.940391  0
C  C147  1  0.16793232  0.95942371  0.39593090  1  -0.138489  0  -0.081942  -0.085196  0  3.940509  0
C  C148  1  0.91837797  0.09025444  0.70092614  1  0.021148  0  -0.081347  -0.065243  0  3.957161  0
C  C149  1  0.08160695  0.90974669  0.29907499  1  0.021405  0  -0.081407  -0.065346  0  3.957425  0
C  C150  1  0.90254778  0.02902736  0.75623465  1  -0.086468  0  -0.085519  -0.074301  0  4.000014  0
C  C151  1  0.09744449  0.97097448  0.24376841  1  -0.086942  0  -0.08554  -0.074319  0  4.000198  0
C  C152  1  0.80050592  0.91726070  0.71461994  1  -0.061416  0  -0.089894  -0.084565  0  4.013091  0
C  C153  1  0.19948155  0.08273613  0.28537915  1  -0.060947  0  -0.089885  -0.084598  0  4.013153  0
C  C154  1  0.71460266  0.86749017  0.61809564  1  0.006899  0  -0.085516  -0.092321  0  3.994262  0
C  C155  1  0.28538624  0.13250919  0.38190623  1  0.006929  0  -0.085483  -0.092302  0  3.9942  0
C  C156  1  0.82371510  0.44413954  0.43773644  1  0.88534  0  0.223214  0.423647  0  3.954579  0
C  C157  1  0.17629124  0.55586119  0.56225647  1  0.884967  0  0.223117  0.423717  0  3.954432  0
C  C158  1  0.78701856  0.37303561  0.48650992  1  -0.013078  0  -0.19918  -0.437244  0  3.9543  0
C  C159  1  0.21298798  0.62695833  0.51348245  1  -0.012866  0  -0.199133  -0.437304  0  3.954345  0
N  N160  1  0.29222152  0.50295863  0.22064281  1  -1.448818  0  -0.276273  -0.227583  0  3.624242  0
N  N161  1  0.70777455  0.49704484  0.77935559  1  -1.44933  0  -0.276213  -0.227695  0  3.624511  0
N  N162  1  0.35405839  0.63747735  0.15319925  1  -1.444343  0  -0.278993  -0.239889  0  3.620237  0
N  N163  1  0.64593964  0.36252607  0.84679880  1  -1.444449  0  -0.278919  -0.239758  0  3.620173  0
N  N164  1  0.05404059  0.65697037  0.30949715  1  -1.309618  0  -0.453562  -0.560119  0  2.940765  0
N  N165  1  0.94596290  0.34303550  0.69050994  1  -1.309319  0  -0.453543  -0.560086  0  2.940505  0
N  N166  1  0.85306890  0.50116762  0.39821231  1  -1.25505  0  -0.381362  -0.492321  0  2.935805  0
N  N167  1  0.14693814  0.49883055  0.60178820  1  -1.254681  0  -0.381329  -0.492388  0  2.935436  0
Cl  Cl168  1  0.89133133  0.77707653  0.44601722  1  -0.649253  0  -0.336852  -0.506787  0  1.299418  0
Cl  Cl169  1  0.10867036  0.22292428  0.55399075  1  -0.649201  0  -0.336837  -0.50675  0  1.29949  0
Cl  Cl170  1  0.64449760  0.54771117  0.22714968  1  -0.645188  0  -0.335439  -0.49904  0  1.26176  0
Cl  Cl171  1  0.35551004  0.45229886  0.77284972  1  -0.645165  0  -0.33543  -0.499026  0  1.261793  0
