# generated using pymatgen
data_H15PbC15S(NO3)2
_symmetry_space_group_name_H-M   'P 1'
_cell_length_a   6.99778230
_cell_length_b   11.47191382
_cell_length_c   11.69539319
_cell_angle_alpha   114.13914730
_cell_angle_beta   92.56113896
_cell_angle_gamma   100.32470475
_symmetry_Int_Tables_number   1
_chemical_formula_structural   H15PbC15S(NO3)2
_chemical_formula_sum   'H30 Pb2 C30 S2 N4 O12'
_cell_volume   835.59845889
_cell_formula_units_Z   2
loop_
 _symmetry_equiv_pos_site_id
 _symmetry_equiv_pos_as_xyz
  1  'x, y, z'
loop_
 _atom_site_type_symbol
 _atom_site_label
 _atom_site_symmetry_multiplicity
 _atom_site_fract_x
 _atom_site_fract_y
 _atom_site_fract_z
 _atom_site_occupancy
 _atom_site_hle17_bader_spin_density
 _atom_site_hle17_ddec_charge
 _atom_site_hle17_ddec_spin_density
 _atom_site_hle17_ddec_sum_bond_order
 _atom_site_hle17_magmom
 _atom_site_hse06_10hf_bader_spin_density
 _atom_site_hse06_10hf_ddec_charge
 _atom_site_hse06_10hf_ddec_spin_density
 _atom_site_hse06_10hf_ddec_sum_bond_order
 _atom_site_hse06_10hf_magmom
 _atom_site_hse06_bader_spin_density
 _atom_site_hse06_ddec_charge
 _atom_site_hse06_ddec_spin_density
 _atom_site_hse06_ddec_sum_bond_order
 _atom_site_hse06_magmom
 _atom_site_pbe_bader_spin_density
 _atom_site_pbe_cm5_charge
 _atom_site_pbe_ddec_charge
 _atom_site_pbe_ddec_spin_density
 _atom_site_pbe_ddec_sum_bond_order
 _atom_site_pbe_magmom
H  H0  1  0.37851127  0.53958613  0.06090790  1  0  0.108835  0  0.953343  0  0  0.118151  0  1.014155  0  0  0.121627  0  1.011844  0  0  0.10731  0.115611  0  1.015917  0
H  H1  1  0.62153420  0.46038954  0.93906286  1  0  0.108541  0  0.953431  0  0  0.117927  0  1.0142  0  0  0.121394  0  1.011908  0  0  0.107248  0.11542  0  1.015921  0
H  H2  1  0.13878095  0.42422731  0.14983116  1  0  0.098457  0  0.958443  0  0  0.107181  0  1.021211  0  0  0.109931  0  1.020507  0  0  0.102717  0.105186  0  1.021844  0
H  H3  1  0.86127828  0.57574631  0.85014848  1  0  0.098491  0  0.95841  0  0  0.107218  0  1.021204  0  0  0.109994  0  1.020425  0  0  0.102718  0.105223  0  1.021836  0
H  H4  1  0.85240456  0.51675459  0.23329204  1  0  0.087827  0  0.974535  0  0  0.097995  0  1.036851  0  0  0.101558  0  1.033855  0  0  0.095325  0.095389  0  1.03915  0
H  H5  1  0.14763381  0.48322994  0.76667960  1  0  0.087802  0  0.974381  0  0  0.097917  0  1.036785  0  0  0.101491  0  1.033781  0  0  0.095229  0.095308  0  1.039085  0
H  H6  1  0.80714749  0.72457811  0.22536782  1  0  0.096651  0  0.960058  0  0  0.106019  0  1.023572  0  0  0.109509  0  1.021673  0  0  0.10282  0.103435  0  1.025136  0
H  H7  1  0.19286300  0.27537140  0.77455223  1  0  0.096698  0  0.960079  0  0  0.105993  0  1.023689  0  0  0.109482  0  1.021788  0  0  0.10283  0.103451  0  1.025209  0
H  H8  1  0.73388746  0.77221392  0.84868416  1  0  0.091369  0  0.954516  0  0  0.096582  0  1.024066  0  0  0.099513  0  1.021127  0  0  0.120265  0.094404  0  1.026239  0
H  H9  1  0.26606281  0.22772269  0.15132255  1  0  0.091318  0  0.954703  0  0  0.096616  0  1.024149  0  0  0.099544  0  1.0212  0  0  0.120326  0.094445  0  1.02633  0
H  H10  1  0.44237894  0.61651198  0.71437572  1  0  0.119917  0  0.985085  0  0  0.127822  0  1.047872  0  0  0.131591  0  1.045772  0  0  0.108069  0.125106  0  1.049534  0
H  H11  1  0.55755117  0.38356447  0.28552312  1  0  0.120002  0  0.984985  0  0  0.127968  0  1.047746  0  0  0.131738  0  1.045648  0  0  0.108123  0.125237  0  1.049445  0
H  H12  1  0.79248092  0.51327809  0.40429085  1  0  0.100924  0  0.978448  0  0  0.112765  0  1.038539  0  0  0.115526  0  1.037698  0  0  0.107602  0.110816  0  1.039213  0
H  H13  1  0.20763163  0.48679241  0.59570619  1  0  0.100628  0  0.978929  0  0  0.112546  0  1.038936  0  0  0.115307  0  1.038098  0  0  0.107546  0.110607  0  1.039577  0
H  H14  1  0.06774138  0.68467296  0.55318748  1  0  0.082376  0  0.962743  0  0  0.088475  0  1.031041  0  0  0.091924  0  1.027733  0  0  0.114405  0.085963  0  1.033439  0
H  H15  1  0.93241888  0.31528012  0.44693225  1  0  0.082376  0  0.962609  0  0  0.088444  0  1.031007  0  0  0.091917  0  1.027625  0  0  0.114493  0.08593  0  1.033415  0
H  H16  1  0.62041395  0.96664166  0.70568028  1  0  0.055512  0  0.945287  0  0  0.063134  0  1.017096  0  0  0.064747  0  1.012507  0  0  0.122505  0.061765  0  1.020468  0
H  H17  1  0.37957944  0.03333891  0.29433837  1  0  0.055687  0  0.945398  0  0  0.063381  0  1.017104  0  0  0.064927  0  1.012586  0  0  0.122638  0.06201  0  1.020482  0
H  H18  1  0.51581020  0.68509105  0.34840936  1  0  0.093942  0  0.93356  0  0  0.117307  0  0.993898  0  0  0.116694  0  0.995559  0  0  0.102947  0.117677  0  0.992758  0
H  H19  1  0.48421824  0.31497366  0.65163992  1  0  0.094081  0  0.933804  0  0  0.117574  0  0.99396  0  0  0.116968  0  0.995607  0  0  0.10293  0.117941  0  0.992826  0
H  H20  1  0.42351467  0.81351769  0.33338916  1  0  0.097572  0  0.944265  0  0  0.118131  0  1.008555  0  0  0.11746  0  1.010271  0  0  0.103266  0.118483  0  1.007451  0
H  H21  1  0.57652789  0.18648949  0.66655756  1  0  0.097988  0  0.944092  0  0  0.118563  0  1.008342  0  0  0.117889  0  1.01006  0  0  0.103485  0.118916  0  1.007237  0
H  H22  1  0.30518934  0.73163969  0.42086233  1  0  0.107144  0  0.952915  0  0  0.12393  0  1.019798  0  0  0.125469  0  1.019065  0  0  0.106934  0.122698  0  1.02048  0
H  H23  1  0.69474533  0.26840517  0.57907852  1  0  0.107111  0  0.953443  0  0  0.123966  0  1.02023  0  0  0.125473  0  1.019534  0  0  0.106906  0.122742  0  1.0209  0
H  H24  1  0.84918145  0.98624901  0.59135303  1  0  0.1222  0  0.973408  0  0  0.138322  0  1.039511  0  0  0.140418  0  1.038452  0  0  0.107734  0.136689  0  1.040394  0
H  H25  1  0.15077374  0.01377685  0.40866007  1  0  0.122156  0  0.973415  0  0  0.138234  0  1.039562  0  0  0.14033  0  1.038503  0  0  0.107727  0.136607  0  1.04043  0
H  H26  1  0.75958184  0.97036328  0.43742323  1  0  0.107872  0  0.937812  0  0  0.127368  0  0.99941  0  0  0.128415  0  0.999086  0  0  0.103966  0.126511  0  0.99975  0
H  H27  1  0.24042681  0.02965165  0.56257721  1  0  0.107848  0  0.937849  0  0  0.127306  0  0.999436  0  0  0.128367  0  0.999095  0  0  0.103932  0.126449  0  0.999775  0
H  H28  1  0.84783184  0.84107055  0.45325026  1  0  0.093338  0  0.941037  0  0  0.113079  0  1.006526  0  0  0.113228  0  1.007382  0  0  0.100234  0.112885  0  1.006001  0
H  H29  1  0.15206108  0.15892604  0.54677697  1  0  0.093575  0  0.941208  0  0  0.113175  0  1.00675  0  0  0.113342  0  1.007588  0  0  0.100304  0.112956  0  1.006254  0
Pb  Pb30  1  0.20552071  0.92370603  0.86237249  1  0  1.361837  0  1.390431  0  0  1.179256  0  1.783701  0  0  1.239476  0  1.739635  0  0  0.658969  1.135668  0  1.814526  0
Pb  Pb31  1  0.79445582  0.07640724  0.13784501  1  0  1.361915  0  1.390503  0  0  1.179354  0  1.783783  0  0  1.239568  0  1.73972  0  0  0.659085  1.13578  0  1.814603  0
C  C32  1  0.00828959  0.86442504  0.12662248  1  0  0.674381  0  3.900164  0  0  0.617728  0  4.202164  0  0  0.65355  0  4.193022  0  0  0.214424  0.593324  0  4.2075  0
C  C33  1  0.99162225  0.13553927  0.87336384  1  0  0.673983  0  3.900889  0  0  0.617707  0  4.202308  0  0  0.653531  0  4.193169  0  0  0.214443  0.593312  0  4.207648  0
C  C34  1  0.06213474  0.74673335  0.13518803  1  0  -0.044507  0  3.705579  0  0  -0.030514  0  3.939627  0  0  -0.03359  0  3.958443  0  0  -0.007987  -0.028634  0  3.927187  0
C  C35  1  0.93785331  0.25322106  0.86475062  1  0  -0.04416  0  3.705345  0  0  -0.030399  0  3.93916  0  0  -0.033517  0  3.95799  0  0  -0.007976  -0.028512  0  3.926741  0
C  C36  1  0.22321785  0.69322956  0.08854651  1  0  -0.138694  0  3.71686  0  0  -0.119039  0  3.958488  0  0  -0.125022  0  3.979649  0  0  -0.017429  -0.11524  0  3.944591  0
C  C37  1  0.77678442  0.30673258  0.91141098  1  0  -0.139191  0  3.717141  0  0  -0.119036  0  3.958142  0  0  -0.124927  0  3.979186  0  0  -0.017513  -0.115276  0  3.944298  0
C  C38  1  0.25250389  0.57934402  0.09707005  1  0  -0.067114  0  3.748775  0  0  -0.088511  0  3.993829  0  0  -0.088981  0  4.014276  0  0  -0.082265  -0.08804  0  3.980068  0
C  C39  1  0.74752321  0.42062390  0.90289204  1  0  -0.06695  0  3.748556  0  0  -0.088544  0  3.993578  0  0  -0.08904  0  4.014015  0  0  -0.082266  -0.088085  0  3.979806  0
C  C40  1  0.11976124  0.51614788  0.14946479  1  0  -0.046555  0  3.72922  0  0  -0.061145  0  3.980917  0  0  -0.062642  0  4.001546  0  0  -0.084943  -0.060149  0  3.966941  0
C  C41  1  0.88027246  0.48381414  0.85049335  1  0  -0.046391  0  3.728585  0  0  -0.061029  0  3.980339  0  0  -0.062522  0  4.000988  0  0  -0.084969  -0.060033  0  3.966367  0
C  C42  1  0.96039088  0.56915820  0.19721574  1  0  -0.065338  0  3.764499  0  0  -0.082794  0  4.020553  0  0  -0.083226  0  4.039164  0  0  -0.091496  -0.0824  0  4.007905  0
C  C43  1  0.03963736  0.43080485  0.80273756  1  0  -0.065427  0  3.764179  0  0  -0.082838  0  4.020229  0  0  -0.083291  0  4.038851  0  0  -0.091431  -0.082449  0  4.007606  0
C  C44  1  0.93378581  0.68416317  0.19173608  1  0  -0.0733  0  3.727219  0  0  -0.095736  0  3.976359  0  0  -0.097092  0  3.995328  0  0  -0.084864  -0.094765  0  3.963605  0
C  C45  1  0.06621825  0.31577946  0.80819131  1  0  -0.073184  0  3.726909  0  0  -0.095607  0  3.976131  0  0  -0.096956  0  3.995114  0  0  -0.084708  -0.094678  0  3.963373  0
C  C46  1  0.73956659  0.71561874  0.74838003  1  0  0.12916  0  3.702397  0  0  0.100294  0  3.956328  0  0  0.1071  0  3.974119  0  0  0.054685  0.095866  0  3.944253  0
C  C47  1  0.26043981  0.28435398  0.25162717  1  0  0.128777  0  3.702798  0  0  0.099847  0  3.956789  0  0  0.106667  0  3.974573  0  0  0.054579  0.095403  0  3.944718  0
C  C48  1  0.57540657  0.62433368  0.67091097  1  0  -0.149993  0  3.677582  0  0  -0.169489  0  3.924066  0  0  -0.176673  0  3.944344  0  0  -0.078416  -0.164877  0  3.910559  0
C  C49  1  0.42459411  0.37569814  0.32904483  1  0  -0.149778  0  3.677238  0  0  -0.169374  0  3.923675  0  0  -0.176566  0  3.943944  0  0  -0.078367  -0.164753  0  3.910173  0
C  C50  1  0.58624477  0.54861066  0.54304340  1  0  0.093713  0  3.739726  0  0  0.106592  0  3.96794  0  0  0.110461  0  3.989424  0  0  0.012964  0.104154  0  3.953271  0
C  C51  1  0.41381055  0.45143465  0.45692507  1  0  0.093342  0  3.739788  0  0  0.106388  0  3.967927  0  0  0.110289  0  3.989379  0  0  0.01303  0.103926  0  3.95327  0
C  C52  1  0.76910990  0.56975781  0.50108846  1  0  -0.163371  0  3.709287  0  0  -0.182301  0  3.955821  0  0  -0.189744  0  3.977693  0  0  -0.0819  -0.177357  0  3.940957  0
C  C53  1  0.23098120  0.43027742  0.49891432  1  0  -0.163161  0  3.709947  0  0  -0.182215  0  3.956438  0  0  -0.18967  0  3.978305  0  0  -0.081835  -0.177256  0  3.941579  0
C  C54  1  0.92555666  0.66444046  0.58400552  1  0  0.120729  0  3.72688  0  0  0.093304  0  3.978015  0  0  0.09978  0  3.996835  0  0  0.047343  0.089146  0  3.965053  0
C  C55  1  0.07454567  0.33553463  0.41605775  1  0  0.120979  0  3.727335  0  0  0.093557  0  3.978418  0  0  0.100047  0  3.997251  0  0  0.047422  0.089393  0  3.965447  0
C  C56  1  0.51113777  0.89417537  0.62611782  1  0  0.386881  0  3.810949  0  0  0.310465  0  4.101323  0  0  0.339368  0  4.102305  0  0  0.17267  0.291156  0  4.099966  0
C  C57  1  0.48880034  0.10584558  0.37391344  1  0  0.386295  0  3.810888  0  0  0.309918  0  4.101166  0  0  0.338871  0  4.10216  0  0  0.172589  0.290609  0  4.099802  0
C  C58  1  0.44661632  0.76776972  0.39755141  1  0  -0.167151  0  3.664193  0  0  -0.270471  0  3.913449  0  0  -0.266695  0  3.925151  0  0  -0.13571  -0.272776  0  3.905498  0
C  C59  1  0.55336048  0.23228361  0.60244510  1  0  -0.168018  0  3.664674  0  0  -0.271501  0  3.913854  0  0  -0.267699  0  3.925584  0  0  -0.13591  -0.273811  0  3.905908  0
C  C60  1  0.76794827  0.91903294  0.49829011  1  0  -0.18572  0  3.640625  0  0  -0.285837  0  3.888005  0  0  -0.283104  0  3.898236  0  0  -0.138474  -0.287362  0  3.881055  0
C  C61  1  0.23199413  0.08099295  0.50172785  1  0  -0.186103  0  3.640534  0  0  -0.285909  0  3.88775  0  0  -0.2832  0  3.897948  0  0  -0.138483  -0.287415  0  3.880821  0
S  S62  1  0.39900967  0.76227715  0.01457241  1  0  1.287697  0  5.666818  0  0  1.191262  0  6.18459  0  0  1.240613  0  6.161573  0  0  0.507981  1.157112  0  6.199261  0
S  S63  1  0.60100658  0.23770442  0.98542063  1  0  1.287944  0  5.6664  0  0  1.191364  0  6.184122  0  0  1.240695  0  6.161089  0  0  0.508059  1.157226  0  6.198795  0
N  N64  1  0.91210549  0.73703522  0.70614716  1  0  -0.327464  0  3.17371  0  0  -0.253784  0  3.424501  0  0  -0.273099  0  3.44481  0  0  -0.291893  -0.240421  0  3.410292  0
N  N65  1  0.08796045  0.26291154  0.29391835  1  0  -0.327296  0  3.174399  0  0  -0.253575  0  3.425168  0  0  -0.272902  0  3.445475  0  0  -0.292014  -0.240205  0  3.410958  0
N  N66  1  0.57207832  0.86197779  0.51246016  1  0  -0.090139  0  3.511212  0  0  0.014969  0  3.746121  0  0  -0.005576  0  3.772001  0  0  -0.282171  0.028718  0  3.728196  0
N  N67  1  0.42782719  0.13809730  0.48755474  1  0  -0.089197  0  3.510765  0  0  0.01573  0  3.745709  0  0  -0.00481  0  3.771569  0  0  -0.282091  0.029477  0  3.727781  0
O  O68  1  0.98917639  0.87057313  0.02045803  1  0  -0.700631  0  2.034536  0  0  -0.629556  0  2.281886  0  0  -0.662155  0  2.27445  0  0  -0.30274  -0.606409  0  2.286157  0
O  O69  1  0.01057437  0.12939660  0.97953981  1  0  -0.70062  0  2.035152  0  0  -0.629787  0  2.282522  0  0  -0.662397  0  2.275092  0  0  -0.302654  -0.606602  0  2.286705  0
O  O70  1  0.97060218  0.95039707  0.22872594  1  0  -0.64778  0  1.955056  0  0  -0.585404  0  2.191393  0  0  -0.614297  0  2.183639  0  0  -0.30176  -0.565039  0  2.195987  0
O  O71  1  0.02939824  0.04955203  0.77130318  1  0  -0.647821  0  1.955082  0  0  -0.585574  0  2.191215  0  0  -0.614464  0  2.183469  0  0  -0.301945  -0.565189  0  2.19575  0
O  O72  1  0.30933225  0.71703810  0.88191596  1  0  -0.699494  0  1.98341  0  0  -0.639222  0  2.239156  0  0  -0.663976  0  2.22615  0  0  -0.331895  -0.621515  0  2.247437  0
O  O73  1  0.69071991  0.28296591  0.11807587  1  0  -0.69961  0  1.983354  0  0  -0.639387  0  2.239224  0  0  -0.664149  0  2.226222  0  0  -0.331998  -0.621675  0  2.247502  0
O  O74  1  0.57532401  0.71430996  0.02404484  1  0  -0.631991  0  1.940337  0  0  -0.586176  0  2.186684  0  0  -0.607492  0  2.174994  0  0  -0.330927  -0.571092  0  2.194127  0
O  O75  1  0.42472684  0.28571558  0.97596510  1  0  -0.632064  0  1.940093  0  0  -0.586265  0  2.18648  0  0  -0.607566  0  2.174762  0  0  -0.330942  -0.57119  0  2.193922  0
O  O76  1  0.42695472  0.90679991  0.08392604  1  0  -0.75373  0  2.019113  0  0  -0.687688  0  2.275354  0  0  -0.714678  0  2.264153  0  0  -0.336085  -0.66851  0  2.282554  0
O  O77  1  0.57296577  0.09317598  0.91610194  1  0  -0.75359  0  2.019127  0  0  -0.687501  0  2.275281  0  0  -0.714494  0  2.264098  0  0  -0.33605  -0.668331  0  2.28248  0
O  O78  1  0.34375926  0.84780040  0.64354212  1  0  -0.565225  0  2.040026  0  0  -0.502372  0  2.288139  0  0  -0.529846  0  2.282987  0  0  -0.294372  -0.483114  0  2.290939  0
O  O79  1  0.65621611  0.15222812  0.35652296  1  0  -0.56511  0  2.0401  0  0  -0.502241  0  2.288268  0  0  -0.529735  0  2.28309  0  0  -0.294302  -0.482974  0  2.291073  0
