# generated using pymatgen
data_KH5C7SO
_symmetry_space_group_name_H-M   'P 1'
_cell_length_a   4.03000090
_cell_length_b   11.77380086
_cell_length_c   15.67409870
_cell_angle_alpha   97.55822799
_cell_angle_beta   97.39453790
_cell_angle_gamma   90.03378676
_symmetry_Int_Tables_number   1
_chemical_formula_structural   KH5C7SO
_chemical_formula_sum   'K4 H20 C28 S4 O4'
_cell_volume   731.00227898
_cell_formula_units_Z   4
loop_
 _symmetry_equiv_pos_site_id
 _symmetry_equiv_pos_as_xyz
  1  'x, y, z'
loop_
 _atom_site_type_symbol
 _atom_site_label
 _atom_site_symmetry_multiplicity
 _atom_site_fract_x
 _atom_site_fract_y
 _atom_site_fract_z
 _atom_site_occupancy
 _atom_site_hle17_bader_spin_density
 _atom_site_hle17_ddec_charge
 _atom_site_hle17_ddec_spin_density
 _atom_site_hle17_ddec_sum_bond_order
 _atom_site_hle17_magmom
 _atom_site_hse06_10hf_bader_spin_density
 _atom_site_hse06_10hf_ddec_charge
 _atom_site_hse06_10hf_ddec_spin_density
 _atom_site_hse06_10hf_ddec_sum_bond_order
 _atom_site_hse06_10hf_magmom
 _atom_site_hse06_bader_spin_density
 _atom_site_hse06_ddec_charge
 _atom_site_hse06_ddec_spin_density
 _atom_site_hse06_ddec_sum_bond_order
 _atom_site_hse06_magmom
 _atom_site_pbe_bader_spin_density
 _atom_site_pbe_cm5_charge
 _atom_site_pbe_ddec_charge
 _atom_site_pbe_ddec_spin_density
 _atom_site_pbe_ddec_sum_bond_order
 _atom_site_pbe_magmom
K  K0  1  0.17881592  0.63234899  0.07827270  1  0  0.875533  0  0.55836  0  0  0.814818  0  0.771793  0  0  0.828792  0  0.752637  0  0  0.634204  0.804251  0  0.785633  0
K  K1  1  0.90007514  0.13238604  0.07829461  1  0  0.875851  0  0.559335  0  0  0.815356  0  0.772611  0  0  0.829315  0  0.753461  0  0  0.635449  0.804782  0  0.786439  0
K  K2  1  0.82119226  0.36765363  0.92172478  1  0  0.875541  0  0.55833  0  0  0.814815  0  0.771781  0  0  0.828789  0  0.752624  0  0  0.634207  0.804249  0  0.785623  0
K  K3  1  0.09990518  0.86761057  0.92170389  1  0  0.875861  0  0.559309  0  0  0.815366  0  0.772594  0  0  0.82932  0  0.753448  0  0  0.635447  0.804797  0  0.786422  0
H  H4  1  0.69471452  0.73999709  0.23056923  1  0  0.091918  0  0.996783  0  0  0.098289  0  1.067217  0  0  0.102062  0  1.064462  0  0  0.098074  0.095567  0  1.069183  0
H  H5  1  0.53700641  0.23981894  0.23077924  1  0  0.092701  0  0.996106  0  0  0.098818  0  1.06665  0  0  0.102616  0  1.063896  0  0  0.098483  0.096099  0  1.068621  0
H  H6  1  0.30529614  0.26000553  0.76943025  1  0  0.091906  0  0.996849  0  0  0.098277  0  1.067279  0  0  0.102045  0  1.064532  0  0  0.09806  0.095556  0  1.069242  0
H  H7  1  0.46297167  0.76018281  0.76921969  1  0  0.092637  0  0.996157  0  0  0.098758  0  1.066705  0  0  0.102575  0  1.063903  0  0  0.098479  0.096039  0  1.068676  0
H  H8  1  0.60267833  0.67921164  0.37080375  1  0  0.083111  0  0.960324  0  0  0.094904  0  1.021347  0  0  0.097402  0  1.020909  0  0  0.098319  0.093102  0  1.021781  0
H  H9  1  0.76992335  0.17911332  0.37100868  1  0  0.082929  0  0.960653  0  0  0.094833  0  1.021514  0  0  0.09732  0  1.021111  0  0  0.098406  0.093018  0  1.021977  0
H  H10  1  0.39734228  0.32079012  0.62919726  1  0  0.083169  0  0.960264  0  0  0.094902  0  1.021348  0  0  0.097396  0  1.020921  0  0  0.09832  0.0931  0  1.021782  0
H  H11  1  0.23005463  0.82088672  0.62899072  1  0  0.082906  0  0.960782  0  0  0.094864  0  1.021572  0  0  0.097352  0  1.02117  0  0  0.09841  0.093049  0  1.022036  0
H  H12  1  0.33161824  0.81179822  0.47860502  1  0  0.077416  0  0.967911  0  0  0.089022  0  1.031208  0  0  0.091379  0  1.030211  0  0  0.09653  0.087331  0  1.03194  0
H  H13  1  0.14842538  0.31192151  0.47883696  1  0  0.078305  0  0.967686  0  0  0.089912  0  1.030918  0  0  0.09229  0  1.029849  0  0  0.096765  0.088204  0  1.031696  0
H  H14  1  0.66840725  0.18820097  0.52139526  1  0  0.077366  0  0.967903  0  0  0.088977  0  1.031205  0  0  0.091337  0  1.0302  0  0  0.096508  0.087284  0  1.031939  0
H  H15  1  0.85156514  0.68807853  0.52116094  1  0  0.078288  0  0.967697  0  0  0.089902  0  1.030925  0  0  0.09228  0  1.029857  0  0  0.096776  0.088195  0  1.031703  0
H  H16  1  0.15188900  0.00438325  0.44305893  1  0  0.081108  0  0.962747  0  0  0.093531  0  1.022063  0  0  0.095869  0  1.021963  0  0  0.096187  0.091845  0  1.02225  0
H  H17  1  0.29145895  0.50474672  0.44343559  1  0  0.079771  0  0.964235  0  0  0.092986  0  1.022848  0  0  0.095293  0  1.022825  0  0  0.096326  0.091284  0  1.023038  0
H  H18  1  0.84813157  0.99561851  0.55694527  1  0  0.08112  0  0.9628  0  0  0.093555  0  1.022092  0  0  0.095896  0  1.021991  0  0  0.096191  0.091857  0  1.022293  0
H  H19  1  0.70854641  0.49524989  0.55656248  1  0  0.079735  0  0.964181  0  0  0.092883  0  1.02287  0  0  0.095246  0  1.022782  0  0  0.096314  0.091178  0  1.023061  0
H  H20  1  0.23638606  0.06284445  0.30021158  1  0  0.095858  0  0.959186  0  0  0.104719  0  1.024406  0  0  0.108086  0  1.022423  0  0  0.104545  0.102284  0  1.02587  0
H  H21  1  0.06386020  0.56307974  0.30052198  1  0  0.095746  0  0.959764  0  0  0.104993  0  1.024483  0  0  0.108258  0  1.022633  0  0  0.104372  0.102559  0  1.025943  0
H  H22  1  0.76362956  0.93715816  0.69979126  1  0  0.095855  0  0.959237  0  0  0.10472  0  1.024446  0  0  0.108086  0  1.022467  0  0  0.10455  0.102287  0  1.02591  0
H  H23  1  0.93614026  0.43691945  0.69947809  1  0  0.095739  0  0.959761  0  0  0.105009  0  1.024454  0  0  0.108273  0  1.022601  0  0  0.104379  0.102575  0  1.025911  0
C  C24  1  0.46842396  0.90515529  0.25580583  1  0  -0.020729  0  3.733509  0  0  0.003425  0  3.96013  0  0  -0.004673  0  3.984838  0  0  -0.014627  0.008479  0  3.943691  0
C  C25  1  0.78803527  0.40518322  0.25605480  1  0  -0.020481  0  3.734278  0  0  0.003647  0  3.960987  0  0  -0.004279  0  3.985381  0  0  -0.013565  0.008699  0  3.944579  0
C  C26  1  0.53156929  0.09484903  0.74419132  1  0  -0.020936  0  3.733979  0  0  0.003283  0  3.96053  0  0  -0.004828  0  3.985247  0  0  -0.014564  0.008337  0  3.944089  0
C  C27  1  0.21196035  0.59481939  0.74394545  1  0  -0.020531  0  3.734354  0  0  0.003591  0  3.961035  0  0  -0.004338  0  3.985444  0  0  -0.013563  0.008645  0  3.944624  0
C  C28  1  0.57138169  0.79730821  0.27656844  1  0  -0.079843  0  3.72547  0  0  -0.099587  0  3.965057  0  0  -0.099521  0  3.986408  0  0  -0.083034  -0.099287  0  3.950478  0
C  C29  1  0.70647093  0.29721324  0.27675249  1  0  -0.079996  0  3.725235  0  0  -0.099268  0  3.964465  0  0  -0.09929  0  3.985874  0  0  -0.083094  -0.098957  0  3.949866  0
C  C30  1  0.42861639  0.20269354  0.72343244  1  0  -0.079783  0  3.725644  0  0  -0.099549  0  3.965197  0  0  -0.099472  0  3.986544  0  0  -0.083027  -0.099246  0  3.950612  0
C  C31  1  0.29351206  0.70278680  0.72324644  1  0  -0.079955  0  3.725428  0  0  -0.099306  0  3.964776  0  0  -0.099321  0  3.986193  0  0  -0.083104  -0.098995  0  3.950179  0
C  C32  1  0.52093577  0.76371028  0.35607616  1  0  -0.07911  0  3.776205  0  0  -0.088804  0  4.022962  0  0  -0.092666  0  4.045054  0  0  -0.090933  -0.086266  0  4.007932  0
C  C33  1  0.83662217  0.26368291  0.35628372  1  0  -0.079243  0  3.776478  0  0  -0.088988  0  4.023189  0  0  -0.092864  0  4.045298  0  0  -0.091481  -0.086452  0  4.008166  0
C  C34  1  0.47907220  0.23628890  0.64392353  1  0  -0.079152  0  3.776216  0  0  -0.088799  0  4.022983  0  0  -0.092661  0  4.045071  0  0  -0.090942  -0.086263  0  4.007951  0
C  C35  1  0.16336092  0.73631970  0.64371802  1  0  -0.079178  0  3.776489  0  0  -0.088946  0  4.023163  0  0  -0.092826  0  4.045276  0  0  -0.091468  -0.08641  0  4.008142  0
C  C36  1  0.37078597  0.83797396  0.41636585  1  0  -0.066002  0  3.776537  0  0  -0.081034  0  4.025029  0  0  -0.0813  0  4.046505  0  0  -0.0902  -0.080582  0  4.010266  0
C  C37  1  0.04693707  0.33808370  0.41660484  1  0  -0.067779  0  3.777141  0  0  -0.082964  0  4.025994  0  0  -0.083208  0  4.047445  0  0  -0.089802  -0.082513  0  4.011228  0
C  C38  1  0.62922450  0.16202523  0.58363457  1  0  -0.065915  0  3.776548  0  0  -0.080948  0  4.025024  0  0  -0.081214  0  4.046502  0  0  -0.090138  -0.080494  0  4.010254  0
C  C39  1  0.95305088  0.66191549  0.58339417  1  0  -0.067808  0  3.777077  0  0  -0.083005  0  4.025917  0  0  -0.083254  0  4.047387  0  0  -0.089839  -0.082552  0  4.01115  0
C  C40  1  0.27008904  0.94613137  0.39649569  1  0  -0.081295  0  3.795548  0  0  -0.09257  0  4.046091  0  0  -0.096692  0  4.069619  0  0  -0.092937  -0.089808  0  4.03002  0
C  C41  1  0.12711897  0.44634305  0.39679855  1  0  -0.078518  0  3.795853  0  0  -0.090587  0  4.046771  0  0  -0.094709  0  4.070254  0  0  -0.094156  -0.087802  0  4.030751  0
C  C42  1  0.72991895  0.05386868  0.60350664  1  0  -0.081333  0  3.795695  0  0  -0.092623  0  4.046249  0  0  -0.096749  0  4.069779  0  0  -0.092999  -0.089853  0  4.030182  0
C  C43  1  0.87288153  0.55365699  0.60320161  1  0  -0.07853  0  3.795864  0  0  -0.090535  0  4.046781  0  0  -0.094702  0  4.070247  0  0  -0.094185  -0.087747  0  4.030759  0
C  C44  1  0.31742170  0.97927642  0.31683992  1  0  -0.070432  0  3.712206  0  0  -0.09349  0  3.95873  0  0  -0.093223  0  3.979206  0  0  -0.080949  -0.093442  0  3.944766  0
C  C45  1  0.99997473  0.47944060  0.31712822  1  0  -0.072124  0  3.711768  0  0  -0.0953  0  3.958262  0  0  -0.094997  0  3.978809  0  0  -0.081253  -0.095246  0  3.944292  0
C  C46  1  0.68258129  0.02072363  0.68316160  1  0  -0.070401  0  3.71248  0  0  -0.093479  0  3.958996  0  0  -0.09321  0  3.979475  0  0  -0.080971  -0.093431  0  3.94503  0
C  C47  1  0.00002083  0.52056030  0.68287058  1  0  -0.072034  0  3.711788  0  0  -0.095216  0  3.958241  0  0  -0.094912  0  3.978805  0  0  -0.081198  -0.095158  0  3.944263  0
C  C48  1  0.51357846  0.94618160  0.17139349  1  0  0.448535  0  3.812601  0  0  0.429876  0  4.093707  0  0  0.457726  0  4.093651  0  0  0.125001  0.411134  0  4.092767  0
C  C49  1  0.65815382  0.44622738  0.17164920  1  0  0.44842  0  3.813259  0  0  0.429081  0  4.09543  0  0  0.45687  0  4.095473  0  0  0.12448  0.410329  0  4.094489  0
C  C50  1  0.48641943  0.05381673  0.82860833  1  0  0.448626  0  3.812587  0  0  0.429944  0  4.093693  0  0  0.4578  0  4.09363  0  0  0.125018  0.4112  0  4.092754  0
C  C51  1  0.34183902  0.55376924  0.82834845  1  0  0.448437  0  3.813261  0  0  0.429177  0  4.09531  0  0  0.456939  0  4.095394  0  0  0.124552  0.410421  0  4.094371  0
S  S52  1  0.67294899  0.85587934  0.09068061  1  0  -0.72443  0  1.964665  0  0  -0.699517  0  2.30214  0  0  -0.718003  0  2.293125  0  0  -0.33931  -0.686291  0  2.308064  0
S  S53  1  0.41814619  0.35588601  0.09088004  1  0  -0.724494  0  1.965172  0  0  -0.699523  0  2.303479  0  0  -0.718025  0  2.294511  0  0  -0.338732  -0.686274  0  2.309404  0
S  S54  1  0.32705139  0.14411899  0.90932193  1  0  -0.724429  0  1.964663  0  0  -0.69951  0  2.302146  0  0  -0.717994  0  2.293122  0  0  -0.339307  -0.686282  0  2.308067  0
S  S55  1  0.58185917  0.64411147  0.90912067  1  0  -0.724546  0  1.964981  0  0  -0.69959  0  2.30324  0  0  -0.718085  0  2.294281  0  0  -0.338794  -0.686336  0  2.309167  0
O  O56  1  0.43089795  0.04721773  0.16152909  1  0  -0.63176  0  2.049362  0  0  -0.573818  0  2.29038  0  0  -0.595451  0  2.283237  0  0  -0.462087  -0.558521  0  2.294558  0
O  O57  1  0.73083341  0.54733296  0.16187133  1  0  -0.63096  0  2.047735  0  0  -0.572745  0  2.289012  0  0  -0.594363  0  2.281899  0  0  -0.460973  -0.557504  0  2.293335  0
O  O58  1  0.56910750  0.95278145  0.83847243  1  0  -0.631778  0  2.049355  0  0  -0.573839  0  2.290388  0  0  -0.595473  0  2.283241  0  0  -0.462132  -0.558548  0  2.294578  0
O  O59  1  0.26916214  0.45266794  0.83812811  1  0  -0.630886  0  2.047876  0  0  -0.572698  0  2.28912  0  0  -0.594306  0  2.282018  0  0  -0.46099  -0.557471  0  2.293474  0
