# generated using pymatgen
data_CuH11C8N3
_symmetry_space_group_name_H-M   'P 1'
_cell_length_a   8.85673014
_cell_length_b   10.02002045
_cell_length_c   10.79460663
_cell_angle_alpha   90.00014312
_cell_angle_beta   89.99897622
_cell_angle_gamma   111.13000485
_symmetry_Int_Tables_number   1
_chemical_formula_structural   CuH11C8N3
_chemical_formula_sum   'Cu4 H44 C32 N12'
_cell_volume   893.55446113
_cell_formula_units_Z   4
loop_
 _symmetry_equiv_pos_site_id
 _symmetry_equiv_pos_as_xyz
  1  'x, y, z'
loop_
 _atom_site_type_symbol
 _atom_site_label
 _atom_site_symmetry_multiplicity
 _atom_site_fract_x
 _atom_site_fract_y
 _atom_site_fract_z
 _atom_site_occupancy
 _atom_site_pbe_bader_spin_density
 _atom_site_pbe_cm5_charge
 _atom_site_pbe_ddec_charge
 _atom_site_pbe_ddec_spin_density
 _atom_site_pbe_ddec_sum_bond_order
 _atom_site_pbe_magmom
Cu  Cu0  1  0.21395451  0.23500165  0.34710166  1  0  0.500519  0.314667  0  2.692492  0
Cu  Cu1  1  0.28604032  0.76499428  0.84709399  1  0  0.500579  0.31474  0  2.692751  0
Cu  Cu2  1  0.78604515  0.76499949  0.65290077  1  0  0.50055  0.314665  0  2.69289  0
Cu  Cu3  1  0.71395838  0.23500153  0.15290658  1  0  0.500554  0.314696  0  2.692514  0
H  H4  1  0.39295455  0.48580264  0.77571745  1  0  0.102422  0.14236  0  1.045867  0
H  H5  1  0.10704066  0.51419893  0.27571895  1  0  0.102455  0.142414  0  1.045784  0
H  H6  1  0.60703865  0.51418777  0.22428961  1  0  0.102421  0.14237  0  1.045905  0
H  H7  1  0.89295684  0.48580537  0.72428441  1  0  0.102426  0.142394  0  1.045835  0
H  H8  1  0.35819393  0.08511469  0.82032843  1  0  0.091536  0.119778  0  1.049836  0
H  H9  1  0.14180859  0.91488785  0.32032937  1  0  0.091499  0.119718  0  1.049914  0
H  H10  1  0.64181075  0.91487908  0.17966751  1  0  0.091559  0.119788  0  1.04985  0
H  H11  1  0.85818904  0.08511964  0.67966843  1  0  0.091543  0.119741  0  1.049882  0
H  H12  1  0.42532458  0.24890223  0.90486849  1  0  0.101766  0.153268  0  0.97778  0
H  H13  1  0.07467138  0.75109985  0.40486820  1  0  0.101729  0.153211  0  0.977856  0
H  H14  1  0.57467543  0.75108828  0.09512931  1  0  0.101771  0.153308  0  0.97772  0
H  H15  1  0.92532863  0.24891087  0.59513053  1  0  0.101759  0.153294  0  0.97773  0
H  H16  1  0.55944090  0.20685611  0.80400691  1  0  0.094504  0.13023  0  1.050713  0
H  H17  1  0.94056012  0.79315272  0.30400970  1  0  0.094475  0.130237  0  1.05074  0
H  H18  1  0.44056264  0.79313764  0.19599274  1  0  0.094477  0.130194  0  1.050699  0
H  H19  1  0.05943936  0.20685374  0.69598810  1  0  0.094448  0.130121  0  1.050791  0
H  H20  1  0.14611824  0.48325062  0.48054777  1  0  0.090535  0.122307  0  1.025497  0
H  H21  1  0.35388543  0.51675231  0.98054413  1  0  0.090527  0.122322  0  1.025493  0
H  H22  1  0.85388297  0.51675161  0.51945651  1  0  0.090527  0.122323  0  1.025501  0
H  H23  1  0.64611195  0.48324880  0.01945737  1  0  0.090507  0.122308  0  1.025493  0
H  H24  1  0.35285729  0.58772063  0.45549868  1  0  0.093592  0.134272  0  1.024556  0
H  H25  1  0.14714501  0.41228026  0.95549691  1  0  0.093588  0.134291  0  1.024529  0
H  H26  1  0.64714679  0.41227739  0.54451023  1  0  0.093554  0.134261  0  1.02451  0
H  H27  1  0.85285028  0.58771550  0.04451293  1  0  0.09357  0.134264  0  1.024511  0
H  H28  1  0.25802448  0.60569404  0.59682923  1  0  0.092107  0.135911  0  1.020332  0
H  H29  1  0.24197343  0.39430728  0.09682664  1  0  0.092087  0.13586  0  1.020341  0
H  H30  1  0.74197589  0.39430604  0.40317876  1  0  0.092101  0.135893  0  1.020356  0
H  H31  1  0.75803358  0.60569822  0.90318319  1  0  0.092107  0.135884  0  1.020341  0
H  H32  1  0.25551156  0.03892517  0.47918655  1  0  0.106503  0.079366  0  1.027596  0
H  H33  1  0.24448891  0.96107240  0.97918084  1  0  0.106453  0.079345  0  1.027623  0
H  H34  1  0.74448176  0.96106844  0.52081403  1  0  0.106507  0.079362  0  1.027608  0
H  H35  1  0.75551714  0.03892777  0.02081510  1  0  0.106491  0.079354  0  1.027654  0
H  H36  1  0.28169769  0.99008202  0.63267978  1  0  0.107562  0.093185  0  1.021049  0
H  H37  1  0.21830433  0.00992028  0.13267393  1  0  0.107575  0.09322  0  1.021042  0
H  H38  1  0.71830908  0.00991710  0.36731987  1  0  0.107545  0.093129  0  1.021101  0
H  H39  1  0.78170113  0.99008414  0.86732201  1  0  0.107578  0.093232  0  1.021007  0
H  H40  1  0.55915789  0.15672845  0.45729112  1  0  0.093466  0.093954  0  1.015717  0
H  H41  1  0.94084760  0.84327446  0.95729340  1  0  0.093459  0.093958  0  1.015739  0
H  H42  1  0.44083823  0.84326945  0.54269741  1  0  0.093448  0.093883  0  1.015776  0
H  H43  1  0.05915671  0.15672995  0.04270440  1  0  0.093448  0.093909  0  1.015811  0
H  H44  1  0.58227869  0.09785014  0.60880081  1  0  0.09193  0.090215  0  0.993126  0
H  H45  1  0.91772164  0.90214889  0.10880231  1  0  0.091922  0.090205  0  0.993127  0
H  H46  1  0.41772437  0.90215105  0.39118773  1  0  0.091911  0.0902  0  0.993046  0
H  H47  1  0.08228340  0.09785446  0.89119363  1  0  0.091925  0.090222  0  0.993047  0
C  C48  1  0.38147469  0.27136682  0.71269416  1  0  0.096351  0.197049  0  3.998648  0
C  C49  1  0.11852501  0.72863403  0.21269133  1  0  0.096352  0.19695  0  3.998826  0
C  C50  1  0.61852927  0.72862801  0.28730734  1  0  0.096342  0.19698  0  3.999068  0
C  C51  1  0.88147590  0.27137032  0.78730925  1  0  0.096345  0.196959  0  3.998909  0
C  C52  1  0.36664706  0.40489862  0.70420777  1  0  -0.123124  -0.351344  0  3.958549  0
C  C53  1  0.13335165  0.59511076  0.20420443  1  0  -0.123186  -0.351416  0  3.958743  0
C  C54  1  0.63335290  0.59510040  0.29579559  1  0  -0.123108  -0.35133  0  3.958809  0
C  C55  1  0.86664712  0.40489675  0.79579244  1  0  -0.123105  -0.351351  0  3.95866  0
C  C56  1  0.30974051  0.41372953  0.58384623  1  0  0.094226  0.263639  0  4.029305  0
C  C57  1  0.19025884  0.58627188  0.08384575  1  0  0.094288  0.26373  0  4.029121  0
C  C58  1  0.69025747  0.58626733  0.41615712  1  0  0.094233  0.263638  0  4.029355  0
C  C59  1  0.80973980  0.41373244  0.91615761  1  0  0.094196  0.263582  0  4.029302  0
C  C60  1  0.43350655  0.19943473  0.81584151  1  0  -0.233459  -0.425218  0  3.959732  0
C  C61  1  0.06649279  0.80057098  0.31584330  1  0  -0.233351  -0.425074  0  3.959719  0
C  C62  1  0.56649771  0.80055797  0.18415721  1  0  -0.233448  -0.425206  0  3.959754  0
C  C63  1  0.93350711  0.19943654  0.68415543  1  0  -0.233409  -0.425066  0  3.959661  0
C  C64  1  0.26467434  0.52921609  0.52633556  1  0  -0.2366  -0.425793  0  3.939489  0
C  C65  1  0.23532638  0.47078559  0.02633324  1  0  -0.236575  -0.425796  0  3.939332  0
C  C66  1  0.73532520  0.47078186  0.47367150  1  0  -0.236548  -0.425808  0  3.93948  0
C  C67  1  0.76467441  0.52921557  0.97367289  1  0  -0.236537  -0.42575  0  3.939481  0
C  C68  1  0.33641496  0.06935898  0.55984664  1  0  -0.052464  -0.074323  0  3.888299  0
C  C69  1  0.16358681  0.93064150  0.05984359  1  0  -0.052389  -0.074321  0  3.888411  0
C  C70  1  0.66358117  0.93063892  0.44015115  1  0  -0.052447  -0.074228  0  3.88839  0
C  C71  1  0.83641978  0.06936293  0.94015421  1  0  -0.052478  -0.074367  0  3.888439  0
C  C72  1  0.50458337  0.07211382  0.52594330  1  0  -0.164273  -0.15808  0  3.91306  0
C  C73  1  0.99541863  0.92788773  0.02594558  1  0  -0.164302  -0.15812  0  3.913182  0
C  C74  1  0.49541658  0.92788520  0.47404708  1  0  -0.164251  -0.157974  0  3.913057  0
C  C75  1  0.00458456  0.07211666  0.97405221  1  0  -0.164236  -0.157984  0  3.913104  0
C  C76  1  0.51349516  0.21779909  0.21404968  1  0  -0.062983  -0.142409  0  3.919511  0
C  C77  1  0.98649191  0.78219504  0.71404467  1  0  -0.063066  -0.142565  0  3.919423  0
C  C78  1  0.48649189  0.78219868  0.78593978  1  0  -0.063044  -0.142448  0  3.919452  0
C  C79  1  0.01349495  0.21780804  0.28595590  1  0  -0.063012  -0.142529  0  3.919912  0
N  N80  1  0.33601098  0.20745442  0.60035869  1  0  -0.15557  0.097761  0  3.729857  0
N  N81  1  0.16398684  0.79254689  0.10035719  1  0  -0.155566  0.097837  0  3.729875  0
N  N82  1  0.66398658  0.79254137  0.39964096  1  0  -0.155566  0.097796  0  3.729852  0
N  N83  1  0.83601676  0.20745857  0.89964246  1  0  -0.155541  0.097863  0  3.729932  0
N  N84  1  0.29246173  0.29291434  0.52082124  1  0  -0.284785  -0.265401  0  3.497651  0
N  N85  1  0.20753870  0.70708629  0.02081613  1  0  -0.284834  -0.265463  0  3.497605  0
N  N86  1  0.70753284  0.70708247  0.47918212  1  0  -0.284797  -0.265406  0  3.49769  0
N  N87  1  0.79246634  0.29291706  0.97918445  1  0  -0.284809  -0.265446  0  3.497694  0
N  N88  1  0.39085706  0.21138876  0.26108794  1  0  -0.443752  -0.32537  0  3.671027  0
N  N89  1  0.10914101  0.78859909  0.76108384  1  0  -0.443755  -0.325336  0  3.670649  0
N  N90  1  0.60914230  0.78861451  0.73890985  1  0  -0.443707  -0.325356  0  3.670925  0
N  N91  1  0.89086492  0.21139789  0.23891859  1  0  -0.443774  -0.325337  0  3.671382  0
