# generated using pymatgen
data_CuH6C13NO4F
_symmetry_space_group_name_H-M   'P 1'
_cell_length_a   10.55174017
_cell_length_b   11.05025486
_cell_length_c   14.72858138
_cell_angle_alpha   89.99987733
_cell_angle_beta   108.16130223
_cell_angle_gamma   90.00057914
_symmetry_Int_Tables_number   1
_chemical_formula_structural   CuH6C13NO4F
_chemical_formula_sum   'Cu4 H24 C52 N4 O16 F4'
_cell_volume   1631.79072522
_cell_formula_units_Z   4
loop_
 _symmetry_equiv_pos_site_id
 _symmetry_equiv_pos_as_xyz
  1  'x, y, z'
loop_
 _atom_site_type_symbol
 _atom_site_label
 _atom_site_symmetry_multiplicity
 _atom_site_fract_x
 _atom_site_fract_y
 _atom_site_fract_z
 _atom_site_occupancy
 _atom_site_pbe_bader_charge
 _atom_site_pbe_bader_spin_density
 _atom_site_pbe_cm5_charge
 _atom_site_pbe_ddec_charge
 _atom_site_pbe_ddec_spin_density
 _atom_site_pbe_ddec_sum_bond_order
 _atom_site_pbe_magmom
Cu  Cu0  1  0.59126269  0.08161996  0.01132780  1  1.081729  0.58157  0.688521  0.774073  0.736232  2.389475  0.582
Cu  Cu1  1  0.40872921  0.58162315  0.48867081  1  1.083308  0.581626  0.68853  0.77421  0.736232  2.389212  0.582
Cu  Cu2  1  0.40873404  0.91836489  0.98867357  1  1.083415  0.58164  0.688588  0.774225  0.736232  2.389254  0.582
Cu  Cu3  1  0.59126055  0.41837075  0.51132830  1  1.082009  0.581586  0.688615  0.774248  0.736233  2.389206  0.582
H  H4  1  0.53603450  0.72986971  0.76994654  1  0.131271  0.000503  0.115334  0.131713  0.000361  0.979966  0.0
H  H5  1  0.46396500  0.22986105  0.73005946  1  0.131307  0.000503  0.11534  0.131763  0.000361  0.979934  0.0
H  H6  1  0.46397130  0.27014048  0.23004262  1  0.131  0.000503  0.115368  0.131739  0.000361  0.9799  0.0
H  H7  1  0.53603165  0.77013738  0.26995614  1  0.131362  0.000503  0.115365  0.131751  0.000361  0.979909  0.0
H  H8  1  0.89692462  0.55103034  0.76832673  1  0.080704  0.00043  0.107379  0.117039  0.000319  0.998123  0.0
H  H9  1  0.10306595  0.05102632  0.73167617  1  0.080483  0.00043  0.107385  0.117005  0.000319  0.997991  0.0
H  H10  1  0.10307515  0.44896537  0.23166853  1  0.0808  0.00043  0.107379  0.117045  0.000319  0.998038  0.0
H  H11  1  0.89693075  0.94896758  0.26833129  1  0.08075  0.00043  0.107398  0.117105  0.000319  0.998044  0.0
H  H12  1  0.90588348  0.81860308  0.98475496  1  0.091922  0.000253  0.108485  0.113847  0.000151  0.994479  0.0
H  H13  1  0.09412203  0.31859146  0.51524478  1  0.091978  0.000253  0.108475  0.113937  0.000151  0.994323  0.0
H  H14  1  0.09412632  0.18140258  0.01523442  1  0.091695  0.000253  0.108437  0.113848  0.000151  0.994257  0.0
H  H15  1  0.90587869  0.68139701  0.48475952  1  0.091848  0.000253  0.108451  0.113855  0.000151  0.994333  0.0
H  H16  1  0.06501503  0.46757282  0.91924700  1  0.111616  3e-06  0.117762  0.141184  -1.8e-05  0.980285  0.0
H  H17  1  0.93497814  0.96756779  0.58074971  1  0.111235  3e-06  0.117795  0.141194  -1.7e-05  0.980314  0.0
H  H18  1  0.93499671  0.53243194  0.08074961  1  0.111408  3e-06  0.11777  0.14122  -1.7e-05  0.980258  0.0
H  H19  1  0.06501357  0.03243244  0.41925663  1  0.11148  3e-06  0.117781  0.141187  -1.7e-05  0.980367  0.0
H  H20  1  0.44842702  0.64450311  0.02060885  1  0.108141  -0.000111  0.123095  0.119574  -9.9e-05  0.998824  0.0
H  H21  1  0.55156956  0.14449909  0.47938936  1  0.108156  -0.000111  0.123089  0.119545  -9.9e-05  0.99883  0.0
H  H22  1  0.55158068  0.35550346  0.97939568  1  0.108178  -0.000111  0.123051  0.119455  -9.9e-05  0.998915  0.0
H  H23  1  0.44842721  0.85551110  0.52060658  1  0.108109  -0.000111  0.123066  0.119565  -9.9e-05  0.998843  0.0
H  H24  1  0.10797640  0.85778210  0.93684611  1  0.118789  -9.1e-05  0.12111  0.099932  -0.000109  0.984264  0.0
H  H25  1  0.89202755  0.35777624  0.56315186  1  0.118739  -9.1e-05  0.121086  0.099942  -0.000109  0.984251  0.0
H  H26  1  0.89203340  0.14222538  0.06314327  1  0.118859  -9.1e-05  0.121139  0.099964  -0.000109  0.984336  0.0
H  H27  1  0.10797414  0.64222580  0.43685674  1  0.11869  -9.1e-05  0.121053  0.099875  -0.000109  0.984313  0.0
C  C28  1  0.63968192  0.86479810  0.92775598  1  1.569081  -0.001714  0.216227  0.581205  -0.002086  4.159204  -0.004
C  C29  1  0.36031808  0.36479250  0.57224651  1  1.568763  -0.001712  0.216287  0.581253  -0.002086  4.158722  -0.004
C  C30  1  0.36032185  0.13519852  0.07223950  1  1.568647  -0.001712  0.216265  0.581355  -0.002086  4.159071  -0.004
C  C31  1  0.63968062  0.63519868  0.42776005  1  1.568806  -0.001714  0.216225  0.581252  -0.002086  4.159273  -0.004
C  C32  1  0.71384427  0.78075521  0.88300350  1  -0.090135  0.016923  -0.010421  -0.005853  0.011746  3.98641  0.013
C  C33  1  0.28615282  0.28074696  0.61699779  1  -0.090203  0.016922  -0.010435  -0.005794  0.011747  3.986286  0.013
C  C34  1  0.28615952  0.21925136  0.11698860  1  -0.089691  0.016924  -0.010362  -0.005944  0.011748  3.986561  0.013
C  C35  1  0.71384288  0.71924785  0.38301012  1  -0.089849  0.016925  -0.010432  -0.005967  0.011748  3.986608  0.013
C  C36  1  0.64294085  0.71625511  0.80161038  1  -0.011377  0.003848  -0.06942  -0.099167  0.002626  3.900692  0.002
C  C37  1  0.35705654  0.21624641  0.69839109  1  -0.011141  0.003847  -0.069445  -0.099245  0.002625  3.900863  0.002
C  C38  1  0.35706495  0.28375236  0.19838081  1  -0.011307  0.003845  -0.069502  -0.099187  0.002623  3.900739  0.002
C  C39  1  0.64294015  0.78374840  0.30161841  1  -0.011468  0.003847  -0.069438  -0.099181  0.002624  3.900718  0.002
C  C40  1  0.70989428  0.63552071  0.75958034  1  0.041655  0.017009  -0.013069  -0.013484  0.011874  3.977251  0.013
C  C41  1  0.29009922  0.13551304  0.74042038  1  0.041464  0.017009  -0.013083  -0.013626  0.011874  3.977406  0.013
C  C42  1  0.29010949  0.36448315  0.24041379  1  0.042544  0.017006  -0.013102  -0.013593  0.011873  3.977345  0.013
C  C43  1  0.70989550  0.86447814  0.25958324  1  0.041826  0.017007  -0.01307  -0.013434  0.011873  3.97714  0.013
C  C44  1  0.63523986  0.57707115  0.66651051  1  1.57108  -0.001757  0.212828  0.576893  -0.002117  4.164757  -0.004
C  C45  1  0.36475301  0.07706665  0.83349016  1  1.571514  -0.001757  0.212873  0.576952  -0.002117  4.164553  -0.004
C  C46  1  0.36476191  0.42292184  0.33348453  1  1.57103  -0.001758  0.212904  0.577025  -0.002117  4.164247  -0.004
C  C47  1  0.63523572  0.92291548  0.16651279  1  1.57093  -0.001757  0.212938  0.577049  -0.002118  4.164534  -0.004
C  C48  1  0.84652792  0.61510006  0.80170636  1  -0.091662  0.002922  -0.078803  -0.138055  0.00197  3.916319  0.002
C  C49  1  0.15346438  0.11509301  0.69829276  1  -0.091485  0.002922  -0.078811  -0.137865  0.00197  3.91608  0.002
C  C50  1  0.15347689  0.38490018  0.19828325  1  -0.092365  0.002922  -0.07867  -0.137927  0.001969  3.916182  0.002
C  C51  1  0.84652933  0.88489999  0.30171335  1  -0.09143  0.002921  -0.078795  -0.138093  0.00197  3.916191  0.002
C  C52  1  0.91878714  0.68107253  0.88272660  1  -0.021635  0.001485  -0.010773  0.056926  0.00088  4.042949  0.001
C  C53  1  0.08121286  0.18106591  0.61727348  1  -0.022031  0.001485  -0.010684  0.056991  0.00088  4.043018  0.001
C  C54  1  0.08121867  0.31893314  0.11726188  1  -0.02165  0.001485  -0.010812  0.056821  0.00088  4.043143  0.001
C  C55  1  0.91878683  0.81893070  0.38273399  1  -0.022005  0.001485  -0.010768  0.05684  0.00088  4.042924  0.001
C  C56  1  0.85174650  0.76594802  0.92198984  1  0.034526  0.001837  -0.077053  -0.142814  0.001178  3.92755  0.001
C  C57  1  0.14825344  0.26593854  0.57801008  1  0.03481  0.001837  -0.077113  -0.143009  0.001178  3.927594  0.001
C  C58  1  0.14825932  0.23405674  0.07799796  1  0.034455  0.001836  -0.077057  -0.14271  0.001177  3.927397  0.001
C  C59  1  0.85174526  0.73405445  0.42199783  1  0.03434  0.001837  -0.077031  -0.142715  0.001177  3.927476  0.001
C  C60  1  0.06456740  0.66511667  0.92351330  1  0.014374  0.000671  0.000804  0.052258  0.000417  4.019615  0.001
C  C61  1  0.93542945  0.16511119  0.57648473  1  0.014595  0.00067  0.000775  0.052102  0.000417  4.019735  0.001
C  C62  1  0.93543940  0.33488990  0.07647608  1  0.014628  0.00067  0.000737  0.052127  0.000417  4.020032  0.001
C  C63  1  0.06456725  0.83489085  0.42352341  1  0.014753  0.00067  0.000816  0.052171  0.000417  4.019943  0.001
C  C64  1  0.12416995  0.55026438  0.93602771  1  -0.054873  -0.000679  -0.07953  -0.221588  -0.000773  3.948937  0.0
C  C65  1  0.87582464  0.05025746  0.56397068  1  -0.054893  -0.000678  -0.079482  -0.221478  -0.000773  3.948979  0.0
C  C66  1  0.87584280  0.44974219  0.06396778  1  -0.054992  -0.000678  -0.079455  -0.221454  -0.000772  3.948959  0.0
C  C67  1  0.12416607  0.94974458  0.43603611  1  -0.054995  -0.000678  -0.079565  -0.221522  -0.000773  3.94925  0.0
C  C68  1  0.26221012  0.54447237  0.97171632  1  0.449304  0.000264  0.104114  0.254066  0.000175  4.081819  0.0
C  C69  1  0.73777841  0.04446875  0.52828139  1  0.448826  0.000264  0.10415  0.254016  0.000175  4.081911  0.0
C  C70  1  0.73780160  0.45553420  0.02828504  1  0.449452  0.000264  0.104231  0.254192  0.000175  4.081556  0.0
C  C71  1  0.26220533  0.95553873  0.47172179  1  0.449106  0.000264  0.104292  0.254222  0.000175  4.081658  0.0
C  C72  1  0.33981842  0.64856443  0.99399338  1  0.602776  -0.000807  0.042353  -0.028356  -0.000913  3.930609  0.0
C  C73  1  0.66018123  0.14856012  0.50600667  1  0.60359  -0.000807  0.042379  -0.028162  -0.000913  3.930568  0.0
C  C74  1  0.66019130  0.35144214  0.00600821  1  0.602817  -0.000807  0.042285  -0.028389  -0.000913  3.930575  0.0
C  C75  1  0.33981750  0.85144735  0.49399582  1  0.603093  -0.000807  0.042289  -0.028419  -0.000913  3.93048  0.0
C  C76  1  0.14887374  0.76631652  0.94752512  1  0.48824  -0.000721  0.045607  0.026344  -0.000854  3.916723  0.0
C  C77  1  0.85112521  0.26631211  0.55247255  1  0.48841  -0.00072  0.045584  0.026377  -0.000853  3.916728  0.0
C  C78  1  0.85113305  0.23368915  0.05246630  1  0.487832  -0.00072  0.045492  0.026245  -0.000853  3.917023  0.0
C  C79  1  0.14887449  0.73369084  0.44753356  1  0.488246  -0.00072  0.04562  0.026397  -0.000853  3.916893  0.0
N  N80  1  0.28196731  0.75805667  0.98092606  1  -1.182232  -0.001633  -0.323898  -0.19336  -0.000976  3.532505  0.0
N  N81  1  0.71802955  0.25805288  0.51907182  1  -1.182205  -0.001633  -0.323902  -0.193495  -0.000976  3.53234  0.0
N  N82  1  0.71804044  0.24194628  0.01907168  1  -1.181944  -0.001631  -0.323765  -0.193226  -0.000975  3.532091  0.0
N  N83  1  0.28196717  0.74195098  0.48093090  1  -1.18205  -0.001632  -0.323848  -0.193378  -0.000975  3.532254  0.0
O  O84  1  0.69493188  0.96561228  0.95888696  1  -1.099788  0.099313  -0.314108  -0.510419  0.062799  2.319453  0.09
O  O85  1  0.30506227  0.46560534  0.54111066  1  -1.09968  0.099316  -0.314192  -0.510535  0.062802  2.319055  0.09
O  O86  1  0.30506990  0.03439248  0.04110672  1  -1.099765  0.099299  -0.3141  -0.510479  0.062791  2.319596  0.09
O  O87  1  0.69492746  0.53439490  0.45889252  1  -1.099742  0.099304  -0.314077  -0.51042  0.062795  2.319761  0.09
O  O88  1  0.52656181  0.82719479  0.93003763  1  -1.102741  0.091076  -0.309284  -0.519612  0.05755  2.369967  0.083
O  O89  1  0.47343778  0.32719573  0.56996483  1  -1.102765  0.091075  -0.309292  -0.519638  0.057549  2.370013  0.083
O  O90  1  0.47345290  0.17279911  0.06996440  1  -1.102536  0.091099  -0.309337  -0.519689  0.057563  2.36976  0.083
O  O91  1  0.52654997  0.67279998  0.43003518  1  -1.102471  0.091093  -0.309331  -0.519681  0.05756  2.36968  0.083
O  O92  1  0.52452481  0.62632385  0.62049672  1  -1.114795  0.084915  -0.313688  -0.528562  0.053517  2.360675  0.078
O  O93  1  0.47546159  0.12632210  0.87950512  1  -1.114822  0.084899  -0.313624  -0.528445  0.053508  2.360713  0.078
O  O94  1  0.47546597  0.37367729  0.37949786  1  -1.114791  0.084894  -0.313641  -0.528479  0.053503  2.360823  0.078
O  O95  1  0.52453011  0.87366547  0.12050257  1  -1.114931  0.0849  -0.313645  -0.528522  0.053509  2.360955  0.078
O  O96  1  0.68886179  0.48574414  0.64015252  1  -1.098663  0.104439  -0.313525  -0.508775  0.066139  2.320166  0.095
O  O97  1  0.31113056  0.98573228  0.85984669  1  -1.098879  0.104454  -0.313633  -0.508896  0.066149  2.31984  0.095
O  O98  1  0.31112697  0.51425338  0.35984636  1  -1.09862  0.10446  -0.313661  -0.508968  0.066153  2.319472  0.095
O  O99  1  0.68886520  0.01424805  0.14015038  1  -1.09854  0.104454  -0.313676  -0.508991  0.066148  2.31987  0.095
F  F100  1  0.32369319  0.43471500  0.98459304  1  -0.628234  1.3e-05  -0.090076  -0.135079  6e-06  1.36245  0.0
F  F101  1  0.67629660  0.93471219  0.51540771  1  -0.628387  1.3e-05  -0.090111  -0.135105  6e-06  1.36247  0.0
F  F102  1  0.67631549  0.56529247  0.01541510  1  -0.628282  1.3e-05  -0.090141  -0.135157  6e-06  1.362353  0.0
F  F103  1  0.32369113  0.06529710  0.48459637  1  -0.62844  1.3e-05  -0.090188  -0.135178  6e-06  1.36243  0.0
