# generated using pymatgen
data_CdH28C26(NO2)4
_symmetry_space_group_name_H-M   'P 1'
_cell_length_a   7.48868515
_cell_length_b   8.68015290
_cell_length_c   11.12274296
_cell_angle_alpha   95.28068074
_cell_angle_beta   102.52628580
_cell_angle_gamma   111.50549404
_symmetry_Int_Tables_number   1
_chemical_formula_structural   CdH28C26(NO2)4
_chemical_formula_sum   'Cd1 H28 C26 N4 O8'
_cell_volume   644.84534876
_cell_formula_units_Z   1
loop_
 _symmetry_equiv_pos_site_id
 _symmetry_equiv_pos_as_xyz
  1  'x, y, z'
loop_
 _atom_site_type_symbol
 _atom_site_label
 _atom_site_symmetry_multiplicity
 _atom_site_fract_x
 _atom_site_fract_y
 _atom_site_fract_z
 _atom_site_occupancy
 _atom_site_hle17_bader_spin_density
 _atom_site_hle17_ddec_charge
 _atom_site_hle17_ddec_spin_density
 _atom_site_hle17_ddec_sum_bond_order
 _atom_site_hle17_magmom
 _atom_site_hse06_10hf_bader_spin_density
 _atom_site_hse06_10hf_ddec_charge
 _atom_site_hse06_10hf_ddec_spin_density
 _atom_site_hse06_10hf_ddec_sum_bond_order
 _atom_site_hse06_10hf_magmom
 _atom_site_hse06_bader_spin_density
 _atom_site_hse06_ddec_charge
 _atom_site_hse06_ddec_spin_density
 _atom_site_hse06_ddec_sum_bond_order
 _atom_site_hse06_magmom
 _atom_site_pbe_bader_spin_density
 _atom_site_pbe_cm5_charge
 _atom_site_pbe_ddec_charge
 _atom_site_pbe_ddec_spin_density
 _atom_site_pbe_ddec_sum_bond_order
 _atom_site_pbe_magmom
Cd  Cd0  1  0.00000079  0.00000021  0.99999987  1  0  1.197536  0  1.658925  0  0  1.023034  0  2.107516  0  0  1.074503  0  2.05526  0  0  0.789856  0.986691  0  2.143099  0
H  H1  1  0.66888705  0.32125380  0.88673577  1  0  0.330789  0  0.894094  0  0  0.305962  0  0.964348  0  0  0.314705  0  0.956951  0  0  0.316965  0.29981  0  0.96959  0
H  H2  1  0.33111199  0.67874576  0.11326524  1  0  0.330779  0  0.894109  0  0  0.305946  0  0.964383  0  0  0.314689  0  0.956985  0  0  0.316953  0.299797  0  0.969615  0
H  H3  1  0.54026889  0.23154561  0.11096125  1  0  0.104933  0  0.978499  0  0  0.113747  0  1.042891  0  0  0.116772  0  1.04098  0  0  0.102155  0.111554  0  1.044292  0
H  H4  1  0.45972763  0.76845141  0.88903741  1  0  0.104934  0  0.978526  0  0  0.113738  0  1.042935  0  0  0.11676  0  1.041029  0  0  0.102175  0.111546  0  1.044339  0
H  H5  1  0.78822597  0.68316659  0.74272596  1  0  0.080475  0  0.93765  0  0  0.090918  0  1.003936  0  0  0.092931  0  1.002142  0  0  0.105036  0.089055  0  1.005864  0
H  H6  1  0.21177718  0.31683299  0.25727567  1  0  0.080464  0  0.937605  0  0  0.090904  0  1.003893  0  0  0.092919  0  1.002099  0  0  0.105027  0.089041  0  1.005816  0
H  H7  1  0.01875673  0.66385964  0.79860858  1  0  0.084349  0  0.9441  0  0  0.094289  0  1.008626  0  0  0.095999  0  1.00784  0  0  0.104193  0.093228  0  1.00916  0
H  H8  1  0.98124504  0.33613995  0.20139374  1  0  0.08436  0  0.944147  0  0  0.094284  0  1.00868  0  0  0.095997  0  1.007892  0  0  0.104184  0.093218  0  1.009224  0
H  H9  1  0.89885098  0.86176462  0.25374333  1  0  0.104399  0  0.960495  0  0  0.1174  0  1.018063  0  0  0.120185  0  1.016625  0  0  0.102279  0.115295  0  1.019349  0
H  H10  1  0.10114689  0.13823242  0.74625733  1  0  0.104391  0  0.960517  0  0  0.117389  0  1.018097  0  0  0.120174  0  1.016656  0  0  0.102261  0.115278  0  1.01939  0
H  H11  1  0.20992891  0.07381577  0.42326799  1  0  0.096355  0  0.94815  0  0  0.106746  0  1.007466  0  0  0.110659  0  1.004703  0  0  0.102223  0.103968  0  1.009455  0
H  H12  1  0.79007685  0.92618629  0.57672881  1  0  0.096392  0  0.948302  0  0  0.106784  0  1.007603  0  0  0.110698  0  1.004838  0  0  0.10224  0.104005  0  1.009597  0
H  H13  1  0.56827676  0.36828339  0.32418272  1  0  0.080577  0  0.970069  0  0  0.092298  0  1.033292  0  0  0.094106  0  1.03383  0  0  0.095454  0.09098  0  1.033191  0
H  H14  1  0.43172052  0.63171239  0.67581777  1  0  0.080567  0  0.970073  0  0  0.092275  0  1.033314  0  0  0.094082  0  1.033852  0  0  0.095432  0.090955  0  1.033214  0
H  H15  1  0.74357238  0.67727584  0.39520243  1  0  0.073932  0  0.973861  0  0  0.087837  0  1.033121  0  0  0.089797  0  1.032713  0  0  0.093737  0.086462  0  1.033413  0
H  H16  1  0.25642628  0.32271994  0.60479738  1  0  0.073909  0  0.973899  0  0  0.087817  0  1.033156  0  0  0.089773  0  1.032753  0  0  0.093743  0.086445  0  1.033446  0
H  H17  1  0.73684759  0.31355679  0.53815607  1  0  0.083221  0  0.970912  0  0  0.098443  0  1.039327  0  0  0.097529  0  1.042351  0  0  0.095234  0.099057  0  1.037257  0
H  H18  1  0.26315205  0.68644403  0.46184421  1  0  0.083205  0  0.970896  0  0  0.098436  0  1.039316  0  0  0.097522  0  1.042339  0  0  0.095227  0.099052  0  1.037246  0
H  H19  1  0.95389178  0.50734023  0.59067398  1  0  0.066701  0  0.964092  0  0  0.084727  0  1.030334  0  0  0.085297  0  1.030598  0  0  0.088792  0.084282  0  1.030059  0
H  H20  1  0.04610648  0.49266059  0.40932698  1  0  0.066626  0  0.964106  0  0  0.084687  0  1.030319  0  0  0.085251  0  1.03059  0  0  0.088777  0.084246  0  1.030044  0
H  H21  1  0.71123108  0.51165595  0.54141002  1  0  0.061267  0  0.952429  0  0  0.078106  0  1.021035  0  0  0.078968  0  1.019895  0  0  0.086705  0.07733  0  1.022295  0
H  H22  1  0.28876717  0.48834487  0.45859095  1  0  0.061292  0  0.952375  0  0  0.078132  0  1.020994  0  0  0.078995  0  1.019853  0  0  0.086728  0.077358  0  1.022255  0
H  H23  1  0.65551645  0.90988692  0.34639535  1  0  0.093827  0  0.973202  0  0  0.101389  0  1.040252  0  0  0.104632  0  1.038425  0  0  0.101124  0.098878  0  1.042071  0
H  H24  1  0.34448790  0.09011516  0.65360394  1  0  0.093778  0  0.973168  0  0  0.101342  0  1.040224  0  0  0.104587  0  1.038394  0  0  0.1011  0.098828  0  1.042044  0
H  H25  1  0.68315811  0.06906408  0.99416320  1  0  0.400713  0  0.918471  0  0  0.364947  0  0.992028  0  0  0.376971  0  0.974403  0  0  0.279047  0.35634  0  1.004603  0
H  H26  1  0.31684115  0.93093296  0.00583588  1  0  0.400718  0  0.91847  0  0  0.364943  0  0.992042  0  0  0.376967  0  0.974417  0  0  0.279037  0.356334  0  1.004621  0
H  H27  1  0.64901474  0.99103977  0.11609582  1  0  0.427062  0  0.86786  0  0  0.39613  0  0.931218  0  0  0.406477  0  0.916135  0  0  0.291778  0.388547  0  0.942364  0
H  H28  1  0.35098765  0.00896105  0.88390399  1  0  0.427032  0  0.867895  0  0  0.396087  0  0.931274  0  0  0.406435  0  0.91619  0  0  0.291724  0.388496  0  0.942421  0
C  C29  1  0.81744581  0.58770463  0.91139923  1  0  0.405937  0  3.688979  0  0  0.369086  0  3.966707  0  0  0.388753  0  3.978034  0  0  0.238297  0.356103  0  3.95881  0
C  C30  1  0.18255128  0.41229366  0.08860050  1  0  0.405892  0  3.688934  0  0  0.36906  0  3.966655  0  0  0.388728  0  3.977985  0  0  0.238281  0.356082  0  3.958749  0
C  C31  1  0.70701952  0.47110326  0.06434408  1  0  0.15827  0  3.773734  0  0  0.14905  0  4.0189  0  0  0.152798  0  4.040837  0  0  0.093283  0.146502  0  4.004151  0
C  C32  1  0.29297346  0.52889501  0.93565501  1  0  0.158296  0  3.773747  0  0  0.149122  0  4.018894  0  0  0.152873  0  4.040829  0  0  0.093307  0.146568  0  4.004149  0
C  C33  1  0.61924278  0.36707977  0.14186619  1  0  -0.142496  0  3.74606  0  0  -0.160292  0  3.998482  0  0  -0.162295  0  4.017764  0  0  -0.097574  -0.158883  0  3.985518  0
C  C34  1  0.38075216  0.63291977  0.85813328  1  0  -0.142561  0  3.74602  0  0  -0.160365  0  3.998448  0  0  -0.162366  0  4.017726  0  0  -0.097604  -0.158954  0  3.985487  0
C  C35  1  0.42536884  0.99163197  0.37095441  1  0  -0.05527  0  3.734277  0  0  -0.035572  0  3.971608  0  0  -0.041194  0  3.992431  0  0  -0.014225  -0.031781  0  3.957369  0
C  C36  1  0.57463999  0.00837392  0.62904760  1  0  -0.05535  0  3.734514  0  0  -0.035583  0  3.971775  0  0  -0.041205  0  3.992597  0  0  -0.014275  -0.03179  0  3.957529  0
C  C37  1  0.85643636  0.60116313  0.78641490  1  0  -0.035556  0  3.691681  0  0  -0.08468  0  3.940161  0  0  -0.08202  0  3.94471  0  0  -0.062927  -0.086751  0  3.937604  0
C  C38  1  0.14356385  0.39883896  0.21358644  1  0  -0.035535  0  3.691765  0  0  -0.084657  0  3.940224  0  0  -0.081999  0  3.944775  0  0  -0.062905  -0.08672  0  3.937652  0
C  C39  1  0.34268104  0.98139341  0.23315644  1  0  0.668546  0  3.863088  0  0  0.610794  0  4.165161  0  0  0.645629  0  4.156263  0  0  0.218519  0.587204  0  4.170319  0
C  C40  1  0.65731880  0.01860488  0.76684281  1  0  0.668496  0  3.863095  0  0  0.610713  0  4.165192  0  0  0.64555  0  4.156292  0  0  0.218508  0.587132  0  4.170336  0
C  C41  1  0.80463778  0.64869859  0.10301142  1  0  0.151121  0  3.83038  0  0  0.147712  0  4.079247  0  0  0.152471  0  4.10225  0  0  0.081951  0.144517  0  4.063666  0
C  C42  1  0.19535440  0.35130094  0.89698853  1  0  0.151121  0  3.830443  0  0  0.147654  0  4.079381  0  0  0.15241  0  4.102387  0  0  0.081915  0.144461  0  4.063793  0
C  C43  1  0.82024624  0.72561422  0.22315123  1  0  -0.1422  0  3.742423  0  0  -0.161988  0  3.992992  0  0  -0.164824  0  4.012943  0  0  -0.098124  -0.160082  0  3.979495  0
C  C44  1  0.17974812  0.27438406  0.77684807  1  0  -0.142162  0  3.742319  0  0  -0.161934  0  3.99289  0  0  -0.16478  0  4.012862  0  0  -0.098037  -0.160021  0  3.979386  0
C  C45  1  0.33693487  0.04140841  0.45791115  1  0  -0.081594  0  3.738645  0  0  -0.102009  0  3.986323  0  0  -0.103363  0  4.005881  0  0  -0.083869  -0.100981  0  3.97294  0
C  C46  1  0.66307619  0.95859619  0.54208573  1  0  -0.081672  0  3.738845  0  0  -0.102109  0  3.986504  0  0  -0.103464  0  4.00606  0  0  -0.083879  -0.101078  0  3.973121  0
C  C47  1  0.63573421  0.44551562  0.26120037  1  0  -0.084409  0  3.795025  0  0  -0.101263  0  4.051476  0  0  -0.103927  0  4.074748  0  0  -0.104867  -0.099449  0  4.035843  0
C  C48  1  0.36426015  0.55448266  0.73879894  1  0  -0.084359  0  3.795063  0  0  -0.101198  0  4.051517  0  0  -0.103861  0  4.074786  0  0  -0.104851  -0.099385  0  4.03588  0
C  C49  1  0.73508802  0.62145237  0.30119793  1  0  -0.081517  0  3.810149  0  0  -0.097528  0  4.065967  0  0  -0.099552  0  4.088981  0  0  -0.103539  -0.095948  0  4.050186  0
C  C50  1  0.26490772  0.37854591  0.69880069  1  0  -0.081498  0  3.810184  0  0  -0.097499  0  4.065986  0  0  -0.099521  0  4.089  0  0  -0.103551  -0.095925  0  4.05021  0
C  C51  1  0.79597654  0.44357672  0.58923756  1  0  -0.080635  0  3.693924  0  0  -0.172194  0  3.958157  0  0  -0.166683  0  3.96348  0  0  -0.149046  -0.175718  0  3.954556  0
C  C52  1  0.20402444  0.55642412  0.41076473  1  0  -0.080502  0  3.693741  0  0  -0.172114  0  3.957958  0  0  -0.1666  0  3.963282  0  0  -0.149006  -0.175645  0  3.954363  0
C  C53  1  0.58930474  0.95048295  0.41440511  1  0  -0.070123  0  3.736719  0  0  -0.093116  0  3.9864  0  0  -0.093324  0  4.005454  0  0  -0.083552  -0.092885  0  3.97367  0
C  C54  1  0.41070492  0.04952166  0.58559425  1  0  -0.070062  0  3.736741  0  0  -0.093084  0  3.986403  0  0  -0.093292  0  4.005456  0  0  -0.083543  -0.092849  0  3.973669  0
N  N55  1  0.87065158  0.71752745  0.00468905  1  0  -0.504553  0  3.133621  0  0  -0.440966  0  3.414785  0  0  -0.465779  0  3.428996  0  0  -0.358189  -0.424127  0  3.404689  0
N  N56  1  0.12934336  0.28247209  0.99531043  1  0  -0.504568  0  3.133663  0  0  -0.440978  0  3.414844  0  0  -0.465788  0  3.429054  0  0  -0.358233  -0.424144  0  3.404749  0
N  N57  1  0.72026990  0.43813614  0.94303333  1  0  -0.372193  0  3.337104  0  0  -0.313412  0  3.570756  0  0  -0.331574  0  3.582241  0  0  -0.369965  -0.30124  0  3.562987  0
N  N58  1  0.27972643  0.56186340  0.05696546  1  0  -0.372136  0  3.337084  0  0  -0.313375  0  3.570729  0  0  -0.331539  0  3.582216  0  0  -0.369925  -0.301208  0  3.562955  0
O  O59  1  0.21238591  0.04182909  0.20283500  1  0  -0.643842  0  2.013745  0  0  -0.581734  0  2.271788  0  0  -0.609555  0  2.260894  0  0  -0.318499  -0.562118  0  2.278507  0
O  O60  1  0.78761550  0.95816669  0.79716433  1  0  -0.643766  0  2.013669  0  0  -0.58166  0  2.271711  0  0  -0.60948  0  2.260817  0  0  -0.318463  -0.562046  0  2.27842  0
O  O61  1  0.75324109  0.05509842  0.07758958  1  0  -0.849138  0  1.877301  0  0  -0.789344  0  2.076646  0  0  -0.810646  0  2.042502  0  0  -0.596247  -0.773939  0  2.100868  0
O  O62  1  0.24675912  0.94490366  0.92241177  1  0  -0.849115  0  1.87733  0  0  -0.789307  0  2.076696  0  0  -0.810603  0  2.042543  0  0  -0.59618  -0.773888  0  2.100952  0
O  O63  1  0.40895362  0.91371603  0.15481557  1  0  -0.67438  0  2.021805  0  0  -0.602898  0  2.241435  0  0  -0.628464  0  2.229408  0  0  -0.317351  -0.584856  0  2.249447  0
O  O64  1  0.59104681  0.08628352  0.84518385  1  0  -0.674378  0  2.021752  0  0  -0.602889  0  2.241386  0  0  -0.628455  0  2.229361  0  0  -0.317374  -0.584855  0  2.249391  0
O  O65  1  0.77505390  0.43663611  0.71273081  1  0  -0.253287  0  2.298169  0  0  -0.184052  0  2.547364  0  0  -0.198682  0  2.551969  0  0  -0.233697  -0.173651  0  2.544079  0
O  O66  1  0.22494651  0.56336346  0.28727041  1  0  -0.253405  0  2.29816  0  0  -0.184129  0  2.547345  0  0  -0.198757  0  2.551949  0  0  -0.23375  -0.173729  0  2.544061  0
