# generated using pymatgen
data_NaH2C2N4OF3
_symmetry_space_group_name_H-M   'P 1'
_cell_length_a   7.17308483
_cell_length_b   9.46364746
_cell_length_c   10.11632827
_cell_angle_alpha   102.23534984
_cell_angle_beta   110.75646721
_cell_angle_gamma   90.01023965
_symmetry_Int_Tables_number   1
_chemical_formula_structural   NaH2C2N4OF3
_chemical_formula_sum   'Na4 H8 C8 N16 O4 F12'
_cell_volume   625.44033879
_cell_formula_units_Z   4
loop_
 _symmetry_equiv_pos_site_id
 _symmetry_equiv_pos_as_xyz
  1  'x, y, z'
loop_
 _atom_site_type_symbol
 _atom_site_label
 _atom_site_symmetry_multiplicity
 _atom_site_fract_x
 _atom_site_fract_y
 _atom_site_fract_z
 _atom_site_occupancy
 _atom_site_hle17_bader_spin_density
 _atom_site_hle17_ddec_charge
 _atom_site_hle17_ddec_spin_density
 _atom_site_hle17_ddec_sum_bond_order
 _atom_site_hle17_magmom
 _atom_site_hse06_10hf_bader_spin_density
 _atom_site_hse06_10hf_ddec_charge
 _atom_site_hse06_10hf_ddec_spin_density
 _atom_site_hse06_10hf_ddec_sum_bond_order
 _atom_site_hse06_10hf_magmom
 _atom_site_hse06_bader_spin_density
 _atom_site_hse06_ddec_charge
 _atom_site_hse06_ddec_spin_density
 _atom_site_hse06_ddec_sum_bond_order
 _atom_site_hse06_magmom
 _atom_site_pbe_bader_spin_density
 _atom_site_pbe_cm5_charge
 _atom_site_pbe_ddec_charge
 _atom_site_pbe_ddec_spin_density
 _atom_site_pbe_ddec_sum_bond_order
 _atom_site_pbe_magmom
Na  Na0  1  0.99999918  0.99999967  0.49999961  1  0  0.837714  0  0.459286  0  0  0.75214  0  0.664788  0  0  0.764555  0  0.642404  0  0  0.698581  0.742967  0  0.681006  0
Na  Na1  1  0.50000084  0.00000035  0.50000008  1  0  0.837859  0  0.459412  0  0  0.752116  0  0.665212  0  0  0.764557  0  0.642869  0  0  0.69916  0.743203  0  0.681133  0
Na  Na2  1  0.45116951  0.17303855  0.90252644  1  0  0.826642  0  0.452183  0  0  0.735476  0  0.653476  0  0  0.749879  0  0.62932  0  0  0.69705  0.72391  0  0.672149  0
Na  Na3  1  0.54883054  0.82696114  0.09747274  1  0  0.826625  0  0.452211  0  0  0.735472  0  0.653476  0  0  0.749875  0  0.629319  0  0  0.697049  0.723906  0  0.672148  0
H  H4  1  0.30834657  0.25640503  0.61665349  1  0  0.431377  0  0.865326  0  0  0.402333  0  0.925707  0  0  0.412655  0  0.910557  0  0  0.290526  0.394871  0  0.936711  0
H  H5  1  0.69165497  0.74359467  0.38334804  1  0  0.4314  0  0.865313  0  0  0.402356  0  0.925694  0  0  0.412678  0  0.910545  0  0  0.290544  0.394894  0  0.936699  0
H  H6  1  0.22334078  0.21867162  0.44668064  1  0  0.433204  0  0.831761  0  0  0.406589  0  0.897414  0  0  0.415079  0  0.884814  0  0  0.308719  0.400568  0  0.906322  0
H  H7  1  0.77665940  0.78132917  0.55331978  1  0  0.433195  0  0.831761  0  0  0.406575  0  0.897431  0  0  0.415066  0  0.884832  0  0  0.30871  0.400554  0  0.906341  0
H  H8  1  0.29106959  0.44410291  0.79316682  1  0  0.437183  0  0.830908  0  0  0.404637  0  0.907908  0  0  0.413496  0  0.894487  0  0  0.308714  0.398253  0  0.917591  0
H  H9  1  0.49790021  0.55591790  0.20682940  1  0  0.43814  0  0.829062  0  0  0.405115  0  0.907281  0  0  0.413778  0  0.894221  0  0  0.308596  0.398753  0  0.916921  0
H  H10  1  0.70893046  0.55589679  0.20683236  1  0  0.437176  0  0.830919  0  0  0.404631  0  0.907918  0  0  0.413489  0  0.894497  0  0  0.30871  0.398246  0  0.917602  0
H  H11  1  0.50209996  0.44408288  0.79317003  1  0  0.438143  0  0.829041  0  0  0.405119  0  0.907269  0  0  0.413782  0  0.894209  0  0  0.308595  0.398757  0  0.916909  0
C  C12  1  0.30536363  0.71611863  0.61095634  1  0  0.082346  0  3.866432  0  0  0.064503  0  4.147033  0  0  0.06676  0  4.162622  0  0  0.185405  0.063395  0  4.136269  0
C  C13  1  0.69463642  0.28388106  0.38904284  1  0  0.082334  0  3.866365  0  0  0.064531  0  4.146913  0  0  0.066793  0  4.162494  0  0  0.185405  0.063424  0  4.136151  0
C  C14  1  0.23369090  0.61107199  0.46738215  1  0  0.765411  0  3.652967  0  0  0.683657  0  4.000534  0  0  0.715852  0  3.971629  0  0  0.314075  0.661175  0  4.020523  0
C  C15  1  0.76630915  0.38892770  0.53261802  1  0  0.765421  0  3.653047  0  0  0.683661  0  4.000605  0  0  0.715853  0  3.971703  0  0  0.314087  0.661178  0  4.020594  0
C  C16  1  0.96718792  0.21489730  0.93474976  1  0  0.095732  0  3.857715  0  0  0.077325  0  4.135031  0  0  0.079463  0  4.151326  0  0  0.189291  0.076022  0  4.124043  0
C  C17  1  0.03280939  0.78510456  0.06525014  1  0  0.095629  0  3.857732  0  0  0.077296  0  4.134954  0  0  0.079433  0  4.151249  0  0  0.189206  0.075991  0  4.123968  0
C  C18  1  0.04159735  0.31005964  0.08338353  1  0  0.766923  0  3.647914  0  0  0.687435  0  3.993863  0  0  0.71889  0  3.966259  0  0  0.318275  0.665289  0  4.013217  0
C  C19  1  0.95840283  0.68994114  0.91661590  1  0  0.76688  0  3.647814  0  0  0.687351  0  3.993797  0  0  0.718805  0  3.966194  0  0  0.31825  0.665204  0  4.013153  0
N  N20  1  0.31235163  0.86081286  0.62481179  1  0  -0.35387  0  3.056291  0  0  -0.325273  0  3.343496  0  0  -0.333855  0  3.355548  0  0  -0.296385  -0.319247  0  3.335452  0
N  N21  1  0.68764694  0.13918683  0.37518701  1  0  -0.353929  0  3.056347  0  0  -0.325354  0  3.343559  0  0  -0.333935  0  3.355608  0  0  -0.296428  -0.319328  0  3.335517  0
N  N22  1  0.38457683  0.91443799  0.76915985  1  0  -0.128015  0  3.056028  0  0  -0.108603  0  3.359798  0  0  -0.10937  0  3.369177  0  0  -0.157528  -0.107327  0  3.35327  0
N  N23  1  0.61542322  0.08556170  0.23084032  1  0  -0.127974  0  3.05604  0  0  -0.108555  0  3.3598  0  0  -0.109322  0  3.369179  0  0  -0.157512  -0.107279  0  3.353273  0
N  N24  1  0.41830759  0.80621096  0.83665164  1  0  -0.15278  0  3.042315  0  0  -0.132937  0  3.357985  0  0  -0.134779  0  3.365898  0  0  -0.17498  -0.131052  0  3.352177  0
N  N25  1  0.58169395  0.19378873  0.16334792  1  0  -0.152761  0  3.04226  0  0  -0.132922  0  3.357944  0  0  -0.134765  0  3.36586  0  0  -0.174932  -0.131037  0  3.352138  0
N  N26  1  0.36944334  0.67852556  0.73904946  1  0  -0.260757  0  3.003769  0  0  -0.254903  0  3.300632  0  0  -0.260933  0  3.310911  0  0  -0.224713  -0.250352  0  3.29376  0
N  N27  1  0.63055808  0.32147306  0.26094985  1  0  -0.260758  0  3.003716  0  0  -0.254916  0  3.300576  0  0  -0.260945  0  3.310853  0  0  -0.224745  -0.250366  0  3.293704  0
N  N28  1  0.08556269  0.16744889  0.86035906  1  0  -0.305379  0  3.026968  0  0  -0.284374  0  3.318218  0  0  -0.292273  0  3.329863  0  0  -0.279167  -0.278882  0  3.310261  0
N  N29  1  0.22552688  0.83258927  0.13968296  1  0  -0.305776  0  3.027904  0  0  -0.284637  0  3.318698  0  0  -0.292634  0  3.330694  0  0  -0.279158  -0.279164  0  3.310851  0
N  N30  1  0.91443599  0.83255189  0.13964098  1  0  -0.305316  0  3.026945  0  0  -0.284328  0  3.31817  0  0  -0.292229  0  3.329814  0  0  -0.279119  -0.278834  0  3.310208  0
N  N31  1  0.77447019  0.16741042  0.86031547  1  0  -0.305801  0  3.027887  0  0  -0.284638  0  3.318701  0  0  -0.292635  0  3.330697  0  0  -0.279172  -0.279166  0  3.310854  0
N  N32  1  0.95927381  0.08755364  0.73386431  1  0  -0.146965  0  3.061095  0  0  -0.129841  0  3.374524  0  0  -0.131209  0  3.384411  0  0  -0.17664  -0.12851  0  3.367545  0
N  N33  1  0.22562182  0.91247116  0.26616514  1  0  -0.147789  0  3.061807  0  0  -0.130485  0  3.375183  0  0  -0.131995  0  3.38532  0  0  -0.176979  -0.129315  0  3.368284  0
N  N34  1  0.04072487  0.91244714  0.26613573  1  0  -0.146978  0  3.061082  0  0  -0.129857  0  3.374521  0  0  -0.131223  0  3.384407  0  0  -0.176635  -0.128527  0  3.367545  0
N  N35  1  0.77437674  0.08752853  0.73383466  1  0  -0.147799  0  3.061849  0  0  -0.130492  0  3.375215  0  0  -0.131999  0  3.38535  0  0  -0.176986  -0.129321  0  3.368314  0
O  O36  1  0.26512172  0.17439406  0.52996540  1  0  -0.897029  0  1.793778  0  0  -0.848003  0  1.984235  0  0  -0.863749  0  1.952474  0  0  -0.678356  -0.837036  0  2.007101  0
O  O37  1  0.73487994  0.82560672  0.47003440  1  0  -0.89704  0  1.793775  0  0  -0.848018  0  1.984255  0  0  -0.863765  0  1.952494  0  0  -0.678369  -0.837052  0  2.007122  0
O  O38  1  0.39666470  0.37888661  0.79337288  1  0  -0.841683  0  1.819116  0  0  -0.790035  0  2.005266  0  0  -0.806697  0  1.976128  0  0  -0.609689  -0.777883  0  2.026677  0
O  O39  1  0.60333535  0.62111309  0.20662729  1  0  -0.841671  0  1.819144  0  0  -0.790027  0  2.005284  0  0  -0.80669  0  1.976145  0  0  -0.609686  -0.777874  0  2.026696  0
F  F40  1  0.34568841  0.62771787  0.38603853  1  0  -0.263787  0  1.186624  0  0  -0.219942  0  1.357718  0  0  -0.230196  0  1.341373  0  0  -0.091727  -0.212198  0  1.368876  0
F  F41  1  0.95957625  0.37228928  0.61406315  1  0  -0.264928  0  1.18628  0  0  -0.22062  0  1.357051  0  0  -0.234627  0  1.344112  0  0  -0.091951  -0.212841  0  1.368217  0
F  F42  1  0.65431302  0.37228074  0.61396079  1  0  -0.263794  0  1.186704  0  0  -0.219951  0  1.357805  0  0  -0.230205  0  1.341462  0  0  -0.091737  -0.212207  0  1.368963  0
F  F43  1  0.04042392  0.62771150  0.38593726  1  0  -0.264926  0  1.186291  0  0  -0.220615  0  1.357061  0  0  -0.23462  0  1.344122  0  0  -0.091948  -0.212835  0  1.368228  0
F  F44  1  0.24061599  0.47090409  0.48124196  1  0  -0.260735  0  1.19603  0  0  -0.222862  0  1.374259  0  0  -0.231315  0  1.355181  0  0  -0.096198  -0.216336  0  1.387144  0
F  F45  1  0.75938406  0.52909561  0.51875821  1  0  -0.260728  0  1.196036  0  0  -0.222855  0  1.374269  0  0  -0.231309  0  1.355191  0  0  -0.096191  -0.216329  0  1.387154  0
F  F46  1  0.90016058  0.39794296  0.10660189  1  0  -0.2609  0  1.179317  0  0  -0.222203  0  1.352315  0  0  -0.231384  0  1.334475  0  0  -0.093936  -0.2156  0  1.364522  0
F  F47  1  0.79353464  0.60227588  0.89350366  1  0  -0.261243  0  1.181137  0  0  -0.222058  0  1.353752  0  0  -0.231354  0  1.336082  0  0  -0.093481  -0.215389  0  1.365863  0
F  F48  1  0.09984108  0.60205783  0.89339989  1  0  -0.260902  0  1.179333  0  0  -0.222206  0  1.352348  0  0  -0.231387  0  1.334508  0  0  -0.093941  -0.215602  0  1.364555  0
F  F49  1  0.20646542  0.39772381  0.10649453  1  0  -0.261278  0  1.181184  0  0  -0.22207  0  1.353768  0  0  -0.231368  0  1.336098  0  0  -0.093476  -0.215401  0  1.365879  0
F  F50  1  0.09483572  0.23273157  0.19003017  1  0  -0.263036  0  1.126071  0  0  -0.222403  0  1.285035  0  0  -0.23402  0  1.270999  0  0  -0.098618  -0.214168  0  1.294671  0
F  F51  1  0.90516582  0.76726813  0.80996939  1  0  -0.263009  0  1.126009  0  0  -0.222338  0  1.28496  0  0  -0.233952  0  1.270918  0  0  -0.098566  -0.214103  0  1.294594  0
