# generated using pymatgen
data_LaH7C12N2O7
_symmetry_space_group_name_H-M   'P 1'
_cell_length_a   6.90710160
_cell_length_b   10.29414358
_cell_length_c   10.29416085
_cell_angle_alpha   62.15203924
_cell_angle_beta   72.10691468
_cell_angle_gamma   72.10690910
_symmetry_Int_Tables_number   1
_chemical_formula_structural   LaH7C12N2O7
_chemical_formula_sum   'La2 H14 C24 N4 O14'
_cell_volume   604.10260265
_cell_formula_units_Z   2
loop_
 _symmetry_equiv_pos_site_id
 _symmetry_equiv_pos_as_xyz
  1  'x, y, z'
loop_
 _atom_site_type_symbol
 _atom_site_label
 _atom_site_symmetry_multiplicity
 _atom_site_fract_x
 _atom_site_fract_y
 _atom_site_fract_z
 _atom_site_occupancy
 _atom_site_pbe_bader_spin_density
 _atom_site_pbe_cm5_charge
 _atom_site_pbe_ddec_charge
 _atom_site_pbe_ddec_spin_density
 _atom_site_pbe_ddec_sum_bond_order
 _atom_site_pbe_magmom
La  La0  1  0.25174433  0.00362545  0.49814385  1  0  1.420076  1.824085  0  2.382453  0
La  La1  1  0.75174847  0.49814064  0.00362840  1  0  1.420097  1.824118  0  2.382381  0
H  H2  1  0.74719618  0.18137895  0.00288023  1  0  0.304002  0.345473  0  1.021701  0
H  H3  1  0.24719945  0.00288007  0.18137847  1  0  0.303995  0.345442  0  1.021748  0
H  H4  1  0.68467504  0.00261114  0.27574061  1  0  0.30411  0.390643  0  0.940002  0
H  H5  1  0.18467883  0.27574024  0.00260966  1  0  0.304116  0.390668  0  0.939964  0
H  H6  1  0.75264916  0.94720133  0.43060020  1  0  0.309946  0.40676  0  0.907674  0
H  H7  1  0.25264979  0.43060103  0.94720087  1  0  0.309934  0.406756  0  0.90768  0
H  H8  1  0.74255328  0.56087655  0.40790524  1  0  0.111767  0.119841  0  1.004154  0
H  H9  1  0.24254896  0.40790595  0.56087643  1  0  0.111747  0.119828  0  1.004114  0
H  H10  1  0.67109441  0.55462903  0.66442059  1  0  0.1171  0.131739  0  1.030722  0
H  H11  1  0.17109298  0.66442139  0.55462860  1  0  0.117086  0.131719  0  1.030739  0
H  H12  1  0.85767606  0.78932739  0.21513881  1  0  0.116609  0.131685  0  0.987168  0
H  H13  1  0.35767510  0.21514086  0.78932886  1  0  0.116598  0.131683  0  0.987168  0
H  H14  1  0.12529683  0.61708798  0.10661160  1  0  0.118865  0.12685  0  1.020482  0
H  H15  1  0.62529455  0.10661094  0.61708928  1  0  0.118855  0.126852  0  1.020408  0
C  C16  1  0.90029378  0.32987120  0.47925015  1  0  0.096388  0.058258  0  4.042027  0
C  C17  1  0.40029176  0.47925183  0.32987318  1  0  0.096395  0.058212  0  4.042175  0
C  C18  1  0.79247027  0.45943059  0.50179925  1  0  -0.073926  -0.094621  0  3.975131  0
C  C19  1  0.29246963  0.50180080  0.45942864  1  0  -0.073862  -0.094486  0  3.975166  0
C  C20  1  0.75301343  0.45535673  0.64339072  1  0  -0.078284  -0.156934  0  3.912748  0
C  C21  1  0.25301061  0.64339332  0.45535683  1  0  -0.07827  -0.156942  0  3.912751  0
C  C22  1  0.81631532  0.32112115  0.76380732  1  0  0.106758  0.288726  0  4.063331  0
C  C23  1  0.31631512  0.76380805  0.32112080  1  0  0.106725  0.288642  0  4.063416  0
C  C24  1  0.91430170  0.19021002  0.73421179  1  0  0.109355  0.063181  0  3.941522  0
C  C25  1  0.41430411  0.73421470  0.19020906  1  0  0.109296  0.06314  0  3.941607  0
C  C26  1  0.95276531  0.32805065  0.32742755  1  0  0.226023  0.579173  0  4.205153  0
C  C27  1  0.45276895  0.32742979  0.32804431  1  0  0.226002  0.579181  0  4.205409  0
C  C28  1  0.97132289  0.03631494  0.84936780  1  0  0.113211  0.080073  0  3.927912  0
C  C29  1  0.47132382  0.84936759  0.03631552  1  0  0.113251  0.080143  0  3.927965  0
C  C30  1  0.87922352  0.98246586  0.00595501  1  0  0.102127  0.26821  0  4.021928  0
C  C31  1  0.37922224  0.00595552  0.98246805  1  0  0.102128  0.268203  0  4.021934  0
C  C32  1  0.93335562  0.82960599  0.09739801  1  0  -0.08076  -0.152004  0  3.931478  0
C  C33  1  0.43335378  0.09739843  0.82960647  1  0  -0.080742  -0.151955  0  3.93147  0
C  C34  1  0.07885662  0.73529833  0.03819455  1  0  -0.071506  -0.108297  0  3.990609  0
C  C35  1  0.57885112  0.03819447  0.73530197  1  0  -0.071534  -0.108364  0  3.990665  0
C  C36  1  0.16829078  0.79530721  0.88605335  1  0  0.097283  0.053642  0  4.060234  0
C  C37  1  0.66828946  0.88605242  0.79530493  1  0  0.09727  0.053615  0  4.060094  0
C  C38  1  0.33840323  0.70131057  0.81769859  1  0  0.229381  0.573114  0  4.215736  0
C  C39  1  0.83840396  0.81769067  0.70131397  1  0  0.229463  0.573221  0  4.215779  0
N  N40  1  0.95921975  0.20089002  0.59272380  1  0  -0.365794  -0.344089  0  3.555842  0
N  N41  1  0.45922038  0.59272338  0.20089079  1  0  -0.365789  -0.344105  0  3.555829  0
N  N42  1  0.11179965  0.93981104  0.79512789  1  0  -0.360901  -0.359839  0  3.527444  0
N  N43  1  0.61180029  0.79512678  0.93981189  1  0  -0.360923  -0.359901  0  3.527381  0
O  O44  1  0.05614396  0.20759537  0.31343809  1  0  -0.385439  -0.59678  0  2.232922  0
O  O45  1  0.55614338  0.31343721  0.20759901  1  0  -0.385423  -0.596756  0  2.233344  0
O  O46  1  0.88924574  0.44746007  0.22017428  1  0  -0.387441  -0.614797  0  2.315637  0
O  O47  1  0.38924217  0.22017421  0.44746071  1  0  -0.387453  -0.614844  0  2.315483  0
O  O48  1  0.39932651  0.75765817  0.67621495  1  0  -0.375349  -0.584139  0  2.252358  0
O  O49  1  0.89932968  0.67621914  0.75765646  1  0  -0.3753  -0.584088  0  2.252572  0
O  O50  1  0.41810189  0.57130194  0.90519040  1  0  -0.358858  -0.613818  0  2.276017  0
O  O51  1  0.91810110  0.90519097  0.57129928  1  0  -0.358932  -0.613904  0  2.275944  0
O  O52  1  0.78666180  0.31910609  0.89786018  1  0  -0.403907  -0.562727  0  2.374377  0
O  O53  1  0.28666537  0.89786020  0.31910573  1  0  -0.403905  -0.56266  0  2.374381  0
O  O54  1  0.73655630  0.06677184  0.07100986  1  0  -0.324156  -0.452999  0  2.398483  0
O  O55  1  0.23655736  0.07100891  0.06677296  1  0  -0.324118  -0.452958  0  2.398583  0
O  O56  1  0.64703192  0.94593126  0.38528627  1  0  -0.616703  -0.800425  0  2.005059  0
O  O57  1  0.14702964  0.38528639  0.94593331  1  0  -0.616687  -0.800444  0  2.005072  0
