# generated using pymatgen
data_AlH3C24(N2O5)6
_symmetry_space_group_name_H-M   'P 1'
_cell_length_a   4.44014595
_cell_length_b   28.76613849
_cell_length_c   28.76653939
_cell_angle_alpha   119.99953855
_cell_angle_beta   90.00067093
_cell_angle_gamma   90.00063520
_symmetry_Int_Tables_number   1
_chemical_formula_structural   AlH3C24(N2O5)6
_chemical_formula_sum   'Al2 H6 C48 N24 O60'
_cell_volume   3181.99199899
_cell_formula_units_Z   2
loop_
 _symmetry_equiv_pos_site_id
 _symmetry_equiv_pos_as_xyz
  1  'x, y, z'
loop_
 _atom_site_type_symbol
 _atom_site_label
 _atom_site_symmetry_multiplicity
 _atom_site_fract_x
 _atom_site_fract_y
 _atom_site_fract_z
 _atom_site_occupancy
 _atom_site_pbe_bader_charge
 _atom_site_pbe_bader_spin_density
 _atom_site_pbe_cm5_charge
 _atom_site_pbe_ddec_charge
 _atom_site_pbe_ddec_spin_density
 _atom_site_pbe_ddec_sum_bond_order
 _atom_site_pbe_magmom
Al  Al0  1  0.93123838  0.49999863  0.49999562  1  2.528219  0  0.503176  1.710384  0  2.384874  0
Al  Al1  1  0.93127294  0.16667052  0.83333598  1  2.528505  0  0.503129  1.710734  0  2.38454  0
H  H2  1  0.47365641  0.38532562  0.72117637  1  0.132786  0  0.119233  0.114013  0  1.038656  0
H  H3  1  0.47374761  0.28132007  0.61212612  1  0.133314  0  0.119267  0.114045  0  1.038526  0
H  H4  1  0.47363245  0.83585833  0.61467472  1  0.066112  0  0.119183  0.113958  0  1.038591  0
H  H5  1  0.47378038  0.83080307  0.71867467  1  0.065394  0  0.119224  0.114083  0  1.038613  0
H  H6  1  0.47357502  0.27881958  0.16414416  1  0.109132  0  0.119243  0.114044  0  1.038698  0
H  H7  1  0.47386965  0.38787454  0.16919544  1  0.110328  0  0.119196  0.114065  0  1.038598  0
C  C8  1  0.43675295  0.47512884  0.42023941  1  1.6929  0  0.286611  0.698216  0  4.059041  0
C  C9  1  0.43674911  0.44510977  0.52486620  1  1.689401  0  0.286489  0.698041  0  4.058789  0
C  C10  1  0.43675283  0.57975546  0.55488620  1  1.69785  0  0.286473  0.697935  0  4.059189  0
C  C11  1  0.43679247  0.22155281  0.80845599  1  1.689433  0  0.286451  0.698005  0  4.059627  0
C  C12  1  0.43676172  0.08690932  0.77845465  1  1.697799  0  0.286378  0.697882  0  4.059231  0
C  C13  1  0.43680214  0.19154477  0.91309261  1  1.693213  0  0.286405  0.697898  0  4.05978  0
C  C14  1  0.46998730  0.25279045  0.77857367  1  0.165018  0  0.01717  -0.082563  0  3.856602  0
C  C15  1  0.52384510  0.22695377  0.72315682  1  0.320622  0  0.092579  0.012662  0  3.910808  0
C  C16  1  0.55345219  0.25512563  0.69561087  1  0.26043  0  0.096613  0.003171  0  3.873426  0
C  C17  1  0.49039411  0.31049220  0.71985994  1  0.090964  0  0.015658  0.050832  0  3.967973  0
C  C18  1  0.44091681  0.33592097  0.77582583  1  0.212924  0  0.097047  -0.001409  0  3.868304  0
C  C19  1  0.45213053  0.30889648  0.80466766  1  0.179814  0  0.093972  0.024211  0  3.901819  0
C  C20  1  0.48719616  0.34248889  0.69337670  1  -0.042661  0  -0.078534  -0.089419  0  3.909902  0
C  C21  1  0.48721823  0.32415788  0.63992967  1  0.055428  0  -0.078373  -0.089291  0  3.909707  0
C  C22  1  0.44092630  0.33073360  0.55748354  1  0.213385  0  0.097331  -0.000915  0  3.867806  0
C  C23  1  0.49039844  0.35615840  0.61345028  1  0.092811  0  0.015459  0.050487  0  3.967814  0
C  C24  1  0.55341730  0.41152781  0.63770459  1  0.258668  0  0.096932  0.003597  0  3.873143  0
C  C25  1  0.52380787  0.43970533  0.61016390  1  0.321277  0  0.092613  0.012939  0  3.910525  0
C  C26  1  0.46996426  0.41386882  0.55474441  1  -0.04189  0  0.017022  -0.08294  0  3.85696  0
C  C27  1  0.45212400  0.35776479  0.52864760  1  0.386452  0  0.094025  0.024294  0  3.901744  0
C  C28  1  0.46996671  0.02578947  0.74721481  1  0.144835  0  0.017142  -0.082811  0  3.856721  0
C  C29  1  0.52381827  0.99620683  0.77304881  1  0.319845  0  0.092615  0.012954  0  3.910322  0
C  C30  1  0.55342684  0.94048807  0.74487746  1  0.177177  0  0.09659  0.003086  0  3.873446  0
C  C31  1  0.49038064  0.90937195  0.68950988  1  0.084709  0  0.015646  0.05086  0  3.967939  0
C  C32  1  0.44091167  0.93991578  0.66408580  1  0.288298  0  0.097015  -0.001609  0  3.868428  0
C  C33  1  0.45210127  0.99578200  0.69111008  1  0.191349  0  0.094103  0.024427  0  3.901675  0
C  C34  1  0.48718373  0.85089418  0.65751341  1  0.019649  0  -0.078338  -0.089231  0  3.909883  0
C  C35  1  0.48722821  0.81577263  0.67584179  1  0.130116  0  -0.078421  -0.089441  0  3.909899  0
C  C36  1  0.44093350  0.72674875  0.66926510  1  0.197371  0  0.097196  -0.001276  0  3.867759  0
C  C37  1  0.49041173  0.75729326  0.64383929  1  0.082286  0  0.015561  0.050715  0  3.967499  0
C  C38  1  0.55344472  0.72617851  0.58847149  1  0.178214  0  0.096821  0.003357  0  3.873032  0
C  C39  1  0.52381649  0.67046018  0.56029533  1  0.320476  0  0.092714  0.013152  0  3.910301  0
C  C40  1  0.46996909  0.64087695  0.58613088  1  0.063716  0  0.016975  -0.083078  0  3.857053  0
C  C41  1  0.45212830  0.67088181  0.64223327  1  0.362815  0  0.094012  0.024412  0  3.901716  0
C  C42  1  0.47000716  0.22142582  0.97421280  1  0.175334  0  0.017141  -0.082522  0  3.856474  0
C  C43  1  0.52387573  0.27684342  0.00379452  1  0.227235  0  0.092612  0.012743  0  3.910392  0
C  C44  1  0.55347247  0.30438931  0.05951244  1  0.247861  0  0.096577  0.003178  0  3.87348  0
C  C45  1  0.49041179  0.28013835  0.09062802  1  0.076485  0  0.015657  0.050864  0  3.967913  0
C  C46  1  0.44093502  0.22417127  0.06008851  1  0.230826  0  0.097063  -0.001456  0  3.868318  0
C  C47  1  0.45214095  0.19532975  0.00422301  1  0.273419  0  0.093884  0.02414  0  3.901651  0
C  C48  1  0.48718986  0.30662016  0.14910765  1  -0.007983  0  -0.078517  -0.089571  0  3.91  0
C  C49  1  0.48726293  0.36006929  0.18422488  1  0.080566  0  -0.078357  -0.089308  0  3.909698  0
C  C50  1  0.44093973  0.44251481  0.27324707  1  0.287235  0  0.097192  -0.001218  0  3.867721  0
C  C51  1  0.49041691  0.38654607  0.24270470  1  0.076672  0  0.015694  0.050845  0  3.967234  0
C  C52  1  0.55344218  0.36229198  0.27382037  1  0.247788  0  0.096772  0.00335  0  3.872978  0
C  C53  1  0.52381114  0.38983264  0.32953706  1  0.227638  0  0.092701  0.013092  0  3.910277  0
C  C54  1  0.46997368  0.44525070  0.35911932  1  0.174883  0  0.016988  -0.082963  0  3.856889  0
C  C55  1  0.45213847  0.47134963  0.32911310  1  0.216069  0  0.093922  0.024205  0  3.901808  0
N  N56  1  0.46655918  0.34151783  0.86418290  1  0.448409  0  0.057292  0.494183  0  4.254252  0
N  N57  1  0.38148957  0.39462996  0.80570329  1  0.444041  0  0.058251  0.496949  0  4.250014  0
N  N58  1  0.56777732  0.16796945  0.69290528  1  0.402091  0  0.06576  0.509485  0  4.213625  0
N  N59  1  0.66867721  0.22602339  0.63965605  1  0.421767  0  0.055049  0.496472  0  4.270299  0
N  N60  1  0.66860588  0.44062686  0.69366064  1  0.422125  0  0.054829  0.496054  0  4.269963  0
N  N61  1  0.56771961  0.49868961  0.64042343  1  0.401735  0  0.065658  0.508941  0  4.214363  0
N  N62  1  0.38153312  0.27202374  0.52759958  1  0.444161  0  0.058108  0.496964  0  4.250752  0
N  N63  1  0.46652099  0.32515000  0.46913008  1  0.450789  0  0.05718  0.493816  0  4.25413  0
N  N64  1  0.46648810  0.02268257  0.65849328  1  0.412518  0  0.057293  0.494218  0  4.254477  0
N  N65  1  0.38150719  0.91109202  0.60537683  1  0.43347  0  0.058051  0.496965  0  4.250215  0
N  N66  1  0.56776625  0.02493561  0.83203343  1  0.434542  0  0.065765  0.509416  0  4.213754  0
N  N67  1  0.66859437  0.91363200  0.77397882  1  0.428361  0  0.05497  0.496626  0  4.270117  0
N  N68  1  0.66862997  0.75303936  0.55937450  1  0.429938  0  0.05502  0.49636  0  4.269929  0
N  N69  1  0.56772843  0.64173581  0.50131004  1  0.431935  0  0.065549  0.509016  0  4.214492  0
N  N70  1  0.38149278  0.75557322  0.72797156  1  0.438241  0  0.058161  0.496925  0  4.250394  0
N  N71  1  0.46651324  0.64398000  0.67485137  1  0.415016  0  0.057241  0.493994  0  4.253933  0
N  N72  1  0.46653360  0.13581131  0.97732465  1  0.398405  0  0.057371  0.494171  0  4.2544  0
N  N73  1  0.38152034  0.19428816  0.08891451  1  0.430639  0  0.058436  0.497414  0  4.250222  0
N  N74  1  0.56781335  0.30710127  0.97506718  1  0.421855  0  0.065707  0.5093  0  4.214133  0
N  N75  1  0.66865414  0.36034698  0.08636846  1  0.438358  0  0.05511  0.496593  0  4.269898  0
N  N76  1  0.66863582  0.30633537  0.24696341  1  0.438535  0  0.054966  0.49615  0  4.269965  0
N  N77  1  0.56773088  0.35957156  0.35826166  1  0.424856  0  0.065619  0.509088  0  4.214455  0
N  N78  1  0.38150922  0.47239607  0.24442042  1  0.430783  0  0.058226  0.496986  0  4.250408  0
N  N79  1  0.46653755  0.53086886  0.35601353  1  0.396819  0  0.057357  0.494149  0  4.254093  0
O  O80  1  0.66088631  0.55210243  0.55347254  1  -1.246056  0  -0.23018  -0.598446  0  2.400396  0
O  O81  1  0.66088722  0.50137220  0.44789346  1  -1.247621  0  -0.230249  -0.598638  0  2.400315  0
O  O82  1  0.66088043  0.44652292  0.49862329  1  -1.245638  0  -0.230189  -0.598489  0  2.400143  0
O  O83  1  0.18070354  0.56297311  0.53402049  1  -1.23581  0  -0.219009  -0.586664  0  2.387405  0
O  O84  1  0.18069987  0.46597634  0.52894739  1  -1.233237  0  -0.219003  -0.586733  0  2.387073  0
O  O85  1  0.18070556  0.47104762  0.43702169  1  -1.232336  0  -0.218995  -0.586711  0  2.387324  0
O  O86  1  0.66094593  0.16530481  0.88544437  1  -1.247381  0  -0.230174  -0.598715  0  2.400544  0
O  O87  1  0.66092794  0.22014453  0.83469977  1  -1.245821  0  -0.230237  -0.598688  0  2.400316  0
O  O88  1  0.66090630  0.11456380  0.77986495  1  -1.245992  0  -0.230218  -0.598626  0  2.400315  0
O  O89  1  0.18076502  0.19562575  0.89630807  1  -1.233054  0  -0.21889  -0.58663  0  2.387798  0
O  O90  1  0.18072424  0.10369677  0.79931902  1  -1.235864  0  -0.218923  -0.586682  0  2.387401  0
O  O91  1  0.18074593  0.20068776  0.80437912  1  -1.233105  0  -0.218854  -0.586648  0  2.387681  0
O  O92  1  0.70036730  0.33506388  0.88328533  1  -0.387252  0  -0.088305  -0.270123  0  2.034675  0
O  O93  1  0.25730906  0.37226081  0.88807359  1  -0.375288  0  -0.086238  -0.257036  0  1.957059  0
O  O94  1  0.14753559  0.40892742  0.79318870  1  -0.410868  0  -0.096522  -0.28072  0  1.965583  0
O  O95  1  0.57008027  0.42326035  0.83907121  1  -0.375503  0  -0.075765  -0.240508  0  1.915924  0
O  O96  1  0.37231907  0.14122912  0.69929443  1  -0.403468  0  -0.087128  -0.264431  0  2.00674  0
O  O97  1  0.79432000  0.15137247  0.66454125  1  -0.386228  0  -0.083904  -0.263125  0  1.96245  0
O  O98  1  0.92242816  0.23999479  0.63391830  1  -0.425284  0  -0.100279  -0.295571  0  2.011671  0
O  O99  1  0.50439853  0.19253819  0.60446438  1  -0.375179  0  -0.077047  -0.239995  0  1.90898  0
O  O100  1  0.92234951  0.42665406  0.69940504  1  -0.425246  0  -0.100323  -0.295504  0  2.011447  0
O  O101  1  0.50431203  0.47411475  0.72884777  1  -0.375316  0  -0.076995  -0.239923  0  1.90872  0
O  O102  1  0.37222900  0.52542673  0.63404029  1  -0.402689  0  -0.086907  -0.264043  0  2.007051  0
O  O103  1  0.79429942  0.51528679  0.66878607  1  -0.386551  0  -0.084033  -0.263119  0  1.962674  0
O  O104  1  0.14760834  0.25771701  0.54011693  1  -0.411529  0  -0.096439  -0.280748  0  1.965796  0
O  O105  1  0.57011246  0.24340377  0.49422603  1  -0.374852  0  -0.075871  -0.240755  0  1.916383  0
O  O106  1  0.70033713  0.33160377  0.45003432  1  -0.38717  0  -0.087989  -0.269615  0  2.034883  0
O  O107  1  0.25722855  0.29440978  0.44523934  1  -0.378632  0  -0.086469  -0.257192  0  1.956841  0
O  O108  1  0.70030139  0.04823412  0.66494250  1  -0.384594  0  -0.088144  -0.269872  0  2.034861  0
O  O109  1  0.25720527  0.01583335  0.62775886  1  -0.375856  0  -0.086361  -0.257248  0  1.957387  0
O  O110  1  0.14756743  0.88427241  0.59106849  1  -0.404358  0  -0.096509  -0.280846  0  1.965643  0
O  O111  1  0.57008340  0.91583992  0.57675301  1  -0.372383  0  -0.0757  -0.240447  0  1.915654  0
O  O112  1  0.37231993  0.05806211  0.85876964  1  -0.40444  0  -0.08708  -0.26438  0  2.006971  0
O  O113  1  0.79431757  0.01316679  0.84863048  1  -0.385407  0  -0.083976  -0.263176  0  1.962487  0
O  O114  1  0.92233704  0.89391596  0.76001071  1  -0.415318  0  -0.100217  -0.295572  0  2.011517  0
O  O115  1  0.50430144  0.91193260  0.80746548  1  -0.372957  0  -0.077076  -0.240158  0  1.908913  0
O  O116  1  0.92236837  0.77275750  0.57334995  1  -0.416545  0  -0.100452  -0.295678  0  2.011387  0
O  O117  1  0.50433460  0.75473604  0.52588593  1  -0.373575  0  -0.076966  -0.23995  0  1.908851  0
O  O118  1  0.37223941  0.60861491  0.47457381  1  -0.405153  0  -0.086978  -0.264248  0  2.007228  0
O  O119  1  0.79429735  0.65350434  0.48471834  1  -0.382335  0  -0.083876  -0.26301  0  1.962865  0
O  O120  1  0.14754477  0.78238609  0.74226553  1  -0.404931  0  -0.096417  -0.28068  0  1.965844  0
O  O121  1  0.57006859  0.75082656  0.75659824  1  -0.37627  0  -0.075869  -0.240632  0  1.915949  0
O  O122  1  0.70031746  0.61842717  0.66840090  1  -0.386507  0  -0.088044  -0.269796  0  2.03491  0
O  O123  1  0.25721749  0.65083232  0.70558888  1  -0.374979  0  -0.086466  -0.257208  0  1.956815  0
O  O124  1  0.70032381  0.11671215  0.95177146  1  -0.387775  0  -0.088171  -0.269926  0  2.035173  0
O  O125  1  0.25725610  0.11192534  0.98417856  1  -0.376881  0  -0.086354  -0.257142  0  1.956956  0
O  O126  1  0.14757455  0.20680114  0.11572745  1  -0.403567  0  -0.09669  -0.281047  0  1.965952  0
O  O127  1  0.57011186  0.16092008  0.08417260  1  -0.371403  0  -0.075807  -0.240625  0  1.915711  0
O  O128  1  0.37237009  0.30070907  0.94193537  1  -0.399426  0  -0.08699  -0.26421  0  2.00671  0
O  O129  1  0.79437269  0.33546460  0.98683693  1  -0.382948  0  -0.084013  -0.263236  0  1.963069  0
O  O130  1  0.92240352  0.36609171  0.10608247  1  -0.423113  0  -0.100351  -0.295631  0  2.011394  0
O  O131  1  0.50435231  0.39553219  0.08806766  1  -0.376184  0  -0.077025  -0.240022  0  1.908878  0
O  O132  1  0.92237652  0.30059507  0.22725022  1  -0.422399  0  -0.100396  -0.295542  0  2.011493  0
O  O133  1  0.50434259  0.27114626  0.24526070  1  -0.376219  0  -0.076985  -0.239898  0  1.908725  0
O  O134  1  0.37224780  0.36595710  0.39138277  1  -0.398849  0  -0.087029  -0.264333  0  2.007221  0
O  O135  1  0.79428953  0.33121088  0.34649296  1  -0.385808  0  -0.083921  -0.26305  0  1.962993  0
O  O136  1  0.14755823  0.45987807  0.21760807  1  -0.404072  0  -0.096399  -0.280619  0  1.965933  0
O  O137  1  0.57009674  0.50576938  0.24916677  1  -0.371449  0  -0.075958  -0.240779  0  1.915903  0
O  O138  1  0.70034009  0.54996749  0.38156820  1  -0.387544  0  -0.088069  -0.26979  0  2.034849  0
O  O139  1  0.25726350  0.55475340  0.34915818  1  -0.375683  0  -0.086478  -0.257262  0  1.956962  0
