# generated using pymatgen
data_ZnH16C24(NO)4
_symmetry_space_group_name_H-M   'P 1'
_cell_length_a   11.51726955
_cell_length_b   19.06978658
_cell_length_c   19.06976678
_cell_angle_alpha   120.00013399
_cell_angle_beta   90.00009210
_cell_angle_gamma   89.99982764
_symmetry_Int_Tables_number   1
_chemical_formula_structural   ZnH16C24(NO)4
_chemical_formula_sum   'Zn6 H96 C144 N24 O24'
_cell_volume   3627.19405188
_cell_formula_units_Z   6
loop_
 _symmetry_equiv_pos_site_id
 _symmetry_equiv_pos_as_xyz
  1  'x, y, z'
loop_
 _atom_site_type_symbol
 _atom_site_label
 _atom_site_symmetry_multiplicity
 _atom_site_fract_x
 _atom_site_fract_y
 _atom_site_fract_z
 _atom_site_occupancy
 _atom_site_pbe_bader_charge
 _atom_site_pbe_bader_spin_density
 _atom_site_pbe_cm5_charge
 _atom_site_pbe_ddec_charge
 _atom_site_pbe_ddec_spin_density
 _atom_site_pbe_ddec_sum_bond_order
 _atom_site_pbe_magmom
Zn  Zn0  1  0.80994944  0.99628901  0.29818882  1  1.255673  0  0.69915  0.775968  0  2.417369  0
Zn  Zn1  1  0.80994991  0.30189834  0.00370948  1  1.253902  0  0.69915  0.775967  0  2.417389  0
Zn  Zn2  1  0.80994897  0.70180993  0.69810059  1  1.256015  0  0.699126  0.775918  0  2.417476  0
Zn  Zn3  1  0.69159488  0.36274219  0.33175231  1  1.265835  0  0.70391  0.795267  0  2.376939  0
Zn  Zn4  1  0.69159117  0.96901142  0.63725932  1  1.264217  0  0.703824  0.795115  0  2.377032  0
Zn  Zn5  1  0.69159459  0.66824743  0.03099009  1  1.265551  0  0.703916  0.795295  0  2.376916  0
H  H6  1  0.09766948  0.14958481  0.00230482  1  0.088324  0  0.097984  0.099013  0  1.025601  0
H  H7  1  0.09767059  0.85271826  0.85041254  1  0.073648  0  0.097957  0.099009  0  1.025554  0
H  H8  1  0.09766756  0.99769430  0.14727903  1  0.109965  0  0.097989  0.099051  0  1.025601  0
H  H9  1  0.01303650  0.31344370  0.25139880  1  0.108956  0  0.106819  0.116017  0  0.999279  0
H  H10  1  0.01303552  0.93795453  0.68655519  1  0.107583  0  0.106824  0.116005  0  0.999346  0
H  H11  1  0.01303516  0.74860125  0.06204366  1  0.11231  0  0.106832  0.116041  0  0.99929  0
H  H12  1  0.16603999  0.25026227  0.29466489  1  0.006894  0  0.098437  0.096619  0  1.007249  0
H  H13  1  0.16603764  0.04440209  0.74973736  1  0.037841  0  0.098452  0.096622  0  1.007209  0
H  H14  1  0.16603974  0.70533467  0.95559755  1  0.063951  0  0.098449  0.096627  0  1.007252  0
H  H15  1  0.24998965  0.08645661  0.04395290  1  0.054775  0  0.095588  0.08866  0  1.047405  0
H  H16  1  0.24998951  0.95749510  0.91354240  1  0.055177  0  0.095579  0.088627  0  1.047389  0
H  H17  1  0.24998748  0.95604645  0.04250412  1  0.05051  0  0.095579  0.088646  0  1.047448  0
H  H18  1  0.42895483  0.10917957  0.10310614  1  0.059807  0  0.102569  0.104656  0  1.005109  0
H  H19  1  0.42895368  0.99392686  0.89082116  1  0.059051  0  0.102564  0.104663  0  1.005169  0
H  H20  1  0.42895448  0.89689357  0.00607507  1  0.066561  0  0.102569  0.104661  0  1.005168  0
H  H21  1  0.21221182  0.13558326  0.29885898  1  0.043127  0  0.093296  0.086558  0  1.039972  0
H  H22  1  0.21221163  0.16327645  0.86441624  1  0.032443  0  0.093295  0.086531  0  1.040003  0
H  H23  1  0.21221460  0.70113958  0.83672314  1  0.022031  0  0.093303  0.086601  0  1.039981  0
H  H24  1  0.37618403  0.08814438  0.35081703  1  0.061866  0  0.098868  0.09764  0  1.006538  0
H  H25  1  0.37618260  0.26267338  0.91185491  1  0.061194  0  0.098876  0.097637  0  1.006494  0
H  H26  1  0.37618575  0.64918192  0.73732667  1  0.059231  0  0.098871  0.097665  0  1.006526  0
H  H27  1  0.58864392  0.05775753  0.15319305  1  0.066227  0  0.097055  0.096304  0  1.038997  0
H  H28  1  0.58864314  0.09543561  0.94224342  1  0.076222  0  0.097034  0.096252  0  1.039004  0
H  H29  1  0.58864295  0.84680769  0.90456570  1  0.080053  0  0.097061  0.096328  0  1.03895  0
H  H30  1  0.83657507  0.81618537  0.26550939  1  0.200539  0  0.143597  0.127911  0  1.009899  0
H  H31  1  0.83657501  0.44932186  0.18381328  1  0.199285  0  0.143618  0.127905  0  1.009893  0
H  H32  1  0.83657566  0.73448951  0.55067879  1  0.209506  0  0.143608  0.127907  0  1.009857  0
H  H33  1  0.63817699  0.01244433  0.43762783  1  0.115061  0  0.114107  0.113901  0  1.03386  0
H  H34  1  0.63817495  0.42518404  0.98755592  1  0.122451  0  0.11411  0.113905  0  1.033889  0
H  H35  1  0.63817580  0.56236897  0.57481446  1  0.11147  0  0.114106  0.113909  0  1.033855  0
H  H36  1  0.60241725  0.88042844  0.46125764  1  0.184891  0  0.126644  0.1352  0  1.033533  0
H  H37  1  0.60241667  0.58082956  0.11957236  1  0.185949  0  0.126646  0.135196  0  1.033522  0
H  H38  1  0.60241544  0.53874201  0.41916983  1  0.173756  0  0.126654  0.13522  0  1.033527  0
H  H39  1  0.72203950  0.69029850  0.21582192  1  0.14788  0  0.121477  0.152674  0  1.019944  0
H  H40  1  0.72203916  0.52552297  0.30970214  1  0.146934  0  0.121484  0.152697  0  1.020005  0
H  H41  1  0.72204047  0.78417919  0.47447796  1  0.154514  0  0.121479  0.152698  0  1.020031  0
H  H42  1  0.75008603  0.15242034  0.47768346  1  0.157581  0  0.137739  0.107863  0  1.01648  0
H  H43  1  0.75008609  0.32526314  0.84758036  1  0.157549  0  0.137768  0.107944  0  1.016524  0
H  H44  1  0.75008797  0.52231648  0.67473672  1  0.162592  0  0.137766  0.107935  0  1.016401  0
H  H45  1  0.04983495  0.09001259  0.33287859  1  0.115179  0  0.125999  0.123608  0  1.014096  0
H  H46  1  0.04983534  0.24286528  0.90998603  1  0.13419  0  0.125983  0.123558  0  1.014128  0
H  H47  1  0.04983407  0.66712178  0.75713485  1  0.138142  0  0.126  0.123595  0  1.014117  0
H  H48  1  0.09546366  0.23172462  0.48090203  1  0.153104  0  0.130143  0.131376  0  0.986587  0
H  H49  1  0.09546313  0.24917710  0.76827414  1  0.129122  0  0.130177  0.131419  0  0.986589  0
H  H50  1  0.09546678  0.51909849  0.75082158  1  0.125909  0  0.130167  0.131406  0  0.986554  0
H  H51  1  0.91023466  0.37111894  0.55815702  1  0.19659  0  0.119221  0.160691  0  1.024245  0
H  H52  1  0.91023261  0.18703958  0.62888112  1  0.210165  0  0.119223  0.160709  0  1.024284  0
H  H53  1  0.91023482  0.44184335  0.81296112  1  0.176849  0  0.119216  0.160706  0  1.024249  0
H  H54  1  0.01303018  0.43136406  0.94392646  1  0.058717  0  0.089138  0.083338  0  1.058091  0
H  H55  1  0.01302687  0.51256200  0.56863591  1  0.046089  0  0.089111  0.083288  0  1.058091  0
H  H56  1  0.01302443  0.05607300  0.48743884  1  0.055623  0  0.089134  0.083327  0  1.058102  0
H  H57  1  0.97072000  0.65302167  0.16883832  1  0.09752  0  0.103253  0.109797  0  1.003633  0
H  H58  1  0.97071884  0.51581813  0.34697930  1  0.097129  0  0.103264  0.109829  0  1.003653  0
H  H59  1  0.97071737  0.83116035  0.48418218  1  0.095042  0  0.103254  0.109819  0  1.003634  0
H  H60  1  0.12404902  0.61039171  0.23177877  1  0.033767  0  0.096488  0.093666  0  1.020978  0
H  H61  1  0.12404747  0.62138702  0.38960922  1  0.042207  0  0.096495  0.093698  0  1.020949  0
H  H62  1  0.12404796  0.76822374  0.37861479  1  0.06392  0  0.096491  0.093691  0  1.021  0
H  H63  1  0.16353694  0.38614064  0.00659206  1  0.042868  0  0.094072  0.090245  0  1.028775  0
H  H64  1  0.16353543  0.62045000  0.61385836  1  0.040187  0  0.094012  0.090176  0  1.028898  0
H  H65  1  0.16353419  0.99340833  0.37955260  1  0.037463  0  0.094001  0.090164  0  1.028924  0
H  H66  1  0.18419831  0.34212608  0.09440074  1  0.061188  0  0.095946  0.096232  0  1.033011  0
H  H67  1  0.18419891  0.75227242  0.65787360  1  0.055202  0  0.095947  0.096224  0  1.032959  0
H  H68  1  0.18419711  0.90560073  0.24772838  1  0.065367  0  0.095991  0.096293  0  1.032947  0
H  H69  1  0.32470603  0.58328189  0.23251788  1  0.053372  0  0.095604  0.094256  0  1.026648  0
H  H70  1  0.32470611  0.64923241  0.41671669  1  0.059841  0  0.095581  0.094203  0  1.026665  0
H  H71  1  0.32470659  0.76748119  0.35076420  1  0.053581  0  0.095598  0.094241  0  1.026653  0
H  H72  1  0.47790313  0.53093073  0.28672746  1  0.054995  0  0.095953  0.096852  0  1.024169  0
H  H73  1  0.47790194  0.75579531  0.46906822  1  0.075031  0  0.095981  0.096887  0  1.024126  0
H  H74  1  0.47790088  0.71327250  0.24420174  1  0.060886  0  0.095985  0.09691  0  1.024117  0
H  H75  1  0.33906595  0.29067206  0.14756740  1  0.074527  0  0.101362  0.105727  0  1.022266  0
H  H76  1  0.33906528  0.85689354  0.70932785  1  0.124199  0  0.101345  0.105675  0  1.022306  0
H  H77  1  0.33906194  0.85243465  0.14310711  1  0.091567  0  0.10135  0.105636  0  1.022292  0
H  H78  1  0.68847707  0.21638686  0.14376845  1  0.163249  0  0.148674  0.126897  0  0.974198  0
H  H79  1  0.68847181  0.92738126  0.78361372  1  0.168072  0  0.14869  0.126864  0  0.97425  0
H  H80  1  0.68847625  0.85623202  0.07262045  1  0.174522  0  0.14869  0.126866  0  0.974318  0
H  H81  1  0.86045468  0.24180380  0.35045018  1  0.107178  0  0.115357  0.110115  0  1.020981  0
H  H82  1  0.86045295  0.10864322  0.75819506  1  0.09476  0  0.115322  0.110044  0  1.020925  0
H  H83  1  0.86045091  0.64955077  0.89135403  1  0.14706  0  0.115366  0.110132  0  1.021007  0
H  H84  1  0.91199661  0.08872846  0.21880632  1  0.158154  0  0.123456  0.129491  0  1.047044  0
H  H85  1  0.91199743  0.13007413  0.91127005  1  0.149787  0  0.123486  0.129514  0  1.047064  0
H  H86  1  0.91199228  0.78119341  0.86992246  1  0.154425  0  0.123466  0.129507  0  1.04709  0
H  H87  1  0.80298080  0.13973050  0.02015762  1  0.151105  0  0.119501  0.145984  0  1.024628  0
H  H88  1  0.80297920  0.88042726  0.86026926  1  0.143581  0  0.119513  0.146018  0  1.024651  0
H  H89  1  0.80298057  0.97984307  0.11957371  1  0.1497  0  0.119497  0.145975  0  1.024627  0
H  H90  1  0.47817737  0.25765894  0.32724756  1  0.202919  0  0.126408  0.133459  0  1.017948  0
H  H91  1  0.47817405  0.06959040  0.74234029  1  0.153358  0  0.126414  0.13346  0  1.017938  0
H  H92  1  0.47817540  0.67275465  0.93041354  1  0.160496  0  0.126431  0.133524  0  1.017845  0
H  H93  1  0.42935093  0.22937830  0.45465823  1  0.117143  0  0.12413  0.122441  0  1.016893  0
H  H94  1  0.42934876  0.22528279  0.77062307  1  0.099509  0  0.124081  0.122392  0  1.016894  0
H  H95  1  0.42935057  0.54534424  0.77471887  1  0.129495  0  0.124139  0.122422  0  1.016835  0
H  H96  1  0.69945974  0.40383918  0.52215315  1  0.190475  0  0.133186  0.107472  0  1.043645  0
H  H97  1  0.69945882  0.11831588  0.59616159  1  0.187976  0  0.1332  0.107471  0  1.043627  0
H  H98  1  0.69945917  0.47784700  0.88168593  1  0.193248  0  0.133192  0.107452  0  1.043669  0
H  H99  1  0.56198102  0.45914384  0.65692890  1  0.116803  0  0.122897  0.14932  0  0.991526  0
H  H100  1  0.56198065  0.19778889  0.54085879  1  0.105437  0  0.122888  0.149322  0  0.991483  0
H  H101  1  0.56198150  0.34307413  0.80221376  1  0.097386  0  0.122869  0.149272  0  0.991436  0
C  C102  1  0.95423777  0.27494048  0.10104482  1  1.539591  0  0.192468  0.548981  0  4.254759  0
C  C103  1  0.95423897  0.82610372  0.72505774  1  1.529045  0  0.192531  0.549106  0  4.254751  0
C  C104  1  0.95423718  0.89895452  0.17389453  1  1.538221  0  0.192484  0.549034  0  4.254677  0
C  C105  1  0.04561282  0.23521300  0.12465860  1  -0.007297  0  -0.024065  -0.044999  0  3.993513  0
C  C106  1  0.04561638  0.88944405  0.76478407  1  -0.009555  0  -0.024065  -0.045066  0  3.993566  0
C  C107  1  0.04561207  0.87534056  0.11055259  1  -0.027574  0  -0.02407  -0.044987  0  3.993445  0
C  C108  1  0.11272082  0.17122864  0.06631401  1  -0.021639  0  -0.087881  -0.088804  0  3.984954  0
C  C109  1  0.11272264  0.89508570  0.82877001  1  0.046911  0  -0.087873  -0.088826  0  3.984953  0
C  C110  1  0.11271810  0.93368496  0.10491252  1  -0.071132  0  -0.087882  -0.088868  0  3.985032  0
C  C111  1  0.06497162  0.26293603  0.20692873  1  -0.066601  0  -0.080179  -0.079653  0  3.976414  0
C  C112  1  0.06497149  0.94399313  0.73706273  1  -0.074607  0  -0.080209  -0.079656  0  3.976531  0
C  C113  1  0.06497009  0.79307026  0.05600508  1  -0.056486  0  -0.080211  -0.079712  0  3.976434  0
C  C114  1  0.14953258  0.22693777  0.23042340  1  0.044311  0  -0.090406  -0.132699  0  3.984306  0
C  C115  1  0.14953299  0.00348514  0.77306107  1  0.005584  0  -0.090436  -0.132707  0  3.984311  0
C  C116  1  0.14953225  0.76957625  0.99651419  1  -0.028852  0  -0.090438  -0.132688  0  3.984414  0
C  C117  1  0.19805975  0.13584637  0.09000445  1  -0.056284  0  -0.091712  -0.131835  0  3.977509  0
C  C118  1  0.19806047  0.95415804  0.86415298  1  -0.105244  0  -0.091675  -0.131708  0  3.977465  0
C  C119  1  0.19805862  0.90999427  0.04584055  1  -0.021495  0  -0.091714  -0.131789  0  3.97767  0
C  C120  1  0.21761477  0.16285558  0.17246296  1  -0.069174  0  -0.004439  0.069356  0  4.002558  0
C  C121  1  0.21761430  0.00960798  0.83714371  1  -0.062081  0  -0.004447  0.069309  0  4.002597  0
C  C122  1  0.21761247  0.82753520  0.99039117  1  -0.042267  0  -0.004426  0.06929  0  4.002728  0
C  C123  1  0.30974003  0.12718240  0.19831847  1  -0.052579  0  -0.0036  0.073712  0  3.998936  0
C  C124  1  0.30973846  0.07113658  0.87281823  1  -0.067235  0  -0.003525  0.073849  0  3.998792  0
C  C125  1  0.30974106  0.80168050  0.92886333  1  -0.077613  0  -0.003558  0.073833  0  3.998919  0
C  C126  1  0.41553855  0.10253193  0.15612576  1  -0.000788  0  -0.085676  -0.120844  0  3.962843  0
C  C127  1  0.41553705  0.05359497  0.89746948  1  0.021705  0  -0.085742  -0.120997  0  3.962836  0
C  C128  1  0.41553775  0.84387439  0.94640691  1  0.019297  0  -0.085692  -0.120868  0  3.962852  0
C  C129  1  0.29560832  0.11964711  0.26759251  1  -0.049998  0  -0.096571  -0.143742  0  4.00094  0
C  C130  1  0.29560646  0.14794523  0.88035258  1  -0.027504  0  -0.096578  -0.143739  0  4.000971  0
C  C131  1  0.29560930  0.73240726  0.85205381  1  -0.063666  0  -0.096643  -0.143964  0  4.001174  0
C  C132  1  0.38624101  0.09315425  0.29660348  1  -0.063654  0  -0.089048  -0.097419  0  4.017447  0
C  C133  1  0.38623895  0.20344955  0.90684507  1  -0.073333  0  -0.089074  -0.097388  0  4.01752  0
C  C134  1  0.38624450  0.70339563  0.79654923  1  -0.028947  0  -0.08903  -0.097361  0  4.017487  0
C  C135  1  0.50564074  0.07503308  0.18463876  1  -0.039555  0  -0.084587  -0.084555  0  3.968963  0
C  C136  1  0.50563903  0.10960661  0.92496701  1  -0.045538  0  -0.084529  -0.084385  0  3.968909  0
C  C137  1  0.50564157  0.81536031  0.89039533  1  -0.039864  0  -0.0846  -0.08457  0  3.968911  0
C  C138  1  0.49338880  0.07276012  0.25657506  1  0.015168  0  -0.017949  -0.02721  0  3.967974  0
C  C139  1  0.49338595  0.18381586  0.92724013  1  0.010306  0  -0.017924  -0.027307  0  3.968153  0
C  C140  1  0.49338961  0.74342548  0.81618553  1  -0.000984  0  -0.017929  -0.027188  0  3.967939  0
C  C141  1  0.59595835  0.05520270  0.29338494  1  1.568137  0  0.198584  0.576199  0  4.213602  0
C  C142  1  0.59595789  0.23818192  0.94479838  1  1.564108  0  0.198579  0.576198  0  4.21361  0
C  C143  1  0.59595908  0.70661567  0.76181832  1  1.56816  0  0.198644  0.576229  0  4.213508  0
C  C144  1  0.77923681  0.85198515  0.31616602  1  0.984872  0  0.155853  0.113305  0  3.864935  0
C  C145  1  0.77923668  0.46417915  0.14801390  1  0.973425  0  0.155871  0.113426  0  3.864919  0
C  C146  1  0.77923579  0.68383245  0.53581957  1  0.970166  0  0.155879  0.113367  0  3.865026  0
C  C147  1  0.67621313  0.95259799  0.40778453  1  0.426835  0  -0.003107  -0.030925  0  3.983963  0
C  C148  1  0.67621215  0.45518677  0.04740121  1  0.412253  0  -0.003075  -0.030863  0  3.984035  0
C  C149  1  0.67621248  0.59221296  0.54481200  1  0.439504  0  -0.003085  -0.030923  0  3.984221  0
C  C150  1  0.65577096  0.88806193  0.41865660  1  0.276344  0  0.008528  -0.080651  0  3.88107  0
C  C151  1  0.65576884  0.53059396  0.11193826  1  0.285183  0  0.008471  -0.080718  0  3.881146  0
C  C152  1  0.65576745  0.58134246  0.46940649  1  0.282417  0  0.008451  -0.080736  0  3.881253  0
C  C153  1  0.72560461  0.74479016  0.34656832  1  0.276546  0  0.105815  0.206956  0  4.035967  0
C  C154  1  0.72560224  0.60177731  0.25520989  1  0.261543  0  0.105779  0.206858  0  4.035939  0
C  C155  1  0.72560491  0.65343287  0.39822411  1  0.273896  0  0.105784  0.206934  0  4.035936  0
C  C156  1  0.72573491  0.68013417  0.26715835  1  0.07049  0  -0.083813  -0.26044  0  3.918672  0
C  C157  1  0.72573434  0.58702392  0.31986652  1  0.069474  0  -0.083793  -0.260457  0  3.918692  0
C  C158  1  0.72573410  0.73284174  0.41297694  1  0.07194  0  -0.083823  -0.260518  0  3.918783  0
C  C159  1  0.83830656  0.15351384  0.45862737  1  0.996038  0  0.157369  0.115881  0  3.881605  0
C  C160  1  0.83830583  0.30511439  0.84648597  1  0.988772  0  0.157296  0.115751  0  3.881637  0
C  C161  1  0.83830851  0.54137240  0.69488629  1  0.980996  0  0.157303  0.115794  0  3.881542  0
C  C162  1  0.99545489  0.12509796  0.38543392  1  0.45756  0  0.011825  -0.018441  0  3.980373  0
C  C163  1  0.99545521  0.26033562  0.87490054  1  0.381825  0  0.011843  -0.018397  0  3.980456  0
C  C164  1  0.99545675  0.61456664  0.73966520  1  0.378868  0  0.011853  -0.018376  0  3.980498  0
C  C165  1  0.01888047  0.19407149  0.45736089  1  0.239832  0  0.006205  -0.103657  0  3.906514  0
C  C166  1  0.01887989  0.26328972  0.80592845  1  0.315739  0  0.006188  -0.103724  0  3.906672  0
C  C167  1  0.01888344  0.54263965  0.73671005  1  0.315438  0  0.006164  -0.103707  0  3.906598  0
C  C168  1  0.90837339  0.27348458  0.58615447  1  0.337514  0  0.097635  0.19519  0  4.026087  0
C  C169  1  0.90837261  0.31267067  0.72651579  1  0.276859  0  0.097692  0.195211  0  4.026096  0
C  C170  1  0.90837491  0.41384632  0.68732931  1  0.288234  0  0.09766  0.195186  0  4.026047  0
C  C171  1  0.90813357  0.35437000  0.60543502  1  -0.036072  0  -0.077928  -0.246577  0  3.893999  0
C  C172  1  0.90813128  0.25106624  0.64563056  1  0.00341  0  -0.077974  -0.246674  0  3.894036  0
C  C173  1  0.90813366  0.39456534  0.74893398  1  0.023006  0  -0.077971  -0.246632  0  3.893922  0
C  C174  1  0.88734347  0.56797438  0.01429553  1  1.552614  0  0.198236  0.573454  0  4.237275  0
C  C175  1  0.88734172  0.44632144  0.43202337  1  1.548015  0  0.198085  0.573334  0  4.237314  0
C  C176  1  0.88734401  0.98570330  0.55367900  1  1.541717  0  0.198231  0.57351  0  4.237254  0
C  C177  1  0.98213341  0.54447660  0.05242696  1  0.043066  0  -0.025466  -0.039358  0  3.976477  0
C  C178  1  0.98213143  0.50795080  0.45552249  1  -0.037515  0  -0.025487  -0.039447  0  3.976514  0
C  C179  1  0.98213299  0.94757161  0.49205043  1  0.004904  0  -0.025515  -0.039457  0  3.976516  0
C  C180  1  0.03758327  0.46966720  0.00711178  1  -0.059792  0  -0.095921  -0.097542  0  4.024524  0
C  C181  1  0.03757945  0.53744403  0.53033148  1  0.024378  0  -0.095759  -0.097304  0  4.024382  0
C  C182  1  0.03757910  0.99288794  0.46255779  1  -0.059646  0  -0.095731  -0.097255  0  4.02438  0
C  C183  1  0.01428159  0.59486047  0.13362938  1  -0.077889  0  -0.086086  -0.08704  0  3.976096  0
C  C184  1  0.01427949  0.53876965  0.40513933  1  -0.083639  0  -0.086079  -0.087042  0  3.976029  0
C  C185  1  0.01427962  0.86636919  0.46123121  1  -0.052748  0  -0.086106  -0.08709  0  3.976037  0
C  C186  1  0.10009978  0.57063338  0.16849741  1  0.017641  0  -0.091928  -0.133181  0  3.978336  0
C  C187  1  0.10009920  0.59786364  0.42936678  1  -0.031335  0  -0.091943  -0.133217  0  3.978297  0
C  C188  1  0.10010031  0.83150364  0.40213732  1  -0.067806  0  -0.091924  -0.133186  0  3.978359  0
C  C189  1  0.12122473  0.44472850  0.04237993  1  0.027211  0  -0.097043  -0.137768  0  3.994387  0
C  C190  1  0.12122243  0.59764923  0.55527050  1  -0.048558  0  -0.097037  -0.137743  0  3.99444  0
C  C191  1  0.12122393  0.95762136  0.40235260  1  0.003625  0  -0.097052  -0.137833  0  3.994599  0
C  C192  1  0.15428376  0.49464692  0.12375120  1  -0.143915  0  -0.004266  0.077845  0  3.992074  0
C  C193  1  0.15428220  0.62910289  0.50535292  1  -0.022651  0  -0.004334  0.077734  0  3.99206  0
C  C194  1  0.15428401  0.87625062  0.37089853  1  -0.019886  0  -0.004315  0.077798  0  3.992187  0
C  C195  1  0.24378687  0.46624391  0.15911182  1  -0.032831  0  -0.006159  0.072906  0  3.999025  0
C  C196  1  0.24378680  0.69286686  0.53375686  1  -0.067864  0  -0.006167  0.072901  0  3.999023  0
C  C197  1  0.24378787  0.84088942  0.30713398  1  -0.063689  0  -0.006162  0.072933  0  3.999105  0
C  C198  1  0.24948891  0.38365841  0.13559105  1  -0.053815  0  -0.092751  -0.132286  0  3.974888  0
C  C199  1  0.24948864  0.75193022  0.61634203  1  0.02907  0  -0.092738  -0.132239  0  3.974781  0
C  C200  1  0.24948613  0.86441065  0.24807049  1  -0.034358  0  -0.092762  -0.132325  0  3.974931  0
C  C201  1  0.32640535  0.51924389  0.21478343  1  0.001331  0  -0.096847  -0.144845  0  3.995782  0
C  C202  1  0.32640440  0.69553614  0.48075534  1  -0.012539  0  -0.09678  -0.14472  0  3.995717  0
C  C203  1  0.32640567  0.78521702  0.30446157  1  -0.02803  0  -0.096839  -0.144846  0  3.995772  0
C  C204  1  0.41284522  0.49003902  0.24459133  1  -0.0337  0  -0.089949  -0.091815  0  3.994936  0
C  C205  1  0.41284491  0.75454929  0.50996040  1  -0.067463  0  -0.089977  -0.09184  0  3.994946  0
C  C206  1  0.41284456  0.75541002  0.24544710  1  -0.020862  0  -0.089996  -0.091859  0  3.994874  0
C  C207  1  0.33524807  0.35457127  0.16552454  1  0.000745  0  -0.081061  -0.076552  0  3.970912  0
C  C208  1  0.33524670  0.81095240  0.64542897  1  -0.091804  0  -0.081095  -0.076584  0  3.970986  0
C  C209  1  0.33524690  0.83447846  0.18905011  1  -0.032186  0  -0.081118  -0.076483  0  3.971029  0
C  C210  1  0.41838751  0.40737904  0.21999033  1  -0.058521  0  -0.021749  -0.034456  0  3.973695  0
C  C211  1  0.41838525  0.81260965  0.59262039  1  -0.046306  0  -0.021767  -0.034519  0  3.973769  0
C  C212  1  0.41838480  0.78001180  0.18738909  1  -0.042189  0  -0.021724  -0.034518  0  3.97379  0
C  C213  1  0.50994579  0.37362505  0.25031060  1  1.548764  0  0.196782  0.563452  0  4.217691  0
C  C214  1  0.50994156  0.87668632  0.62637611  1  1.570009  0  0.196823  0.563564  0  4.217585  0
C  C215  1  0.50994381  0.74969098  0.12331521  1  1.548607  0  0.196853  0.563635  0  4.217482  0
C  C216  1  0.74365603  0.20403148  0.18239793  1  1.025078  0  0.16217  0.12745  0  3.859713  0
C  C217  1  0.74365144  0.97836455  0.79596839  1  1.010853  0  0.162135  0.127528  0  3.859697  0
C  C218  1  0.74365255  0.81760291  0.02163527  1  0.998162  0  0.162177  0.127583  0  3.859708  0
C  C219  1  0.83247234  0.21294990  0.28786915  1  0.366134  0  0.000676  -0.027997  0  3.981477  0
C  C220  1  0.83246987  0.07491707  0.78704866  1  0.399256  0  0.000752  -0.027818  0  3.981359  0
C  C221  1  0.83246934  0.71213150  0.92508086  1  0.347701  0  0.000685  -0.027988  0  3.981578  0
C  C222  1  0.85945366  0.13832156  0.22405404  1  0.337267  0  0.005442  -0.088189  0  3.89225  0
C  C223  1  0.85945290  0.08573087  0.86167813  1  0.329804  0  0.00544  -0.088155  0  3.892229  0
C  C224  1  0.85945125  0.77594693  0.91426868  1  0.335595  0  0.005436  -0.088169  0  3.892374  0
C  C225  1  0.80406899  0.06614689  0.07766878  1  0.330175  0  0.106517  0.210445  0  4.0241  0
C  C226  1  0.80406853  0.01152169  0.93385287  1  0.324457  0  0.106451  0.210394  0  4.024097  0
C  C227  1  0.80406720  0.92233071  0.98847836  1  0.333337  0  0.10649  0.210445  0  4.024054  0
C  C228  1  0.80411402  0.07891416  0.01171874  1  0.008572  0  -0.083868  -0.255899  0  3.911338  0
C  C229  1  0.80411223  0.93280420  0.92108528  1  -0.000698  0  -0.083869  -0.255924  0  3.911301  0
C  C230  1  0.80411443  0.98828058  0.06719531  1  0.007025  0  -0.08388  -0.255921  0  3.911317  0
C  C231  1  0.51443424  0.28428780  0.38771376  1  0.414043  0  0.010756  -0.011802  0  3.944561  0
C  C232  1  0.51443078  0.10342879  0.71571218  1  0.490901  0  0.010753  -0.011846  0  3.944697  0
C  C233  1  0.51443323  0.61228498  0.89657252  1  0.420754  0  0.010712  -0.011993  0  3.944748  0
C  C234  1  0.48931035  0.27038822  0.44983330  1  0.265723  0  0.001393  -0.098321  0  3.916676  0
C  C235  1  0.48930921  0.17944684  0.72961248  1  0.272646  0  0.001438  -0.098211  0  3.916766  0
C  C236  1  0.48931448  0.55017026  0.82055635  1  0.297809  0  0.001441  -0.098133  0  3.917032  0
C  C237  1  0.62851069  0.36365428  0.48822068  1  0.96587  0  0.144407  0.099397  0  3.884082  0
C  C238  1  0.62850975  0.12456877  0.63634677  1  0.946577  0  0.144439  0.099492  0  3.88401  0
C  C239  1  0.62851084  0.51178055  0.87543395  1  0.950444  0  0.144405  0.099465  0  3.884085  0
C  C240  1  0.56493161  0.32772103  0.59108006  1  0.325952  0  0.104589  0.214215  0  4.033481  0
C  C241  1  0.56493188  0.26336258  0.67228210  1  0.361776  0  0.104546  0.214145  0  4.033435  0
C  C242  1  0.56493334  0.40892233  0.73664020  1  0.333359  0  0.104656  0.21427  0  4.033367  0
C  C243  1  0.56489505  0.40406271  0.66092706  1  0.025079  0  -0.087079  -0.268019  0  3.915966  0
C  C244  1  0.56489446  0.25686845  0.59594020  1  0.018218  0  -0.087046  -0.267979  0  3.915958  0
C  C245  1  0.56489358  0.33907351  0.74313323  1  0.011246  0  -0.087095  -0.267958  0  3.915926  0
N  N246  1  0.75358648  0.92938053  0.34421936  1  -1.243122  0  -0.356922  -0.276259  0  3.62583  0
N  N247  1  0.75358479  0.41483721  0.07061786  1  -1.247109  0  -0.356929  -0.27638  0  3.62587  0
N  N248  1  0.75358488  0.65577804  0.58516121  1  -1.245572  0  -0.3569  -0.276296  0  3.626103  0
N  N249  1  0.72150798  0.82481727  0.36011559  1  -1.281246  0  -0.221058  0.012413  0  3.792066  0
N  N250  1  0.72150758  0.53529745  0.17518223  1  -1.270587  0  -0.221078  0.012422  0  3.792006  0
N  N251  1  0.72150597  0.63988324  0.46470272  1  -1.279607  0  -0.221082  0.012427  0  3.792041  0
N  N252  1  0.88292394  0.10110225  0.38723961  1  -1.217507  0  -0.344408  -0.264633  0  3.579571  0
N  N253  1  0.88292416  0.28613684  0.89889663  1  -1.20694  0  -0.344378  -0.264565  0  3.579576  0
N  N254  1  0.88292658  0.61276060  0.71386317  1  -1.209137  0  -0.344385  -0.26463  0  3.579576  0
N  N255  1  0.91831850  0.21132934  0.50338268  1  -1.277687  0  -0.227208  -0.001176  0  3.794089  0
N  N256  1  0.91831868  0.29205413  0.78867047  1  -1.273843  0  -0.227222  -0.001141  0  3.794131  0
N  N257  1  0.91832240  0.49661703  0.70794536  1  -1.26937  0  -0.227209  -0.00118  0  3.794127  0
N  N258  1  0.76010870  0.25262036  0.26102214  1  -1.23713  0  -0.351623  -0.271411  0  3.611038  0
N  N259  1  0.76010474  0.00840075  0.74738007  1  -1.235842  0  -0.351577  -0.271405  0  3.611047  0
N  N260  1  0.76010672  0.73897821  0.99159893  1  -1.236487  0  -0.351626  -0.271466  0  3.611029  0
N  N261  1  0.80319546  0.13356116  0.15737139  1  -1.254564  0  -0.222902  0.002551  0  3.784715  0
N  N262  1  0.80319233  0.02380902  0.86643833  1  -1.257026  0  -0.222951  0.00236  0  3.784858  0
N  N263  1  0.80319218  0.84262881  0.97619060  1  -1.262168  0  -0.222952  0.002388  0  3.784787  0
N  N264  1  0.60171784  0.34181797  0.41241010  1  -1.232234  0  -0.341992  -0.263721  0  3.559964  0
N  N265  1  0.60171537  0.07059398  0.65818278  1  -1.229808  0  -0.342002  -0.263695  0  3.559756  0
N  N266  1  0.60171618  0.58759194  0.92940934  1  -1.236741  0  -0.341997  -0.263675  0  3.559861  0
N  N267  1  0.56143851  0.32148414  0.51378558  1  -1.276057  0  -0.228781  -0.005637  0  3.790761  0
N  N268  1  0.56143818  0.19230421  0.67851743  1  -1.273475  0  -0.228789  -0.005737  0  3.790873  0
N  N269  1  0.56143849  0.48621655  0.80769830  1  -1.263374  0  -0.22883  -0.005789  0  3.79102  0
O  O270  1  0.67892770  0.01486527  0.24314318  1  -1.17363  0  -0.339528  -0.562163  0  2.326504  0
O  O271  1  0.67892729  0.22827698  0.98513476  1  -1.175212  0  -0.339537  -0.562159  0  2.326525  0
O  O272  1  0.67892742  0.75685864  0.77172393  1  -1.176231  0  -0.33954  -0.562134  0  2.326461  0
O  O273  1  0.59888876  0.08152020  0.36839662  1  -1.204034  0  -0.341005  -0.589918  0  2.128729  0
O  O274  1  0.59888812  0.28687719  0.91848089  1  -1.195254  0  -0.341009  -0.589917  0  2.128692  0
O  O275  1  0.59888959  0.63160350  0.71312352  1  -1.204511  0  -0.341037  -0.589967  0  2.128703  0
O  O276  1  0.94506976  0.24905922  0.02355807  1  -1.184301  0  -0.34307  -0.57765  0  2.349695  0
O  O277  1  0.94506942  0.77449859  0.75093948  1  -1.189275  0  -0.343068  -0.577663  0  2.349751  0
O  O278  1  0.94506996  0.97644145  0.22550006  1  -1.189997  0  -0.343034  -0.577648  0  2.349725  0
O  O279  1  0.89052296  0.32872774  0.15322866  1  -1.184237  0  -0.317997  -0.544288  0  2.15135  0
O  O280  1  0.89052328  0.82449938  0.67126960  1  -1.173618  0  -0.318018  -0.544337  0  2.15135  0
O  O281  1  0.89052169  0.84677116  0.17549943  1  -1.177849  0  -0.318005  -0.544311  0  2.151268  0
O  O282  1  0.50895786  0.30029624  0.23045097  1  -1.181687  0  -0.324453  -0.557469  0  2.139371  0
O  O283  1  0.50895431  0.93015276  0.69970221  1  -1.190551  0  -0.324438  -0.557453  0  2.13939  0
O  O284  1  0.50895648  0.76955104  0.06984581  1  -1.184058  0  -0.324476  -0.557541  0  2.139248  0
O  O285  1  0.58911380  0.42422480  0.29791559  1  -1.179051  0  -0.340191  -0.570001  0  2.31262  0
O  O286  1  0.58911131  0.87369130  0.57577511  1  -1.177782  0  -0.340187  -0.570008  0  2.312591  0
O  O287  1  0.58911288  0.70208582  0.12631041  1  -1.176778  0  -0.340215  -0.570079  0  2.312596  0
O  O288  1  0.82588177  0.62916755  0.06501270  1  -1.177682  0  -0.331829  -0.552568  0  2.367339  0
O  O289  1  0.82588439  0.43584452  0.37082861  1  -1.174816  0  -0.331764  -0.552519  0  2.367323  0
O  O290  1  0.82588254  0.93498759  0.56415515  1  -1.177912  0  -0.331827  -0.552619  0  2.367361  0
O  O291  1  0.87142262  0.52826870  0.93877998  1  -1.200209  0  -0.34913  -0.604395  0  2.156123  0
O  O292  1  0.87141969  0.41051268  0.47173055  1  -1.190894  0  -0.349048  -0.604311  0  2.156129  0
O  O293  1  0.87142159  0.06121707  0.58948702  1  -1.193259  0  -0.349111  -0.604365  0  2.156139  0
