# generated using pymatgen
data_LaH17(C5O4)2
_symmetry_space_group_name_H-M   'P 1'
_cell_length_a   6.97679318
_cell_length_b   8.96855562
_cell_length_c   12.21483543
_cell_angle_alpha   111.86026240
_cell_angle_beta   92.61393348
_cell_angle_gamma   103.07955282
_symmetry_Int_Tables_number   1
_chemical_formula_structural   LaH17(C5O4)2
_chemical_formula_sum   'La2 H34 C20 O16'
_cell_volume   683.77669693
_cell_formula_units_Z   2
loop_
 _symmetry_equiv_pos_site_id
 _symmetry_equiv_pos_as_xyz
  1  'x, y, z'
loop_
 _atom_site_type_symbol
 _atom_site_label
 _atom_site_symmetry_multiplicity
 _atom_site_fract_x
 _atom_site_fract_y
 _atom_site_fract_z
 _atom_site_occupancy
 _atom_site_hle17_bader_spin_density
 _atom_site_hle17_ddec_charge
 _atom_site_hle17_ddec_spin_density
 _atom_site_hle17_ddec_sum_bond_order
 _atom_site_hle17_magmom
 _atom_site_hse06_10hf_bader_spin_density
 _atom_site_hse06_10hf_ddec_charge
 _atom_site_hse06_10hf_ddec_spin_density
 _atom_site_hse06_10hf_ddec_sum_bond_order
 _atom_site_hse06_10hf_magmom
 _atom_site_hse06_bader_spin_density
 _atom_site_hse06_ddec_charge
 _atom_site_hse06_ddec_spin_density
 _atom_site_hse06_ddec_sum_bond_order
 _atom_site_hse06_magmom
 _atom_site_pbe_bader_spin_density
 _atom_site_pbe_cm5_charge
 _atom_site_pbe_ddec_charge
 _atom_site_pbe_ddec_spin_density
 _atom_site_pbe_ddec_sum_bond_order
 _atom_site_pbe_magmom
La  La0  1  0.23370691  0.92752474  0.58414081  1  0  2.070877  0  1.757186  0  0  1.946247  0  2.25991  0  0  2.04722  0  2.165952  0  0  1.38994  1.870949  0  2.325016  0
La  La1  1  0.76633029  0.07251376  0.41586239  1  0  2.070878  0  1.757232  0  0  1.946266  0  2.259934  0  0  2.047239  0  2.165978  0  0  1.389918  1.87098  0  2.325039  0
H  H2  1  0.20479042  0.89458919  0.95208515  1  0  0.08225  0  0.906747  0  0  0.099694  0  0.95518  0  0  0.100791  0  0.955693  0  0  0.10953  0.098997  0  0.954906  0
H  H3  1  0.79517120  0.10538734  0.04791178  1  0  0.082315  0  0.906697  0  0  0.099681  0  0.95513  0  0  0.100763  0  0.955661  0  0  0.109534  0.098986  0  0.954853  0
H  H4  1  0.06585727  0.64331919  0.98679720  1  0  0.062633  0  0.948407  0  0  0.081667  0  1.012639  0  0  0.08196  0  1.013961  0  0  0.088279  0.081392  0  1.011728  0
H  H5  1  0.93414475  0.35665710  0.01320370  1  0  0.062773  0  0.948352  0  0  0.081725  0  1.012634  0  0  0.082019  0  1.013953  0  0  0.088285  0.081453  0  1.011726  0
H  H6  1  0.91615850  0.64396749  0.86598818  1  0  0.070853  0  0.95361  0  0  0.085942  0  1.018974  0  0  0.087929  0  1.017459  0  0  0.088596  0.084384  0  1.020221  0
H  H7  1  0.08379994  0.35599723  0.13403014  1  0  0.070865  0  0.953873  0  0  0.08599  0  1.019128  0  0  0.087947  0  1.017646  0  0  0.088651  0.084455  0  1.020351  0
H  H8  1  0.07567294  0.45164848  0.72083651  1  0  0.073266  0  0.964577  0  0  0.091443  0  1.028613  0  0  0.09289  0  1.028145  0  0  0.095592  0.090394  0  1.028966  0
H  H9  1  0.92430737  0.54833355  0.27917368  1  0  0.073227  0  0.964449  0  0  0.091412  0  1.028477  0  0  0.092859  0  1.028004  0  0  0.095557  0.090366  0  1.028836  0
H  H10  1  0.97602553  0.36246809  0.81973471  1  0  0.06491  0  0.956596  0  0  0.084812  0  1.019689  0  0  0.085264  0  1.020436  0  0  0.090042  0.084368  0  1.019285  0
H  H11  1  0.02399411  0.63751595  0.18027675  1  0  0.064823  0  0.956469  0  0  0.084658  0  1.019628  0  0  0.085112  0  1.020378  0  0  0.089988  0.084221  0  1.019218  0
H  H12  1  0.30801238  0.44395798  0.93629521  1  0  0.071653  0  0.917337  0  0  0.085799  0  0.972778  0  0  0.086928  0  0.973262  0  0  0.099932  0.084908  0  0.972578  0
H  H13  1  0.69201342  0.55605071  0.06371385  1  0  0.071517  0  0.917407  0  0  0.085714  0  0.972762  0  0  0.086845  0  0.973244  0  0  0.099887  0.084822  0  0.972563  0
H  H14  1  0.46760039  0.58399634  0.75414148  1  0  0.080474  0  0.940994  0  0  0.096407  0  1.003001  0  0  0.099096  0  1.001081  0  0  0.092303  0.09446  0  1.004523  0
H  H15  1  0.53235839  0.41600392  0.24584608  1  0  0.080413  0  0.941173  0  0  0.096411  0  1.003086  0  0  0.099104  0  1.001169  0  0  0.092324  0.094467  0  1.004609  0
H  H16  1  0.60904552  0.58255216  0.87783387  1  0  0.058255  0  0.952985  0  0  0.07699  0  1.01585  0  0  0.078021  0  1.015413  0  0  0.085519  0.076148  0  1.016246  0
H  H17  1  0.39094513  0.41745769  0.12214372  1  0  0.058277  0  0.952911  0  0  0.076946  0  1.015865  0  0  0.07799  0  1.015414  0  0  0.085525  0.076096  0  1.016274  0
H  H18  1  0.54766412  0.86115826  0.91822185  1  0  0.072662  0  0.949858  0  0  0.091233  0  1.010303  0  0  0.092034  0  1.01056  0  0  0.093675  0.09052  0  1.010418  0
H  H19  1  0.45230351  0.13885006  0.08176882  1  0  0.072683  0  0.949801  0  0  0.091215  0  1.010275  0  0  0.092021  0  1.010542  0  0  0.093669  0.090503  0  1.010385  0
H  H20  1  0.44824992  0.77557352  0.01797425  1  0  0.068684  0  0.957132  0  0  0.085457  0  1.022183  0  0  0.086787  0  1.021916  0  0  0.087327  0.084378  0  1.022672  0
H  H21  1  0.55173947  0.22442081  0.98201561  1  0  0.068661  0  0.957071  0  0  0.085459  0  1.022073  0  0  0.08679  0  1.021812  0  0  0.087307  0.084352  0  1.022587  0
H  H22  1  0.70065257  0.14004555  0.83366625  1  0  0.138158  0  0.952921  0  0  0.155672  0  1.017988  0  0  0.157934  0  1.017201  0  0  0.10437  0.154003  0  1.018701  0
H  H23  1  0.29937080  0.85994553  0.16632503  1  0  0.138274  0  0.952918  0  0  0.155778  0  1.017964  0  0  0.158044  0  1.017172  0  0  0.104387  0.154103  0  1.018696  0
H  H24  1  0.93295449  0.08090695  0.82976234  1  0  0.147775  0  0.947203  0  0  0.16338  0  1.009513  0  0  0.166325  0  1.008079  0  0  0.103182  0.161257  0  1.010538  0
H  H25  1  0.06705084  0.91906568  0.17022701  1  0  0.147848  0  0.947104  0  0  0.16339  0  1.009482  0  0  0.16633  0  1.008045  0  0  0.103176  0.16127  0  1.010505  0
H  H26  1  0.69540433  0.92928444  0.78692676  1  0  0.168424  0  0.939662  0  0  0.187024  0  0.99676  0  0  0.190936  0  0.993672  0  0  0.113788  0.184172  0  0.999099  0
H  H27  1  0.30459377  0.07071155  0.21305305  1  0  0.168389  0  0.93967  0  0  0.187004  0  0.996747  0  0  0.190913  0  0.993666  0  0  0.113757  0.184152  0  0.999088  0
H  H28  1  0.43457630  0.67847258  0.39112899  1  0  0.438812  0  0.859167  0  0  0.406129  0  0.924882  0  0  0.417511  0  0.908409  0  0  0.303759  0.397999  0  0.936632  0
H  H29  1  0.56545482  0.32154864  0.60888019  1  0  0.438857  0  0.859075  0  0  0.406179  0  0.924779  0  0  0.417558  0  0.908309  0  0  0.303774  0.398044  0  0.936535  0
H  H30  1  0.20926243  0.57414424  0.37787416  1  0  0.432373  0  0.828962  0  0  0.412908  0  0.886284  0  0  0.421462  0  0.873817  0  0  0.32477  0.406749  0  0.895256  0
H  H31  1  0.79072353  0.42593785  0.62210433  1  0  0.432497  0  0.828812  0  0  0.413043  0  0.886096  0  0  0.4216  0  0.873629  0  0  0.324808  0.406883  0  0.895066  0
H  H32  1  0.87703526  0.66922739  0.55637506  1  0  0.433288  0  0.839618  0  0  0.412375  0  0.89301  0  0  0.422409  0  0.878307  0  0  0.317723  0.405081  0  0.90373  0
H  H33  1  0.12307075  0.33082926  0.44364567  1  0  0.433151  0  0.839471  0  0  0.412245  0  0.893083  0  0  0.422272  0  0.878394  0  0  0.317713  0.404951  0  0.903804  0
H  H34  1  0.80787310  0.68963562  0.43620517  1  0  0.438248  0  0.858536  0  0  0.406958  0  0.922207  0  0  0.418636  0  0.905271  0  0  0.304413  0.398585  0  0.934318  0
H  H35  1  0.19215280  0.31038045  0.56380829  1  0  0.438193  0  0.858658  0  0  0.40688  0  0.922359  0  0  0.41856  0  0.905421  0  0  0.304384  0.398501  0  0.934476  0
C  C36  1  0.20391507  0.78808373  0.76746494  1  0  0.661866  0  3.829509  0  0  0.617358  0  4.134472  0  0  0.649984  0  4.132015  0  0  0.20128  0.595104  0  4.134986  0
C  C37  1  0.79604536  0.21188665  0.23253199  1  0  0.662132  0  3.829186  0  0  0.617519  0  4.134217  0  0  0.650145  0  4.131754  0  0  0.201282  0.595269  0  4.134744  0
C  C38  1  0.22582082  0.77603643  0.88894368  1  0  -0.111288  0  3.630204  0  0  -0.112273  0  3.870734  0  0  -0.117238  0  3.884747  0  0  -0.086588  -0.10895  0  3.861064  0
C  C39  1  0.77414609  0.22394533  0.11105144  1  0  -0.111291  0  3.630228  0  0  -0.112012  0  3.870331  0  0  -0.116959  0  3.884324  0  0  -0.086489  -0.108687  0  3.860659  0
C  C40  1  0.06236641  0.63290735  0.89395185  1  0  -0.117238  0  3.678227  0  0  -0.163014  0  3.940885  0  0  -0.163433  0  3.954188  0  0  -0.165568  -0.16238  0  3.931498  0
C  C41  1  0.93761014  0.36707164  0.10604683  1  0  -0.117512  0  3.678579  0  0  -0.163279  0  3.941109  0  0  -0.163679  0  3.954373  0  0  -0.165689  -0.162666  0  3.931733  0
C  C42  1  0.09141037  0.46445792  0.81418487  1  0  -0.121641  0  3.650739  0  0  -0.168208  0  3.910177  0  0  -0.168912  0  3.923712  0  0  -0.164828  -0.167642  0  3.900753  0
C  C43  1  0.90858164  0.53552605  0.18581704  1  0  -0.121473  0  3.650576  0  0  -0.167983  0  3.909939  0  0  -0.168688  0  3.923477  0  0  -0.164669  -0.167424  0  3.900541  0
C  C44  1  0.29903134  0.44639248  0.84668820  1  0  -0.113554  0  3.634138  0  0  -0.112276  0  3.876186  0  0  -0.117692  0  3.890222  0  0  -0.089071  -0.108625  0  3.866582  0
C  C45  1  0.70097275  0.55360836  0.15332003  1  0  -0.113454  0  3.634316  0  0  -0.112169  0  3.876262  0  0  -0.117591  0  3.890318  0  0  -0.089016  -0.108511  0  3.866664  0
C  C46  1  0.46390714  0.59208951  0.84603000  1  0  -0.117179  0  3.66489  0  0  -0.164175  0  3.927104  0  0  -0.16477  0  3.939631  0  0  -0.167783  -0.163628  0  3.91846  0
C  C47  1  0.53607462  0.40791023  0.15395868  1  0  -0.117188  0  3.665005  0  0  -0.164229  0  3.927228  0  0  -0.164827  0  3.93976  0  0  -0.167898  -0.163679  0  3.918577  0
C  C48  1  0.43151361  0.76019199  0.92408996  1  0  -0.114285  0  3.667039  0  0  -0.159766  0  3.92755  0  0  -0.159904  0  3.940633  0  0  -0.165972  -0.159557  0  3.918723  0
C  C49  1  0.56846856  0.23980912  0.07590400  1  0  -0.114246  0  3.667196  0  0  -0.15975  0  3.927587  0  0  -0.159909  0  3.940696  0  0  -0.16592  -0.159522  0  3.918754  0
C  C50  1  0.32001138  0.27969955  0.76144619  1  0  0.673926  0  3.806537  0  0  0.623824  0  4.110774  0  0  0.656939  0  4.105768  0  0  0.212594  0.601435  0  4.11285  0
C  C51  1  0.67999798  0.72029720  0.23857415  1  0  0.674096  0  3.806665  0  0  0.624026  0  4.110852  0  0  0.657146  0  4.105844  0  0  0.212689  0.601636  0  4.112948  0
C  C52  1  0.77348589  0.03208550  0.65989203  1  0  0.798252  0  3.783784  0  0  0.763025  0  4.070144  0  0  0.800134  0  4.061358  0  0  0.239136  0.737231  0  4.075447  0
C  C53  1  0.22653762  0.96792857  0.34009874  1  0  0.798714  0  3.78296  0  0  0.763378  0  4.069485  0  0  0.800422  0  4.060786  0  0  0.239217  0.737583  0  4.074817  0
C  C54  1  0.78018843  0.04794551  0.78630275  1  0  -0.477016  0  3.646548  0  0  -0.55937  0  3.887031  0  0  -0.566392  0  3.886128  0  0  -0.239148  -0.554476  0  3.887804  0
C  C55  1  0.21982495  0.95204699  0.21368134  1  0  -0.477277  0  3.646157  0  0  -0.559562  0  3.886781  0  0  -0.566542  0  3.885863  0  0  -0.239136  -0.554666  0  3.887576  0
O  O56  1  0.35805840  0.80796583  0.71643782  1  0  -0.663744  0  1.973988  0  0  -0.617858  0  2.215925  0  0  -0.650354  0  2.210608  0  0  -0.385142  -0.59478  0  2.218882  0
O  O57  1  0.64191019  0.19205997  0.28357057  1  0  -0.663958  0  1.973958  0  0  -0.618081  0  2.215968  0  0  -0.650574  0  2.21065  0  0  -0.385228  -0.595008  0  2.218933  0
O  O58  1  0.03422104  0.78611414  0.72163669  1  0  -0.689547  0  1.907121  0  0  -0.644035  0  2.140133  0  0  -0.674012  0  2.132897  0  0  -0.361174  -0.622678  0  2.144066  0
O  O59  1  0.96570026  0.21378255  0.27834748  1  0  -0.689534  0  1.907111  0  0  -0.644014  0  2.140191  0  0  -0.673987  0  2.132948  0  0  -0.361206  -0.622655  0  2.144133  0
O  O60  1  0.91979172  0.67791567  0.48331363  1  0  -0.867354  0  1.842649  0  0  -0.821518  0  2.02326  0  0  -0.846136  0  1.991157  0  0  -0.614858  -0.803742  0  2.045761  0
O  O61  1  0.08025541  0.32209321  0.51668278  1  0  -0.867094  0  1.842678  0  0  -0.82124  0  2.023519  0  0  -0.845861  0  1.99141  0  0  -0.614746  -0.803463  0  2.046024  0
O  O62  1  0.31518192  0.66703523  0.43206442  1  0  -0.858519  0  1.810906  0  0  -0.812658  0  1.99156  0  0  -0.836142  0  1.959876  0  0  -0.612873  -0.795552  0  2.013811  0
O  O63  1  0.68483953  0.33298143  0.56793928  1  0  -0.85863  0  1.810777  0  0  -0.812783  0  1.991433  0  0  -0.83627  0  1.95974  0  0  -0.612881  -0.795675  0  2.013696  0
O  O64  1  0.60776704  0.00551488  0.59753503  1  0  -0.733745  0  2.028726  0  0  -0.68165  0  2.284656  0  0  -0.719174  0  2.277349  0  0  -0.395702  -0.654411  0  2.288649  0
O  O65  1  0.39225217  0.99451350  0.40246107  1  0  -0.733961  0  2.028751  0  0  -0.681787  0  2.284658  0  0  -0.719335  0  2.277471  0  0  -0.395687  -0.654498  0  2.288555  0
O  O66  1  0.93273434  0.04835714  0.61241890  1  0  -0.755162  0  2.04331  0  0  -0.703804  0  2.302004  0  0  -0.742172  0  2.296916  0  0  -0.396375  -0.675808  0  2.304191  0
O  O67  1  0.06728094  0.95165776  0.38758258  1  0  -0.755365  0  2.042856  0  0  -0.703969  0  2.301596  0  0  -0.74231  0  2.29653  0  0  -0.396421  -0.675974  0  2.303794  0
O  O68  1  0.34229207  0.25772427  0.65165904  1  0  -0.727275  0  2.038864  0  0  -0.655554  0  2.264  0  0  -0.686989  0  2.254822  0  0  -0.348746  -0.63311  0  2.269384  0
O  O69  1  0.65772855  0.74228558  0.34836414  1  0  -0.727378  0  2.038774  0  0  -0.655708  0  2.263945  0  0  -0.687152  0  2.254776  0  0  -0.348895  -0.633263  0  2.269335  0
O  O70  1  0.30815997  0.16082702  0.79488855  1  0  -0.640169  0  1.939067  0  0  -0.598275  0  2.179323  0  0  -0.62794  0  2.173269  0  0  -0.352016  -0.577295  0  2.182558  0
O  O71  1  0.69184541  0.83916549  0.20512078  1  0  -0.640148  0  1.939143  0  0  -0.598263  0  2.179358  0  0  -0.627927  0  2.173306  0  0  -0.351858  -0.57728  0  2.182602  0
