# generated using pymatgen
data_CoH3(CO)4
_symmetry_space_group_name_H-M   'P 1'
_cell_length_a   6.57733715
_cell_length_b   15.30831642
_cell_length_c   15.31155671
_cell_angle_alpha   117.98527109
_cell_angle_beta   98.22043579
_cell_angle_gamma   98.24689478
_symmetry_Int_Tables_number   1
_chemical_formula_structural   CoH3(CO)4
_chemical_formula_sum   'Co6 H18 C24 O24'
_cell_volume   1307.75186993
_cell_formula_units_Z   6
loop_
 _symmetry_equiv_pos_site_id
 _symmetry_equiv_pos_as_xyz
  1  'x, y, z'
loop_
 _atom_site_type_symbol
 _atom_site_label
 _atom_site_symmetry_multiplicity
 _atom_site_fract_x
 _atom_site_fract_y
 _atom_site_fract_z
 _atom_site_occupancy
 _atom_site_hle17_ddec_charge
 _atom_site_hle17_ddec_spin_density
 _atom_site_hle17_ddec_sum_bond_order
 _atom_site_hle17_magmom
 _atom_site_hse06_10hf_ddec_charge
 _atom_site_hse06_10hf_ddec_spin_density
 _atom_site_hse06_10hf_ddec_sum_bond_order
 _atom_site_hse06_10hf_magmom
 _atom_site_pbe_cm5_charge
 _atom_site_pbe_ddec_charge
 _atom_site_pbe_ddec_spin_density
 _atom_site_pbe_ddec_sum_bond_order
 _atom_site_pbe_magmom
Co  Co0  1  0.62815807  0.59946322  0.32077505  1  1.002718  2.788419  2.056042  2.542  0.999973  2.814199  2.443773  2.622  0.615377  0.916386  2.766631  2.52737  2.542
Co  Co1  1  0.02859878  0.72126109  0.40042271  1  1.002822  2.788451  2.054888  2.543  1.000301  2.814455  2.442773  2.623  0.615343  0.916691  2.766905  2.526265  2.542
Co  Co2  1  0.30747705  0.67915578  0.27869490  1  1.002008  2.788986  2.055366  2.542  0.999676  2.815387  2.442673  2.623  0.615187  0.915752  2.768015  2.526738  2.542
Co  Co3  1  0.37183973  0.40053792  0.67922458  1  1.002787  2.788486  2.05603  2.542  0.999973  2.814196  2.443772  2.622  0.615414  0.916389  2.766616  2.527365  2.542
Co  Co4  1  0.97139594  0.27874004  0.59957804  1  1.002774  2.788363  2.054829  2.542  1.00038  2.814466  2.442673  2.623  0.615394  0.91678  2.766901  2.526152  2.542
Co  Co5  1  0.69252958  0.32084460  0.72130493  1  1.002086  2.789021  2.055356  2.542  0.999721  2.815372  2.44267  2.623  0.615188  0.91583  2.768029  2.526705  2.542
H  H6  1  0.83831133  0.45055126  0.26713195  1  0.421283  -0.000652  0.833623  0.0  0.401128  0.000155  0.898952  0.0  0.316448  0.394532  0.000205  0.906065  0.0
H  H7  1  0.38763731  0.81637442  0.54919303  1  0.4212  -0.000655  0.833533  -0.001  0.401018  0.000153  0.898938  0.0  0.316529  0.394416  0.000201  0.906053  0.0
H  H8  1  0.57143464  0.73267380  0.18338828  1  0.421772  -0.000658  0.833437  -0.001  0.401369  0.000149  0.899148  0.0  0.316862  0.394776  0.000198  0.90626  0.0
H  H9  1  0.16172314  0.54946131  0.73284988  1  0.421233  -0.000652  0.833739  0.0  0.401087  0.000154  0.899063  0.0  0.316438  0.394494  0.000205  0.906171  0.0
H  H10  1  0.61234004  0.18364120  0.45081602  1  0.421206  -0.000655  0.833752  -0.001  0.401118  0.000153  0.899037  0.0  0.316568  0.394519  0.000201  0.906148  0.0
H  H11  1  0.42853414  0.26731209  0.81658997  1  0.421779  -0.000657  0.833435  0.0  0.401374  0.000149  0.899179  0.0  0.316816  0.39478  0.000197  0.906294  0.0
H  H12  1  0.60575535  0.41205944  0.26643615  1  0.432614  -0.001165  0.804613  -0.001  0.419848  -0.000671  0.854403  0.0  0.33129  0.41266  -0.000403  0.862191  0.0
H  H13  1  0.19380983  0.85427754  0.58786440  1  0.433029  -0.001163  0.802579  -0.001  0.420247  -0.000669  0.852487  0.0  0.331324  0.413054  -0.000398  0.860293  0.0
H  H14  1  0.33967058  0.73356972  0.14577829  1  0.432323  -0.001174  0.803614  -0.001  0.419461  -0.000678  0.853571  0.0  0.331114  0.412266  -0.000414  0.861366  0.0
H  H15  1  0.39430692  0.58793865  0.73357265  1  0.432504  -0.001166  0.804752  -0.001  0.419727  -0.000671  0.854565  0.0  0.331247  0.412541  -0.000403  0.862353  0.0
H  H16  1  0.80614376  0.14571521  0.41213570  1  0.43307  -0.001162  0.802558  -0.001  0.420316  -0.00067  0.852417  0.0  0.331319  0.41313  -0.000397  0.860214  0.0
H  H17  1  0.66029991  0.26642913  0.85422377  1  0.432412  -0.001173  0.803476  -0.001  0.419565  -0.000678  0.853409  0.0  0.331151  0.412365  -0.000415  0.861208  0.0
H  H18  1  0.87932135  0.02167725  0.56818346  1  0.131029  -0.000764  0.930131  -0.001  0.138576  0.000233  0.991492  0.0  0.109033  0.135544  0.000263  0.994039  0.0
H  H19  1  0.85763333  0.54660096  0.97827673  1  0.130482  -0.000767  0.931465  -0.001  0.138457  0.000229  0.99234  0.0  0.108884  0.13542  0.000255  0.994894  0.0
H  H20  1  0.31106864  0.43175867  0.45343615  1  0.131128  -0.000764  0.930566  -0.001  0.138462  0.000229  0.992266  0.0  0.10911  0.135409  0.000256  0.994842  0.0
H  H21  1  0.12066604  0.97832466  0.43182045  1  0.131018  -0.000756  0.930134  -0.001  0.138567  0.000233  0.991454  0.0  0.109023  0.135535  0.000263  0.993999  0.0
H  H22  1  0.14238522  0.45339256  0.02172129  1  0.130473  -0.000763  0.931377  -0.001  0.138441  0.000229  0.992263  0.0  0.108869  0.135405  0.000255  0.994819  0.0
H  H23  1  0.68892950  0.56824323  0.54656713  1  0.131136  -0.000763  0.930534  -0.001  0.13843  0.000229  0.992298  0.0  0.109101  0.135378  0.000256  0.994873  0.0
C  C24  1  0.68629368  0.82725026  0.44811629  1  0.684349  -0.012026  3.806215  -0.009  0.647335  0.001713  4.098879  0.003  0.219139  0.614166  0.001647  4.108273  0.002
C  C25  1  0.85914137  0.62083855  0.17267799  1  0.684251  -0.012071  3.807258  -0.009  0.648069  0.001833  4.098714  0.003  0.219104  0.614782  0.001678  4.108302  0.002
C  C26  1  0.23816548  0.55180896  0.37909245  1  0.687085  -0.011972  3.806907  -0.009  0.648304  0.001826  4.099578  0.003  0.21853  0.614983  0.001728  4.109124  0.002
C  C27  1  0.31369912  0.17275011  0.55188398  1  0.684442  -0.012033  3.806387  -0.009  0.647388  0.001715  4.09914  0.003  0.219149  0.614218  0.001649  4.108537  0.002
C  C28  1  0.14087066  0.37915420  0.82731927  1  0.684264  -0.012079  3.807131  -0.009  0.647896  0.001834  4.098871  0.003  0.218997  0.614605  0.00168  4.108463  0.002
C  C29  1  0.76183574  0.44819294  0.62091037  1  0.687042  -0.011968  3.806833  -0.009  0.648269  0.001827  4.09952  0.003  0.218496  0.614947  0.001729  4.109066  0.002
C  C30  1  0.58499286  0.91366106  0.47269854  1  -0.180913  0.008606  3.758221  0.012  -0.176397  0.007381  4.016911  0.01  -0.038529  -0.167698  0.01028  4.002298  0.014
C  C31  1  0.67142212  0.55903792  0.08630548  1  -0.18155  0.008657  3.760387  0.012  -0.178248  0.007376  4.018583  0.01  -0.039182  -0.169504  0.010314  4.004045  0.014
C  C32  1  0.11228503  0.52726600  0.44093341  1  -0.187637  0.008637  3.76846  0.012  -0.179114  0.007386  4.020261  0.01  -0.038776  -0.170212  0.010261  4.005488  0.014
C  C33  1  0.41499029  0.08634161  0.52730546  1  -0.18029  0.008624  3.759203  0.012  -0.176463  0.007381  4.017217  0.01  -0.038512  -0.16776  0.010283  4.002599  0.014
C  C34  1  0.32860103  0.44095865  0.91369427  1  -0.181902  0.008673  3.760697  0.012  -0.178557  0.007375  4.018974  0.01  -0.039375  -0.169813  0.010311  4.004441  0.014
C  C35  1  0.88772001  0.47273743  0.55907232  1  -0.187587  0.008636  3.7683  0.012  -0.179099  0.007387  4.020143  0.01  -0.038743  -0.170193  0.010263  4.005366  0.014
C  C36  1  0.36520664  0.90003307  0.43207833  1  0.324677  0.002845  3.841609  0.001  0.309943  0.003413  4.124842  0.003  0.071849  0.299247  0.007092  4.107391  0.007
C  C37  1  0.46523892  0.53198478  0.09994071  1  0.322424  0.002933  3.845066  0.001  0.310162  0.003395  4.124536  0.003  0.071784  0.299489  0.007117  4.107105  0.007
C  C38  1  0.93308499  0.56788533  0.46792533  1  0.325472  0.002823  3.845852  0.001  0.312632  0.003396  4.123762  0.003  0.072194  0.301818  0.007048  4.10643  0.007
C  C39  1  0.63477614  0.09996883  0.56792463  1  0.322358  0.002838  3.84522  0.001  0.309951  0.003413  4.12499  0.003  0.071847  0.299258  0.00709  4.107541  0.007
C  C40  1  0.53478692  0.46801408  0.90005963  1  0.32287  0.002912  3.844868  0.001  0.310595  0.003395  4.124326  0.003  0.072026  0.29992  0.007119  4.106897  0.007
C  C41  1  0.06691508  0.43211733  0.53207712  1  0.325517  0.00283  3.845744  0.001  0.312685  0.003397  4.12367  0.003  0.072261  0.301865  0.007048  4.106345  0.007
C  C42  1  0.71227862  0.01218802  0.53840341  1  -0.157396  0.014714  3.695385  0.018  -0.194829  0.007444  3.962539  0.009  -0.101554  -0.191918  0.011343  3.949536  0.014
C  C43  1  0.70010491  0.52626954  0.98779498  1  -0.155693  0.014653  3.695489  0.018  -0.193544  0.007542  3.962703  0.009  -0.10088  -0.190739  0.011387  3.949766  0.014
C  C44  1  0.17385792  0.46157934  0.47376001  1  -0.155337  0.014604  3.697204  0.018  -0.194826  0.007486  3.963835  0.009  -0.1019  -0.192057  0.011362  3.9509  0.014
C  C45  1  0.28770531  0.98781312  0.46160058  1  -0.158027  0.014685  3.694396  0.018  -0.194766  0.007446  3.962377  0.009  -0.101505  -0.191855  0.011345  3.949369  0.014
C  C46  1  0.29991786  0.47372627  0.01220438  1  -0.155506  0.014624  3.695348  0.018  -0.193337  0.00754  3.962479  0.009  -0.100782  -0.190534  0.011386  3.949546  0.014
C  C47  1  0.82614561  0.53842714  0.52624379  1  -0.155417  0.014614  3.697071  0.018  -0.194877  0.007489  3.963753  0.009  -0.101936  -0.192105  0.011366  3.950812  0.014
O  O48  1  0.56043664  0.73662253  0.40247583  1  -0.674816  0.05408  2.320312  0.112  -0.646588  0.046419  2.608705  0.083  -0.322566  -0.605633  0.055999  2.62269  0.102
O  O49  1  0.82392095  0.66564754  0.26329943  1  -0.674611  0.054264  2.320366  0.112  -0.646944  0.046522  2.608687  0.083  -0.32278  -0.605967  0.056144  2.622708  0.102
O  O50  1  0.15811567  0.59756599  0.33422805  1  -0.675732  0.05415  2.317906  0.112  -0.647712  0.046492  2.607271  0.083  -0.323274  -0.606768  0.05606  2.621365  0.102
O  O51  1  0.43955773  0.26337785  0.59752128  1  -0.67483  0.054084  2.320167  0.112  -0.646615  0.046419  2.608599  0.083  -0.322548  -0.605663  0.056002  2.622582  0.102
O  O52  1  0.17608879  0.33434674  0.73669579  1  -0.674508  0.054265  2.320419  0.112  -0.646775  0.04652  2.608824  0.083  -0.322731  -0.6058  0.056141  2.622851  0.102
O  O53  1  0.84188442  0.40243362  0.66577297  1  -0.67576  0.054152  2.317919  0.112  -0.647739  0.046495  2.607277  0.083  -0.3233  -0.606802  0.056062  2.621372  0.102
O  O54  1  0.88531448  0.84184788  0.47296828  1  -0.584973  0.034417  2.036538  0.064  -0.551972  0.03  2.286925  0.053  -0.298606  -0.526558  0.036084  2.296727  0.061
O  O55  1  0.04358797  0.63120982  0.15810133  1  -0.584775  0.034339  2.037047  0.064  -0.551819  0.029988  2.286777  0.053  -0.298256  -0.526441  0.036051  2.296703  0.061
O  O56  1  0.41228087  0.52691014  0.36876276  1  -0.584698  0.034396  2.038395  0.064  -0.551054  0.029995  2.288844  0.053  -0.297501  -0.52566  0.036083  2.298737  0.061
O  O57  1  0.11467636  0.15815783  0.52703567  1  -0.585012  0.034426  2.036628  0.064  -0.551996  0.030004  2.286994  0.053  -0.298672  -0.526589  0.036087  2.296807  0.061
O  O58  1  0.95642594  0.36878065  0.84190086  1  -0.584817  0.034337  2.036928  0.064  -0.551808  0.029985  2.286761  0.053  -0.298234  -0.526431  0.03605  2.296682  0.061
O  O59  1  0.58771805  0.47309328  0.63123997  1  -0.584681  0.034395  2.038346  0.064  -0.551033  0.029996  2.288799  0.053  -0.29748  -0.52564  0.036084  2.298695  0.061
O  O60  1  0.22914285  0.80975371  0.36725152  1  -0.637751  0.091591  2.260404  0.161  -0.619998  0.06928  2.560526  0.113  -0.353554  -0.572194  0.086457  2.560682  0.142
O  O61  1  0.41940602  0.55750273  0.19020752  1  -0.637497  0.091652  2.263568  0.161  -0.620271  0.069328  2.562269  0.113  -0.353594  -0.572454  0.086537  2.562404  0.142
O  O62  1  0.86174266  0.63264255  0.44240619  1  -0.63767  0.091614  2.261915  0.161  -0.620905  0.069338  2.560992  0.113  -0.35356  -0.573222  0.086456  2.561253  0.142
O  O63  1  0.77084725  0.19024742  0.63274828  1  -0.63703  0.091578  2.26139  0.161  -0.620046  0.069279  2.560573  0.113  -0.353574  -0.57225  0.086455  2.56073  0.142
O  O64  1  0.58060717  0.44249536  0.80978970  1  -0.637622  0.091653  2.263338  0.161  -0.620368  0.069328  2.562016  0.113  -0.353648  -0.572554  0.08654  2.562147  0.142
O  O65  1  0.13825475  0.36735783  0.55759437  1  -0.637677  0.091612  2.261842  0.161  -0.620905  0.069338  2.560913  0.113  -0.353594  -0.573228  0.086454  2.561185  0.142
O  O66  1  0.69161902  0.44541102  0.23852792  1  -0.759398  0.019664  1.858625  0.035  -0.726839  0.019748  2.029766  0.032  -0.548053  -0.70806  0.023711  2.049191  0.037
O  O67  1  0.24607038  0.79296619  0.55438914  1  -0.759813  0.019681  1.856624  0.035  -0.727191  0.019773  2.027725  0.032  -0.54811  -0.708407  0.023729  2.047132  0.037
O  O68  1  0.45353208  0.76140562  0.20696537  1  -0.759743  0.019669  1.857213  0.035  -0.726794  0.019759  2.028607  0.032  -0.548459  -0.707982  0.023714  2.048079  0.037
O  O69  1  0.30839569  0.55459317  0.76147160  1  -0.759244  0.019665  1.858843  0.035  -0.72669  0.019748  2.029953  0.032  -0.548023  -0.707914  0.023712  2.049371  0.037
O  O70  1  0.75391393  0.20703571  0.44561457  1  -0.759852  0.019679  1.856859  0.035  -0.727373  0.019773  2.027815  0.032  -0.548144  -0.7086  0.02373  2.047206  0.037
O  O71  1  0.54645887  0.23859095  0.79302647  1  -0.759871  0.019668  1.857117  0.035  -0.726954  0.019759  2.028441  0.032  -0.548469  -0.708145  0.023714  2.047914  0.037
