# generated using pymatgen
data_Cd2H3C2SN3O5
_symmetry_space_group_name_H-M   'P 1'
_cell_length_a   6.85975608
_cell_length_b   10.17253972
_cell_length_c   12.40244802
_cell_angle_alpha   110.45376377
_cell_angle_beta   90.00313825
_cell_angle_gamma   109.70837245
_symmetry_Int_Tables_number   1
_chemical_formula_structural   Cd2H3C2SN3O5
_chemical_formula_sum   'Cd8 H12 C8 S4 N12 O20'
_cell_volume   756.54248504
_cell_formula_units_Z   4
loop_
 _symmetry_equiv_pos_site_id
 _symmetry_equiv_pos_as_xyz
  1  'x, y, z'
loop_
 _atom_site_type_symbol
 _atom_site_label
 _atom_site_symmetry_multiplicity
 _atom_site_fract_x
 _atom_site_fract_y
 _atom_site_fract_z
 _atom_site_occupancy
 _atom_site_hle17_bader_spin_density
 _atom_site_hle17_ddec_charge
 _atom_site_hle17_ddec_spin_density
 _atom_site_hle17_ddec_sum_bond_order
 _atom_site_hle17_magmom
 _atom_site_hse06_10hf_bader_spin_density
 _atom_site_hse06_10hf_ddec_charge
 _atom_site_hse06_10hf_ddec_spin_density
 _atom_site_hse06_10hf_ddec_sum_bond_order
 _atom_site_hse06_10hf_magmom
 _atom_site_hse06_bader_spin_density
 _atom_site_hse06_ddec_charge
 _atom_site_hse06_ddec_spin_density
 _atom_site_hse06_ddec_sum_bond_order
 _atom_site_hse06_magmom
 _atom_site_pbe_bader_spin_density
 _atom_site_pbe_cm5_charge
 _atom_site_pbe_ddec_charge
 _atom_site_pbe_ddec_spin_density
 _atom_site_pbe_ddec_sum_bond_order
 _atom_site_pbe_magmom
Cd  Cd0  1  0.80524954  0.91868404  0.59946136  1  0  1.261168  0  1.656238  0  0  1.086863  0  2.102442  0  0  1.13846  0  2.04868  0  0  0.771313  1.048624  0  2.141074  0
Cd  Cd1  1  0.88645467  0.08133799  0.90058005  1  0  1.260911  0  1.65682  0  0  1.086923  0  2.102779  0  0  1.13841  0  2.049143  0  0  0.771838  1.049402  0  2.140163  0
Cd  Cd2  1  0.19475183  0.08131662  0.40053893  1  0  1.261182  0  1.656232  0  0  1.086895  0  2.102417  0  0  1.138478  0  2.048678  0  0  0.771325  1.048656  0  2.14105  0
Cd  Cd3  1  0.11354523  0.91866267  0.09942023  1  0  1.260936  0  1.656808  0  0  1.086949  0  2.102761  0  0  1.138433  0  2.049128  0  0  0.771847  1.049426  0  2.140147  0
Cd  Cd4  1  0.59725173  0.21913963  0.71711052  1  0  1.224906  0  1.662646  0  0  1.047264  0  2.108491  0  0  1.097569  0  2.058028  0  0  0.795695  1.010614  0  2.143967  0
Cd  Cd5  1  0.37809078  0.78080760  0.78292430  1  0  1.22586  0  1.662184  0  0  1.048174  0  2.10808  0  0  1.098406  0  2.057581  0  0  0.795462  1.010472  0  2.144327  0
Cd  Cd6  1  0.40274818  0.78086103  0.28288977  1  0  1.224922  0  1.662626  0  0  1.047296  0  2.108471  0  0  1.097601  0  2.058008  0  0  0.795699  1.010648  0  2.143949  0
Cd  Cd7  1  0.62191059  0.21919306  0.21707598  1  0  1.225848  0  1.662207  0  0  1.048147  0  2.108122  0  0  1.098381  0  2.057621  0  0  0.795445  1.010447  0  2.144371  0
H  H8  1  0.55649627  0.49767230  0.18022604  1  0  0.099082  0  0.953331  0  0  0.108961  0  1.017111  0  0  0.110956  0  1.014404  0  0  0.130606  0.107464  0  1.019221  0
H  H9  1  0.05917396  0.50232302  0.31972464  1  0  0.100062  0  0.953006  0  0  0.109672  0  1.016903  0  0  0.111623  0  1.01427  0  0  0.130948  0.10807  0  1.019146  0
H  H10  1  0.44350016  0.50232723  0.81977553  1  0  0.09909  0  0.953309  0  0  0.108972  0  1.01708  0  0  0.110966  0  1.014372  0  0  0.1306  0.107474  0  1.019189  0
H  H11  1  0.94082539  0.49767652  0.68027451  1  0  0.100055  0  0.953002  0  0  0.10966  0  1.016906  0  0  0.111612  0  1.014272  0  0  0.130949  0.108058  0  1.019151  0
H  H12  1  0.76269522  0.54014523  0.51303505  1  0  0.097867  0  0.917783  0  0  0.111124  0  0.975446  0  0  0.113014  0  0.972882  0  0  0.135885  0.109821  0  0.977242  0
H  H13  1  0.22245893  0.46002225  0.98687556  1  0  0.099028  0  0.917726  0  0  0.11213  0  0.975365  0  0  0.114025  0  0.972798  0  0  0.13568  0.110654  0  0.977381  0
H  H14  1  0.23730873  0.45985768  0.48696508  1  0  0.097856  0  0.917781  0  0  0.1111  0  0.97546  0  0  0.112999  0  0.972884  0  0  0.135876  0.109798  0  0.977255  0
H  H15  1  0.77754098  0.53997841  0.01312473  1  0  0.099057  0  0.91773  0  0  0.112192  0  0.975326  0  0  0.114088  0  0.972757  0  0  0.135695  0.110716  0  0.977344  0
H  H16  1  0.79530096  0.78343314  0.76483249  1  0  0.408277  0  0.872332  0  0  0.381415  0  0.937683  0  0  0.389743  0  0.926276  0  0  0.282833  0.375059  0  0.94645  0
H  H17  1  0.01184600  0.21659266  0.73525791  1  0  0.40806  0  0.872819  0  0  0.381075  0  0.938173  0  0  0.38947  0  0.926664  0  0  0.282608  0.374904  0  0.94664  0
H  H18  1  0.20469985  0.21656640  0.23516747  1  0  0.408301  0  0.872346  0  0  0.381434  0  0.937667  0  0  0.389762  0  0.92626  0  0  0.282854  0.375078  0  0.946434  0
H  H19  1  0.98815537  0.78340800  0.26474237  1  0  0.408065  0  0.872827  0  0  0.381079  0  0.938173  0  0  0.389475  0  0.926663  0  0  0.282613  0.374909  0  0.946639  0
C  C20  1  0.60834351  0.54316732  0.27271155  1  0  0.192194  0  3.745422  0  0  0.13885  0  4.012506  0  0  0.152092  0  4.027167  0  0  0.127862  0.130091  0  4.002054  0
C  C21  1  0.06538866  0.45683115  0.22721996  1  0  0.190907  0  3.746031  0  0  0.137823  0  4.012872  0  0  0.151098  0  4.027625  0  0  0.127483  0.128945  0  4.003076  0
C  C22  1  0.39165494  0.45683334  0.72728793  1  0  0.192219  0  3.745418  0  0  0.138876  0  4.012504  0  0  0.152121  0  4.027161  0  0  0.127898  0.13012  0  4.002049  0
C  C23  1  0.93461068  0.54316839  0.77278000  1  0  0.190938  0  3.746059  0  0  0.137851  0  4.012907  0  0  0.151125  0  4.027664  0  0  0.127474  0.128971  0  4.003113  0
C  C24  1  0.70978773  0.56296643  0.44142200  1  0  0.226415  0  3.712151  0  0  0.167924  0  3.991768  0  0  0.182157  0  4.005566  0  0  0.140814  0.158339  0  3.981849  0
C  C25  1  0.14683696  0.43714517  0.05849974  1  0  0.22393  0  3.713602  0  0  0.165577  0  3.993039  0  0  0.179797  0  4.006929  0  0  0.140467  0.155989  0  3.983598  0
C  C26  1  0.29021363  0.43703422  0.55857909  1  0  0.226413  0  3.712215  0  0  0.167939  0  3.991826  0  0  0.182164  0  4.005622  0  0  0.140831  0.158351  0  3.981909  0
C  C27  1  0.85316149  0.56285550  0.94149973  1  0  0.223771  0  3.71357  0  0  0.165391  0  3.99302  0  0  0.179611  0  4.006912  0  0  0.140419  0.155803  0  3.983577  0
S  S28  1  0.74554812  0.13984207  0.43835799  1  0  1.583911  0  5.82095  0  0  1.460553  0  6.349293  0  0  1.516982  0  6.316145  0  0  0.554388  1.420972  0  6.371584  0
S  S29  1  0.60584445  0.86013745  0.06161862  1  0  1.587741  0  5.819272  0  0  1.464377  0  6.347485  0  0  1.52085  0  6.314186  0  0  0.556906  1.425024  0  6.369226  0
S  S30  1  0.25445325  0.86015860  0.56164230  1  0  1.583977  0  5.820998  0  0  1.460644  0  6.349306  0  0  1.517073  0  6.31616  0  0  0.554408  1.42106  0  6.371598  0
S  S31  1  0.39415635  0.13986209  0.93838134  1  0  1.587708  0  5.819328  0  0  1.464341  0  6.347541  0  0  1.520811  0  6.314244  0  0  0.556887  1.424986  0  6.369281  0
N  N32  1  0.65744670  0.46471078  0.32990086  1  0  -0.459324  0  3.20843  0  0  -0.381498  0  3.493437  0  0  -0.405691  0  3.508256  0  0  -0.363961  -0.36353  0  3.482296  0
N  N33  1  0.19285023  0.53535215  0.17003739  1  0  -0.459942  0  3.210458  0  0  -0.38202  0  3.495441  0  0  -0.406377  0  3.510356  0  0  -0.365005  -0.365047  0  3.484904  0
N  N34  1  0.34254973  0.53528876  0.67009990  1  0  -0.459351  0  3.208508  0  0  -0.381534  0  3.493516  0  0  -0.405728  0  3.508337  0  0  -0.363991  -0.363566  0  3.482373  0
N  N35  1  0.80714912  0.46464739  0.82996176  1  0  -0.459849  0  3.210359  0  0  -0.381924  0  3.495341  0  0  -0.40628  0  3.510255  0  0  -0.364985  -0.364951  0  3.484804  0
N  N36  1  0.69148661  0.69346375  0.45232097  1  0  -0.313475  0  3.207849  0  0  -0.245494  0  3.497217  0  0  -0.265161  0  3.516831  0  0  -0.262909  -0.231425  0  3.483632  0
N  N37  1  0.99804892  0.30663768  0.04759753  1  0  -0.311888  0  3.207003  0  0  -0.243671  0  3.496041  0  0  -0.263411  0  3.51577  0  0  -0.262477  -0.229954  0  3.482293  0
N  N38  1  0.30851274  0.30653579  0.54767899  1  0  -0.313464  0  3.207861  0  0  -0.245489  0  3.497228  0  0  -0.265157  0  3.516846  0  0  -0.262913  -0.231424  0  3.48365  0
N  N39  1  0.00195099  0.69336298  0.95240275  1  0  -0.311802  0  3.206954  0  0  -0.243581  0  3.495995  0  0  -0.263323  0  3.515728  0  0  -0.262462  -0.229865  0  3.482247  0
N  N40  1  0.62637037  0.68102592  0.34336204  1  0  -0.303559  0  3.166381  0  0  -0.238938  0  3.441709  0  0  -0.25602  0  3.461238  0  0  -0.262678  -0.226884  0  3.428309  0
N  N41  1  0.94548301  0.31899948  0.15656259  1  0  -0.301465  0  3.165355  0  0  -0.236836  0  3.440629  0  0  -0.253969  0  3.460131  0  0  -0.261845  -0.225027  0  3.427179  0
N  N42  1  0.37363010  0.31897587  0.65663857  1  0  -0.303556  0  3.166423  0  0  -0.238931  0  3.441754  0  0  -0.256012  0  3.461279  0  0  -0.262674  -0.226879  0  3.428354  0
N  N43  1  0.05451690  0.68100118  0.84343689  1  0  -0.301528  0  3.165348  0  0  -0.236905  0  3.440631  0  0  -0.254039  0  3.460131  0  0  -0.261854  -0.225095  0  3.427178  0
O  O44  1  0.75082156  0.25885083  0.54976789  1  0  -0.723862  0  1.992648  0  0  -0.666723  0  2.265017  0  0  -0.689931  0  2.247306  0  0  -0.357319  -0.650423  0  2.277242  0
O  O45  1  0.49208452  0.74114621  0.95018938  1  0  -0.724789  0  1.991887  0  0  -0.667971  0  2.264602  0  0  -0.691163  0  2.246803  0  0  -0.357832  -0.651385  0  2.276556  0
O  O46  1  0.24917980  0.74114982  0.45023320  1  0  -0.72385  0  1.992635  0  0  -0.666773  0  2.265044  0  0  -0.689978  0  2.247329  0  0  -0.357341  -0.650485  0  2.277296  0
O  O47  1  0.50791685  0.25885445  0.04981090  1  0  -0.724826  0  1.991932  0  0  -0.668009  0  2.264647  0  0  -0.691202  0  2.246847  0  0  -0.357845  -0.65142  0  2.2766  0
O  O48  1  0.84703909  0.20678865  0.35433077  1  0  -0.74101  0  1.973908  0  0  -0.6834  0  2.251481  0  0  -0.7069  0  2.23224  0  0  -0.363813  -0.666359  0  2.264898  0
O  O49  1  0.64040457  0.79316967  0.14561678  1  0  -0.740695  0  1.972936  0  0  -0.683365  0  2.25095  0  0  -0.7069  0  2.231729  0  0  -0.363601  -0.666632  0  2.26389  0
O  O50  1  0.15296228  0.79321202  0.64566952  1  0  -0.741025  0  1.973905  0  0  -0.683417  0  2.251464  0  0  -0.706914  0  2.232224  0  0  -0.363817  -0.666375  0  2.264883  0
O  O51  1  0.35959624  0.20682987  0.85438237  1  0  -0.740664  0  1.972901  0  0  -0.683335  0  2.250933  0  0  -0.706871  0  2.231715  0  0  -0.363591  -0.666602  0  2.263873  0
O  O52  1  0.85506714  0.04143694  0.45434316  1  0  -0.771981  0  2.071348  0  0  -0.698751  0  2.364819  0  0  -0.724452  0  2.343194  0  0  -0.363994  -0.680304  0  2.380464  0
O  O53  1  0.81378567  0.95856001  0.04564246  1  0  -0.772062  0  2.072587  0  0  -0.6991  0  2.366761  0  0  -0.724743  0  2.344966  0  0  -0.364307  -0.680594  0  2.381107  0
O  O54  1  0.14493423  0.95856373  0.54565632  1  0  -0.772024  0  2.071415  0  0  -0.698764  0  2.364843  0  0  -0.724473  0  2.343226  0  0  -0.364004  -0.680313  0  2.380484  0
O  O55  1  0.18621424  0.04144066  0.95435782  1  0  -0.772022  0  2.072588  0  0  -0.699064  0  2.366769  0  0  -0.724706  0  2.344977  0  0  -0.364296  -0.680556  0  2.381114  0
O  O56  1  0.52178415  0.04028612  0.38815054  1  0  -0.791096  0  2.104702  0  0  -0.70634  0  2.395734  0  0  -0.733264  0  2.374029  0  0  -0.372803  -0.686904  0  2.410523  0
O  O57  1  0.48162849  0.95965916  0.11182383  1  0  -0.794532  0  2.10491  0  0  -0.709757  0  2.396489  0  0  -0.736564  0  2.374567  0  0  -0.374662  -0.690311  0  2.410905  0
O  O58  1  0.47821722  0.95971454  0.61184975  1  0  -0.791129  0  2.104741  0  0  -0.706363  0  2.395754  0  0  -0.73329  0  2.37405  0  0  -0.372799  -0.686923  0  2.410544  0
O  O59  1  0.51837142  0.04034150  0.88817645  1  0  -0.794492  0  2.104882  0  0  -0.709735  0  2.396505  0  0  -0.73654  0  2.374581  0  0  -0.374651  -0.690288  0  2.410921  0
O  O60  1  0.73055427  0.85272472  0.75843172  1  0  -0.990428  0  1.816476  0  0  -0.88238  0  2.078907  0  0  -0.92004  0  2.049387  0  0  -0.591884  -0.854896  0  2.0996  0
O  O61  1  0.87779207  0.14726970  0.74161901  1  0  -0.99024  0  1.817143  0  0  -0.882485  0  2.079973  0  0  -0.920083  0  2.050344  0  0  -0.591688  -0.854789  0  2.100223  0
O  O62  1  0.26944710  0.14727594  0.24156775  1  0  -0.990467  0  1.816513  0  0  -0.882414  0  2.078911  0  0  -0.92007  0  2.049391  0  0  -0.591905  -0.85493  0  2.099606  0
O  O63  1  0.12220930  0.85273097  0.25838047  1  0  -0.990261  0  1.817166  0  0  -0.882507  0  2.079987  0  0  -0.920104  0  2.050357  0  0  -0.591702  -0.85481  0  2.100236  0
