# generated using pymatgen
data_Cu2H26C23(NO4)2
_symmetry_space_group_name_H-M   'P 1'
_cell_length_a   8.63111011
_cell_length_b   12.98569944
_cell_length_c   27.82590880
_cell_angle_alpha   90.02128312
_cell_angle_beta   90.01497999
_cell_angle_gamma   90.00122309
_symmetry_Int_Tables_number   1
_chemical_formula_structural   Cu2H26C23(NO4)2
_chemical_formula_sum   'Cu8 H104 C92 N8 O32'
_cell_volume   3118.75541141
_cell_formula_units_Z   4
loop_
 _symmetry_equiv_pos_site_id
 _symmetry_equiv_pos_as_xyz
  1  'x, y, z'
loop_
 _atom_site_type_symbol
 _atom_site_label
 _atom_site_symmetry_multiplicity
 _atom_site_fract_x
 _atom_site_fract_y
 _atom_site_fract_z
 _atom_site_occupancy
 _atom_site_pbe_bader_charge
 _atom_site_pbe_bader_spin_density
 _atom_site_pbe_cm5_charge
 _atom_site_pbe_ddec_charge
 _atom_site_pbe_ddec_spin_density
 _atom_site_pbe_ddec_sum_bond_order
 _atom_site_pbe_magmom
Cu  Cu0  1  0.05209245  0.04684706  0.53819020  1  1.029527  0.005562  0.656596  0.718008  0.007182  2.384416  0.006
Cu  Cu1  1  0.05150164  0.45346480  0.96214035  1  1.056343  -0.536722  0.673926  0.744982  -0.699213  2.386048  -0.534
Cu  Cu2  1  0.44852339  0.95349377  0.03785880  1  1.056805  -0.536729  0.674051  0.745392  -0.699208  2.385441  -0.534
Cu  Cu3  1  0.44839106  0.54653284  0.46218890  1  1.055554  0.536838  0.674033  0.744777  0.699329  2.386689  0.534
Cu  Cu4  1  0.94792481  0.95317860  0.46182939  1  1.028791  -0.005552  0.656788  0.718246  -0.007173  2.384722  -0.006
Cu  Cu5  1  0.94848781  0.54654853  0.03786378  1  1.056885  0.536706  0.673846  0.744987  0.699184  2.386067  0.534
Cu  Cu6  1  0.55149154  0.04650185  0.96214318  1  1.05592  0.536719  0.674073  0.745459  0.699204  2.385504  0.534
Cu  Cu7  1  0.55161230  0.45342737  0.53783786  1  1.056322  -0.536801  0.67382  0.744803  -0.699281  2.386101  -0.534
H  H8  1  0.87590888  0.26614980  0.40130688  1  0.028786  -0.000379  0.094442  0.106703  -0.000188  0.976617  0.0
H  H9  1  0.87554191  0.23389760  0.09870155  1  0.028514  -0.001421  0.094743  0.107561  -0.000677  0.975258  0.0
H  H10  1  0.62457036  0.73375796  0.90132164  1  0.028751  -0.001425  0.094844  0.107698  -0.000678  0.975153  0.0
H  H11  1  0.62491706  0.76621693  0.59867953  1  0.029055  0.00143  0.094754  0.107741  0.000681  0.974951  0.0
H  H12  1  0.12410026  0.73383427  0.59869294  1  0.029119  0.000378  0.094476  0.106762  0.000188  0.97648  0.0
H  H13  1  0.12446144  0.76610726  0.90129934  1  0.028595  0.001421  0.094788  0.107633  0.000677  0.975213  0.0
H  H14  1  0.37542488  0.26625076  0.09867818  1  0.028765  0.001426  0.094801  0.107641  0.000679  0.975047  0.0
H  H15  1  0.37504458  0.23378407  0.40130627  1  0.028928  -0.001431  0.094694  0.107649  -0.000682  0.974426  0.0
H  H16  1  0.77498357  0.29370172  0.45524739  1  0.077944  0.000168  0.106449  0.12956  8.9e-05  0.98778  0.0
H  H17  1  0.77510836  0.20661078  0.04461714  1  0.078137  0.000234  0.106306  0.12948  0.000105  0.98805  0.0
H  H18  1  0.72491142  0.70655561  0.95541822  1  0.077752  0.000237  0.106336  0.129536  0.000106  0.9882  0.0
H  H19  1  0.72476113  0.79352220  0.54456332  1  0.077917  -0.00031  0.106497  0.129886  -0.000153  0.988178  0.0
H  H20  1  0.22501515  0.70630314  0.54475279  1  0.078031  -0.000167  0.106401  0.129461  -8.9e-05  0.987644  0.0
H  H21  1  0.22490310  0.79338870  0.95538770  1  0.078102  -0.000234  0.106293  0.129489  -0.000104  0.988046  0.0
H  H22  1  0.27508150  0.29344078  0.04457979  1  0.077707  -0.000238  0.106351  0.129571  -0.000107  0.988209  0.0
H  H23  1  0.27522484  0.20646649  0.45545015  1  0.07807  0.00031  0.106537  0.12988  0.000153  0.988203  0.0
H  H24  1  0.10825203  0.36214522  0.43246971  1  0.039984  0.000912  0.090127  0.089052  0.000496  0.995268  0.001
H  H25  1  0.10830464  0.13809642  0.06750483  1  0.039528  -0.000986  0.089978  0.088559  -0.00053  0.995099  -0.001
H  H26  1  0.39172662  0.63803975  0.93250372  1  0.039117  -0.000986  0.09001  0.088704  -0.00053  0.99497  -0.001
H  H27  1  0.39182427  0.86184289  0.56764370  1  0.039463  0.000244  0.090336  0.089217  0.00012  0.994554  0.0
H  H28  1  0.89170498  0.63785425  0.56753981  1  0.039507  -0.000912  0.090218  0.089242  -0.000496  0.994954  -0.001
H  H29  1  0.89169871  0.86190382  0.93250612  1  0.039344  0.000986  0.090024  0.088597  0.00053  0.995023  0.001
H  H30  1  0.60826978  0.36196896  0.06749286  1  0.038989  0.000986  0.090045  0.088756  0.00053  0.994878  0.001
H  H31  1  0.60817792  0.13817121  0.43235288  1  0.03944  -0.000244  0.09029  0.089121  -0.00012  0.994467  0.0
H  H32  1  0.01871547  0.37360907  0.48913840  1  0.043258  -0.000242  0.093435  0.093129  -0.00019  1.008412  0.0
H  H33  1  0.01865451  0.12658368  0.01082105  1  0.042145  -0.000193  0.09346  0.092941  -0.000156  1.007737  0.0
H  H34  1  0.48138561  0.62656105  0.98919414  1  0.041694  -0.000193  0.093375  0.092829  -0.000155  1.007581  0.0
H  H35  1  0.48100437  0.87340897  0.51092021  1  0.04487  0.00034  0.093513  0.093246  0.000271  1.007376  0.0
H  H36  1  0.98128904  0.62636730  0.51086968  1  0.043477  0.000243  0.093486  0.093203  0.000191  1.008698  0.0
H  H37  1  0.98136622  0.87342273  0.98918775  1  0.04183  0.000193  0.093393  0.092862  0.000156  1.007622  0.0
H  H38  1  0.51860267  0.37344612  0.01080639  1  0.041782  0.000192  0.093404  0.092822  0.000155  1.007494  0.0
H  H39  1  0.51903721  0.12657895  0.48907996  1  0.044783  -0.000339  0.093521  0.093199  -0.000271  1.007172  0.0
H  H40  1  0.00045096  0.53647839  0.44348424  1  0.089443  0.000209  0.106482  0.132732  0.000134  0.986376  0.0
H  H41  1  0.00065863  0.96373267  0.05647255  1  0.084425  0.00021  0.10638  0.132595  9e-05  0.986888  0.0
H  H42  1  0.49940730  0.46367378  0.94350069  1  0.089906  0.000207  0.106436  0.13264  9e-05  0.987002  0.0
H  H43  1  0.49956846  0.03635324  0.55620737  1  0.087295  -0.000297  0.106567  0.131961  -0.000155  0.987715  0.0
H  H44  1  0.99955240  0.46352494  0.55653463  1  0.089488  -0.000209  0.10656  0.132741  -0.000134  0.986487  0.0
H  H45  1  0.99934472  0.03626758  0.94353661  1  0.084314  -0.00021  0.106469  0.132678  -9e-05  0.98699  0.0
H  H46  1  0.50057635  0.53632954  0.05649589  1  0.090008  -0.000207  0.106435  0.132545  -9.1e-05  0.98706  0.0
H  H47  1  0.50043489  0.96365162  0.44378382  1  0.08738  0.000297  0.106596  0.13198  0.000155  0.987783  0.0
H  H48  1  0.90439183  0.47493954  0.39521738  1  0.061396  -0.001963  0.093041  0.106729  -0.000966  0.983933  -0.001
H  H49  1  0.90476646  0.02513361  0.10473550  1  0.062108  0.001827  0.093088  0.106506  0.000878  0.984264  0.001
H  H50  1  0.59533841  0.52507733  0.89525482  1  0.061876  0.001828  0.09297  0.106668  0.000879  0.983926  0.001
H  H51  1  0.59428420  0.97522680  0.60481550  1  0.059451  -0.000393  0.09294  0.106109  -0.00018  0.984964  0.0
H  H52  1  0.09560340  0.52507301  0.60476231  1  0.061938  0.001962  0.093059  0.10672  0.000966  0.984319  0.001
H  H53  1  0.09522183  0.97487279  0.89526826  1  0.062173  -0.001826  0.093065  0.106599  -0.000878  0.984179  -0.001
H  H54  1  0.40465682  0.47492984  0.10474033  1  0.06204  -0.001827  0.092947  0.10659  -0.000878  0.98408  -0.001
H  H55  1  0.40567512  0.02477884  0.39519151  1  0.059487  0.000393  0.092887  0.106059  0.00018  0.985182  0.0
H  H56  1  0.20536042  0.25409082  0.56568759  1  0.117407  5.1e-05  0.120276  0.098291  2.5e-05  0.985044  0.0
H  H57  1  0.20541986  0.24569758  0.93406621  1  0.106795  4.2e-05  0.119974  0.098001  2.8e-05  0.98439  0.0
H  H58  1  0.29466848  0.74570075  0.06588477  1  0.10521  4.2e-05  0.119847  0.097643  2.8e-05  0.984679  0.0
H  H59  1  0.29457639  0.75423148  0.43416711  1  0.10642  -3.6e-05  0.120093  0.09775  -2.2e-05  0.984944  0.0
H  H60  1  0.79462786  0.74591481  0.43431259  1  0.118151  -5.1e-05  0.120305  0.098386  -2.5e-05  0.984945  0.0
H  H61  1  0.79455568  0.75429803  0.06592713  1  0.106565  -4.2e-05  0.119942  0.09793  -2.8e-05  0.984366  0.0
H  H62  1  0.70533371  0.25429410  0.93411361  1  0.10539  -4.2e-05  0.119868  0.097716  -2.8e-05  0.98468  0.0
H  H63  1  0.70543275  0.24575952  0.56583451  1  0.107157  3.6e-05  0.120039  0.097625  2.2e-05  0.985131  0.0
H  H64  1  0.39554896  0.31991654  0.62501757  1  0.118389  1.4e-05  0.106962  0.123474  8e-06  1.028364  0.0
H  H65  1  0.39562737  0.17993437  0.87476839  1  0.115634  4e-06  0.107041  0.123562  -2e-06  1.028221  0.0
H  H66  1  0.10444821  0.68001090  0.12518309  1  0.116354  4e-06  0.106949  0.12331  -2e-06  1.028678  0.0
H  H67  1  0.10443190  0.82000052  0.37484707  1  0.117187  -1e-05  0.107245  0.12337  -1e-06  1.028644  0.0
H  H68  1  0.60445439  0.68009294  0.37497901  1  0.11856  -1.4e-05  0.106964  0.123386  -8e-06  1.028505  0.0
H  H69  1  0.60435860  0.82005971  0.12522855  1  0.115667  -4e-06  0.106995  0.123494  2e-06  1.028182  0.0
H  H70  1  0.89555282  0.31998164  0.87481601  1  0.116483  -4e-06  0.10695  0.123294  2e-06  1.028777  0.0
H  H71  1  0.89556565  0.17998509  0.62515490  1  0.117384  1e-05  0.107155  0.123313  1e-06  1.028654  0.0
H  H72  1  0.35992718  0.02690702  0.69826208  1  0.033423  3e-06  0.10352  0.109257  2e-06  0.994963  0.0
H  H73  1  0.36040199  0.47296582  0.80162561  1  0.030979  4.3e-05  0.103479  0.109322  1.9e-05  0.995165  0.0
H  H74  1  0.13948701  0.97315044  0.19834744  1  0.030985  4.4e-05  0.103368  0.109112  1.9e-05  0.995104  0.0
H  H75  1  0.13949530  0.52688837  0.30163090  1  0.030634  -4.4e-05  0.103278  0.10914  -1.9e-05  0.995196  0.0
H  H76  1  0.64006805  0.97309245  0.30173450  1  0.033309  -3e-06  0.103537  0.109224  -2e-06  0.994871  0.0
H  H77  1  0.63960831  0.52702903  0.19837025  1  0.031066  -4.3e-05  0.103484  0.109265  -1.9e-05  0.995082  0.0
H  H78  1  0.86051518  0.02683979  0.80165129  1  0.030837  -4.4e-05  0.103332  0.109037  -2e-05  0.995076  0.0
H  H79  1  0.86053237  0.47311958  0.69836568  1  0.030701  4.4e-05  0.103287  0.109119  1.9e-05  0.99524  0.0
H  H80  1  0.16866700  0.97368522  0.63510458  1  0.131301  8.9e-05  0.114536  0.090214  5.3e-05  1.002227  0.0
H  H81  1  0.16908825  0.52615825  0.86473710  1  0.135606  5.1e-05  0.114213  0.089804  8e-06  1.002088  0.0
H  H82  1  0.33082201  0.02625796  0.13524671  1  0.134083  5.1e-05  0.114129  0.089705  9e-06  1.002543  0.0
H  H83  1  0.33083732  0.47373319  0.36476004  1  0.133861  -5.1e-05  0.114113  0.08979  -8e-06  1.002316  0.0
H  H84  1  0.83132707  0.02632349  0.36489236  1  0.131148  -8.9e-05  0.114546  0.090175  -5.2e-05  1.002138  0.0
H  H85  1  0.83091509  0.47384507  0.13525948  1  0.135614  -5.1e-05  0.114217  0.089827  -8e-06  1.002166  0.0
H  H86  1  0.66917670  0.97373689  0.86475490  1  0.133979  -5.1e-05  0.114149  0.08971  -9e-06  1.002582  0.0
H  H87  1  0.66918573  0.52626628  0.63523510  1  0.133963  5.1e-05  0.114206  0.089879  8e-06  1.002341  0.0
H  H88  1  0.57301807  0.27924482  0.69346458  1  0.019606  3e-06  0.09289  0.094495  -0.0  1.014993  0.0
H  H89  1  0.57323427  0.22059990  0.80635215  1  0.02333  2e-06  0.092749  0.094467  3e-06  1.014882  0.0
H  H90  1  0.92677554  0.72075591  0.19357065  1  0.022011  2e-06  0.092689  0.094381  3e-06  1.014892  0.0
H  H91  1  0.92672037  0.77931067  0.30641983  1  0.022547  -5e-06  0.092729  0.094357  -3e-06  1.014795  0.0
H  H92  1  0.42698180  0.72076312  0.30653128  1  0.019515  -3e-06  0.09282  0.094439  0.0  1.014855  0.0
H  H93  1  0.42674822  0.77938648  0.19364515  1  0.022658  -2e-06  0.092742  0.094474  -3e-06  1.014781  0.0
H  H94  1  0.07323244  0.27923278  0.80642916  1  0.021981  -2e-06  0.092666  0.094374  -3e-06  1.014824  0.0
H  H95  1  0.07328762  0.22067571  0.69358034  1  0.022287  4e-06  0.092806  0.094539  3e-06  1.014616  0.0
H  H96  1  0.57928931  0.15255340  0.71717278  1  0.008531  -5e-06  0.093387  0.092403  -2e-06  0.986077  0.0
H  H97  1  0.57931369  0.34732991  0.78264625  1  0.008954  2.2e-05  0.093222  0.091963  9e-06  0.9858  0.0
H  H98  1  0.92064732  0.84750400  0.21732363  1  0.007679  2.2e-05  0.093178  0.092148  1e-05  0.985725  0.0
H  H99  1  0.92065895  0.65257328  0.28264085  1  0.008157  -2e-05  0.093151  0.09196  -9e-06  0.985999  0.0
H  H100  1  0.42071635  0.84744299  0.28282165  1  0.008674  5e-06  0.093329  0.092336  2e-06  0.98618  0.0
H  H101  1  0.42068849  0.65265185  0.21735249  1  0.008959  -2.2e-05  0.093185  0.09186  -9e-06  0.985937  0.0
H  H102  1  0.07934908  0.15248623  0.78267547  1  0.007189  -2.2e-05  0.093169  0.092193  -1e-05  0.985752  0.0
H  H103  1  0.07935599  0.34742465  0.71736005  1  0.008119  2.1e-05  0.093192  0.092009  9e-06  0.985879  0.0
H  H104  1  0.32820158  0.31331958  0.73881400  1  0.031021  1e-06  0.088684  0.078047  -1e-06  1.002487  0.0
H  H105  1  0.32821459  0.18656669  0.76103627  1  0.031467  -1e-06  0.088748  0.078356  -1e-06  1.00214  0.0
H  H106  1  0.17178358  0.68670861  0.23887754  1  0.032453  -1e-06  0.088544  0.077668  1e-06  1.001613  0.0
H  H107  1  0.17175013  0.81339069  0.26115982  1  0.031667  1e-06  0.088756  0.078093  -1e-06  1.002269  0.0
H  H108  1  0.67179945  0.68667758  0.26118402  1  0.030759  -1e-06  0.088693  0.078046  1e-06  1.002441  0.0
H  H109  1  0.67178064  0.81343124  0.23895743  1  0.031546  1e-06  0.088752  0.078345  1e-06  1.002107  0.0
H  H110  1  0.82823019  0.31329471  0.76112228  1  0.032504  1e-06  0.088576  0.077737  -1e-06  1.001584  0.0
H  H111  1  0.82824627  0.18660724  0.73883891  1  0.031677  -1e-06  0.088744  0.078048  1e-06  1.002289  0.0
C  C112  1  0.94019526  0.17738016  0.46288180  1  1.543891  6.2e-05  0.214295  0.622656  8.1e-05  4.124054  0.0
C  C113  1  0.94055302  0.32272668  0.03736110  1  1.55265  0.000316  0.214599  0.6266  0.00035  4.116823  0.0
C  C114  1  0.55945232  0.82269365  0.96263936  1  1.552938  0.000313  0.214768  0.626869  0.000351  4.116075  0.0
C  C115  1  0.55940301  0.67736127  0.53737921  1  1.552915  -0.000333  0.214348  0.626375  -0.000374  4.115688  0.0
C  C116  1  0.05980113  0.82260390  0.53711442  1  1.542682  -6.2e-05  0.214131  0.622398  -8.1e-05  4.124163  0.0
C  C117  1  0.05945612  0.67727510  0.96263692  1  1.553085  -0.000318  0.214736  0.626807  -0.000349  4.116588  0.0
C  C118  1  0.44055219  0.17730505  0.03736045  1  1.552974  -0.000313  0.214814  0.626928  -0.00035  4.116191  0.0
C  C119  1  0.44057485  0.32264744  0.46261952  1  1.552505  0.000331  0.214512  0.626691  0.000374  4.115326  0.0
C  C120  1  0.89082519  0.27871761  0.44004513  1  -0.019884  0.000553  -0.160342  -0.279176  0.00039  3.897583  0.001
C  C121  1  0.89086735  0.22150246  0.05993938  1  -0.031869  0.000551  -0.162454  -0.283954  0.000472  3.902823  0.001
C  C122  1  0.60918191  0.72143821  0.94008203  1  -0.03193  0.000546  -0.162647  -0.284319  0.000466  3.902815  0.001
C  C123  1  0.60917974  0.77859271  0.55993945  1  -0.031661  -0.000606  -0.162467  -0.284229  -0.000497  3.903858  -0.001
C  C124  1  0.10916193  0.72127801  0.55995541  1  -0.019921  -0.000557  -0.16031  -0.278935  -0.000393  3.89745  -0.001
C  C125  1  0.10914295  0.77849778  0.94006224  1  -0.032397  -0.000546  -0.162508  -0.284079  -0.000471  3.902968  -0.001
C  C126  1  0.39081332  0.27856511  0.05991742  1  -0.03187  -0.000553  -0.162628  -0.284241  -0.000471  3.90262  -0.001
C  C127  1  0.39078306  0.22141139  0.44005820  1  -0.031738  0.000594  -0.162425  -0.284197  0.000488  3.903326  0.001
C  C128  1  0.99562658  0.37084608  0.45045516  1  0.000536  0.002271  -0.166769  -0.102845  0.001456  3.929165  0.002
C  C129  1  0.99563576  0.12936840  0.04951439  1  0.00297  -0.000591  -0.166088  -0.100782  -0.000395  3.928063  0.0
C  C130  1  0.50439866  0.62931419  0.95049684  1  0.004408  -0.000596  -0.166162  -0.100943  -0.000399  3.927737  0.0
C  C131  1  0.50434688  0.87068076  0.54959566  1  0.000524  -0.000921  -0.166869  -0.103288  -0.000563  3.931396  -0.001
C  C132  1  0.00434548  0.62915801  0.54954897  1  0.000471  -0.002272  -0.166851  -0.10325  -0.001456  3.92957  -0.002
C  C133  1  0.00437686  0.87063185  0.95049190  1  0.003415  0.000591  -0.166052  -0.100609  0.000396  3.927737  0.0
C  C134  1  0.49559078  0.37068990  0.04950262  1  0.003993  0.000596  -0.166215  -0.100994  0.000399  3.927665  0.0
C  C135  1  0.49564373  0.12934028  0.45040379  1  0.000331  0.000919  -0.166666  -0.102851  0.000562  3.931126  0.001
C  C136  1  0.92213153  0.47241090  0.43429836  1  -0.061405  0.000232  -0.160545  -0.286883  0.00024  3.892539  0.0
C  C137  1  0.92232581  0.02776951  0.06564984  1  -0.060419  0.000723  -0.161054  -0.287541  0.000422  3.894615  0.0
C  C138  1  0.57772933  0.52770645  0.93434489  1  -0.066686  0.000734  -0.1609  -0.28765  0.000425  3.894267  0.0
C  C139  1  0.57748054  0.97232484  0.56570498  1  -0.055401  -0.001279  -0.158041  -0.281453  -0.000892  3.889875  -0.001
C  C140  1  0.07786370  0.52760627  0.56569175  1  -0.065072  -0.000232  -0.160713  -0.286856  -0.000243  3.893426  0.0
C  C141  1  0.07767174  0.97223535  0.93435536  1  -0.060616  -0.000727  -0.161125  -0.287848  -0.000424  3.894776  0.0
C  C142  1  0.42225895  0.47229302  0.06565241  1  -0.066464  -0.000734  -0.160972  -0.287553  -0.000425  3.894574  0.0
C  C143  1  0.42252512  0.02768464  0.43429664  1  -0.055302  0.001283  -0.158191  -0.281708  0.000895  3.890236  0.001
C  C144  1  0.76652719  0.49228139  0.45845154  1  1.541721  -0.000636  0.21325  0.623232  -0.000542  4.115037  -0.001
C  C145  1  0.76665155  0.00783006  0.04153879  1  1.545265  0.000653  0.213801  0.624198  0.00057  4.114527  0.001
C  C146  1  0.73339594  0.50780054  0.95846147  1  1.546581  0.00065  0.213429  0.623784  0.000567  4.114359  0.001
C  C147  1  0.73397780  0.99203645  0.54178095  1  1.545276  -0.000135  0.212579  0.61928  -0.00011  4.120734  0.0
C  C148  1  0.23345761  0.50772732  0.54153965  1  1.544876  0.000629  0.21343  0.623347  0.00054  4.114694  0.001
C  C149  1  0.23335180  0.99217250  0.95846354  1  1.545563  -0.000653  0.213786  0.62418  -0.000572  4.114587  -0.001
C  C150  1  0.26659813  0.49219893  0.04153403  1  1.546581  -0.000648  0.213389  0.623759  -0.000566  4.11463  -0.001
C  C151  1  0.26603018  0.00796995  0.45822139  1  1.545647  0.000135  0.21253  0.619512  0.000111  4.120573  0.0
C  C152  1  0.24183240  0.20627432  0.59585859  1  0.50026  -0.000125  0.053158  0.114923  -0.000103  3.92671  0.0
C  C153  1  0.24191997  0.29355846  0.90392042  1  0.519159  0.000697  0.052903  0.114974  0.000486  3.928664  0.0
C  C154  1  0.25817933  0.79358752  0.09604208  1  0.519223  0.000697  0.0534  0.115954  0.000486  3.927587  0.0
C  C155  1  0.25806913  0.70636735  0.40400220  1  0.51686  -0.000658  0.053113  0.115714  -0.000443  3.927599  0.0
C  C156  1  0.75816168  0.79373671  0.40414266  1  0.499643  0.000125  0.05306  0.114669  0.000103  3.926764  0.0
C  C157  1  0.75806947  0.70643870  0.09607544  1  0.519304  -0.000697  0.053015  0.115173  -0.000486  3.928768  0.0
C  C158  1  0.74181243  0.20640656  0.90395594  1  0.519313  -0.000696  0.053434  0.115963  -0.000485  3.927468  0.0
C  C159  1  0.74194117  0.29362674  0.59599941  1  0.516653  0.00066  0.053207  0.115904  0.000445  3.927796  0.0
C  C160  1  0.34905943  0.24243193  0.62926547  1  -0.03134  -8.7e-05  -0.083882  -0.183036  -7.9e-05  3.915754  0.0
C  C161  1  0.34915667  0.25740838  0.87053473  1  -0.032462  -0.000149  -0.084251  -0.183439  -8.1e-05  3.91617  0.0
C  C162  1  0.15091007  0.75748273  0.12942224  1  -0.032594  -0.000151  -0.084219  -0.183313  -8.3e-05  3.915314  0.0
C  C163  1  0.15083411  0.74250773  0.37060121  1  -0.032643  0.000193  -0.084282  -0.183208  0.000128  3.915555  0.0
C  C164  1  0.65094739  0.75757524  0.37073183  1  -0.031205  8.7e-05  -0.083927  -0.182941  8e-05  3.915576  0.0
C  C165  1  0.65083625  0.74258801  0.12946401  1  -0.032407  0.000149  -0.084198  -0.183382  8.1e-05  3.91592  0.0
C  C166  1  0.84908748  0.24251289  0.87057577  1  -0.03276  0.000152  -0.084201  -0.183306  8.3e-05  3.915088  0.0
C  C167  1  0.84917619  0.25749021  0.62939860  1  -0.032666  -0.000193  -0.084193  -0.183162  -0.000129  3.91537  0.0
C  C168  1  0.39447651  0.17859174  0.66723430  1  -0.000679  -6e-05  0.007739  0.157773  -3.9e-05  3.968035  0.0
C  C169  1  0.39470356  0.32123530  0.83257889  1  -0.01618  0.000693  0.007739  0.158152  0.00045  3.967786  0.0
C  C170  1  0.10528781  0.82138092  0.16736612  1  -0.013197  0.000692  0.007526  0.157492  0.000449  3.968483  0.0
C  C171  1  0.10524330  0.67864821  0.33263751  1  -0.012086  -0.000647  0.00758  0.157612  -0.000421  3.968584  0.0
C  C172  1  0.60553610  0.82141389  0.33275977  1  -0.001064  6e-05  0.007598  0.157617  3.9e-05  3.968294  0.0
C  C173  1  0.60529400  0.67875647  0.16741661  1  -0.015988  -0.000693  0.007693  0.158061  -0.00045  3.967909  0.0
C  C174  1  0.89472017  0.17860931  0.83263585  1  -0.013003  -0.000692  0.007517  0.157558  -0.000449  3.968404  0.0
C  C175  1  0.89478554  0.32134818  0.66736303  1  -0.013022  0.000649  0.007756  0.157886  0.000422  3.968224  0.0
C  C176  1  0.32817837  0.08015471  0.66953536  1  -0.034468  -0.000117  -0.095574  -0.210435  -8.1e-05  3.997649  0.0
C  C177  1  0.32852861  0.41969614  0.83032427  1  -0.0397  -9.8e-05  -0.095578  -0.210885  -5e-05  3.998487  0.0
C  C178  1  0.17139442  0.91985211  0.16964496  1  -0.040481  -0.000101  -0.094996  -0.209568  -5.2e-05  3.99768  0.0
C  C179  1  0.17135143  0.58016246  0.33035786  1  -0.04063  0.000127  -0.095075  -0.209965  6.8e-05  3.997964  0.0
C  C180  1  0.67182034  0.91984553  0.33046338  1  -0.034259  0.000117  -0.095579  -0.210392  8.1e-05  3.997637  0.0
C  C181  1  0.67147474  0.58030718  0.16967411  1  -0.040006  9.8e-05  -0.095655  -0.210844  5e-05  3.998213  0.0
C  C182  1  0.82860893  0.08013966  0.83035521  1  -0.040432  0.000101  -0.095075  -0.209597  5.2e-05  3.997761  0.0
C  C183  1  0.82867277  0.41983701  0.66963908  1  -0.040545  -0.000127  -0.095108  -0.209968  -6.9e-05  3.998066  0.0
C  C184  1  0.22124174  0.05009872  0.63491971  1  0.436403  -0.000134  0.040351  0.091609  -9.3e-05  3.979562  0.0
C  C185  1  0.22153215  0.44971380  0.86491875  1  0.440486  0.000673  0.039951  0.092262  0.000466  3.982561  0.0
C  C186  1  0.27839889  0.94982198  0.13504884  1  0.440228  0.000673  0.039567  0.091444  0.000466  3.982917  0.0
C  C187  1  0.27837968  0.55017548  0.36495789  1  0.440115  -0.000641  0.039393  0.091301  -0.000446  3.983367  0.0
C  C188  1  0.77875234  0.94990846  0.36508154  1  0.436086  0.000134  0.040416  0.091756  9.3e-05  3.979332  0.0
C  C189  1  0.77847352  0.55028721  0.13507532  1  0.440747  -0.000673  0.039994  0.092131  -0.000466  3.982413  0.0
C  C190  1  0.72160445  0.05017441  0.86494954  1  0.439999  -0.000673  0.039534  0.09142  -0.000466  3.983111  0.0
C  C191  1  0.72164336  0.44982322  0.63504084  1  0.440364  0.000643  0.039268  0.091099  0.000448  3.983976  0.0
C  C192  1  0.50083358  0.21528915  0.70638439  1  0.030327  -1e-06  -0.159243  -0.20251  -2e-06  3.953263  0.0
C  C193  1  0.50094951  0.28454079  0.79343553  1  0.03425  -7e-06  -0.158917  -0.20211  0.0  3.952549  0.0
C  C194  1  0.99901622  0.78471419  0.20650085  1  0.036389  -1.3e-05  -0.158712  -0.202133  -3e-06  3.95265  0.0
C  C195  1  0.99898601  0.71535948  0.29348824  1  0.035206  1.3e-05  -0.158644  -0.201808  3e-06  3.952499  0.0
C  C196  1  0.49917672  0.78471032  0.29361003  1  0.030829  1e-06  -0.159033  -0.202254  2e-06  3.953314  0.0
C  C197  1  0.49903994  0.71544790  0.20656033  1  0.03466  7e-06  -0.158828  -0.201871  -0.0  3.952032  0.0
C  C198  1  0.00098481  0.21527296  0.79350004  1  0.036967  1.3e-05  -0.158669  -0.202245  3e-06  3.952567  0.0
C  C199  1  0.00102429  0.28463461  0.70651229  1  0.035921  -1.3e-05  -0.158825  -0.202158  -2e-06  3.952858  0.0
C  C200  1  0.40500411  0.24992475  0.74990809  1  -0.043143  4.2e-05  -0.157311  -0.122961  2.8e-05  3.92067  0.0
C  C201  1  0.09488740  0.75005609  0.25000697  1  -0.043612  3e-06  -0.157472  -0.122452  2e-06  3.919974  0.0
C  C202  1  0.59499344  0.75007164  0.25008561  1  -0.043083  -4.2e-05  -0.15732  -0.123042  -2.8e-05  3.920517  0.0
C  C203  1  0.90511711  0.24994107  0.74999392  1  -0.044068  -3e-06  -0.157463  -0.122413  -2e-06  3.919895  0.0
N  N204  1  0.17791078  0.11202052  0.59853710  1  -1.255089  -0.000599  -0.340501  -0.253522  -0.000404  3.526724  0.0
N  N205  1  0.17799246  0.38780066  0.90125907  1  -1.256119  0.001555  -0.339987  -0.258122  0.000711  3.52174  0.0
N  N206  1  0.32201286  0.88786116  0.09871506  1  -1.255459  0.001549  -0.340094  -0.258203  0.000707  3.522008  0.0
N  N207  1  0.32194570  0.61211223  0.40131350  1  -1.254987  -0.001516  -0.340087  -0.258115  -0.000687  3.522057  0.0
N  N208  1  0.82207751  0.88799127  0.40146488  1  -1.255032  0.000601  -0.340364  -0.253455  0.000406  3.52641  0.0
N  N209  1  0.82199583  0.61219881  0.09873607  1  -1.255979  -0.001555  -0.340056  -0.258056  -0.000711  3.522231  0.0
N  N210  1  0.67799048  0.11213446  0.90128368  1  -1.255546  -0.001548  -0.340068  -0.258193  -0.000706  3.522098  0.0
N  N211  1  0.67807618  0.38788108  0.59868704  1  -1.255223  0.001519  -0.340161  -0.258147  0.000687  3.52276  0.0
O  O212  1  0.99819764  0.18030048  0.50488948  1  -1.115156  -0.015761  -0.308414  -0.512758  -0.010313  2.329576  -0.014
O  O213  1  0.99915863  0.32036382  0.99536181  1  -1.120804  -0.081747  -0.311301  -0.518078  -0.054038  2.328128  -0.074
O  O214  1  0.50083735  0.82037597  0.00463896  1  -1.120671  -0.081788  -0.311367  -0.518231  -0.054064  2.328512  -0.074
O  O215  1  0.50065112  0.67968749  0.49538921  1  -1.120198  0.081779  -0.311009  -0.518059  0.054044  2.328822  0.074
O  O216  1  0.00177559  0.81972671  0.49511429  1  -1.114377  0.015751  -0.308411  -0.512739  0.010306  2.330121  0.014
O  O217  1  0.00082270  0.67963873  0.00463476  1  -1.120575  0.081752  -0.311284  -0.51827  0.05404  2.3282  0.074
O  O218  1  0.49916599  0.17961811  0.99535977  1  -1.120823  0.081784  -0.311406  -0.518254  0.054059  2.328461  0.074
O  O219  1  0.49934295  0.32029427  0.50460845  1  -1.119837  -0.081805  -0.311073  -0.518215  -0.054064  2.328398  -0.074
O  O220  1  0.91284257  0.09711944  0.43791141  1  -1.119011  0.019065  -0.315353  -0.537275  0.012463  2.385875  0.017
O  O221  1  0.91347698  0.40325500  0.06222942  1  -1.123347  0.085007  -0.318116  -0.542514  0.056172  2.383997  0.077
O  O222  1  0.58645242  0.90320248  0.93777167  1  -1.123398  0.084959  -0.318306  -0.542685  0.056143  2.383776  0.077
O  O223  1  0.58665896  0.59685047  0.56222429  1  -1.12331  -0.084984  -0.318083  -0.542385  -0.056153  2.382119  -0.077
O  O224  1  0.08720944  0.90286386  0.56209739  1  -1.118924  -0.01908  -0.315258  -0.537244  -0.012473  2.385173  -0.017
O  O225  1  0.08654143  0.59674447  0.93777147  1  -1.123423  -0.085013  -0.318258  -0.54253  -0.056176  2.383948  -0.077
O  O226  1  0.41355556  0.09680623  0.06223030  1  -1.123307  -0.084968  -0.318291  -0.542742  -0.05615  2.383853  -0.077
O  O227  1  0.41333744  0.40316903  0.43778523  1  -1.122998  0.084983  -0.318173  -0.542455  0.056153  2.382598  0.077
O  O228  1  0.75155018  0.45841721  0.50113700  1  -1.115419  -0.077484  -0.31042  -0.522661  -0.051219  2.382536  -0.07
O  O229  1  0.75145936  0.04167167  0.99885506  1  -1.116243  0.077437  -0.310514  -0.523232  0.051187  2.382903  0.07
O  O230  1  0.74854183  0.54167727  0.00115070  1  -1.116309  0.077433  -0.310285  -0.522755  0.051187  2.382936  0.07
O  O231  1  0.74890266  0.95792589  0.49914890  1  -1.113549  -0.019719  -0.307363  -0.516748  -0.012928  2.382904  -0.018
O  O232  1  0.24844853  0.54157610  0.49885814  1  -1.115846  0.077479  -0.310533  -0.522702  0.051218  2.383155  0.07
O  O233  1  0.24855210  0.95833858  0.00114691  1  -1.116479  -0.077422  -0.310488  -0.523135  -0.05118  2.382859  -0.07
O  O234  1  0.25144414  0.45831296  0.99884840  1  -1.116523  -0.077432  -0.310202  -0.52263  -0.051187  2.383103  -0.07
O  O235  1  0.25113893  0.04210670  0.50085344  1  -1.113498  0.019724  -0.307286  -0.516948  0.012931  2.382558  0.018
O  O236  1  0.66302114  0.53915955  0.43416149  1  -1.121274  0.085733  -0.318808  -0.53145  0.056614  2.332022  0.078
O  O237  1  0.66332126  0.96088289  0.06585708  1  -1.120273  -0.085742  -0.319429  -0.532286  -0.05662  2.331018  -0.078
O  O238  1  0.83676775  0.46083138  0.93414681  1  -1.121097  -0.085729  -0.319103  -0.532048  -0.056607  2.331529  -0.078
O  O239  1  0.83662914  0.03867046  0.56639722  1  -1.117002  0.017547  -0.315383  -0.525409  0.011475  2.330785  0.015
O  O240  1  0.33694861  0.46082914  0.56583868  1  -1.120728  -0.085721  -0.318844  -0.53156  -0.056607  2.331561  -0.078
O  O241  1  0.33668324  0.03911967  0.93414202  1  -1.12042  0.085762  -0.319416  -0.532326  0.056632  2.331033  0.078
O  O242  1  0.16323907  0.53918426  0.06584978  1  -1.120937  0.085738  -0.319073  -0.532084  0.056611  2.331624  0.078
O  O243  1  0.16336495  0.96133055  0.43361841  1  -1.11744  -0.01754  -0.315294  -0.525362  -0.011471  2.330822  -0.015
