# generated using pymatgen
data_CoH8C8S2(N2O)2
_symmetry_space_group_name_H-M   'P 1'
_cell_length_a   8.38246420
_cell_length_b   8.56227040
_cell_length_c   8.56112275
_cell_angle_alpha   113.93600025
_cell_angle_beta   96.27490008
_cell_angle_gamma   96.27083879
_symmetry_Int_Tables_number   1
_chemical_formula_structural   CoH8C8S2(N2O)2
_chemical_formula_sum   'Co2 H16 C16 S4 N8 O4'
_cell_volume   550.21517624
_cell_formula_units_Z   2
loop_
 _symmetry_equiv_pos_site_id
 _symmetry_equiv_pos_as_xyz
  1  'x, y, z'
loop_
 _atom_site_type_symbol
 _atom_site_label
 _atom_site_symmetry_multiplicity
 _atom_site_fract_x
 _atom_site_fract_y
 _atom_site_fract_z
 _atom_site_occupancy
 _atom_site_hle17_ddec_charge
 _atom_site_hle17_ddec_spin_density
 _atom_site_hle17_ddec_sum_bond_order
 _atom_site_hle17_magmom
 _atom_site_hse06_10hf_ddec_charge
 _atom_site_hse06_10hf_ddec_spin_density
 _atom_site_hse06_10hf_ddec_sum_bond_order
 _atom_site_hse06_10hf_magmom
 _atom_site_hse06_ddec_charge
 _atom_site_hse06_ddec_spin_density
 _atom_site_hse06_ddec_sum_bond_order
 _atom_site_hse06_magmom
 _atom_site_pbe_cm5_charge
 _atom_site_pbe_ddec_charge
 _atom_site_pbe_ddec_spin_density
 _atom_site_pbe_ddec_sum_bond_order
 _atom_site_pbe_magmom
Co  Co0  1  0.25000385  0.72761221  0.27239925  1  0.847851  2.787825  2.326356  2.478  0.858499  2.788294  2.726286  2.549  0.948451  2.853976  2.636762  2.662  0.598475  0.780704  2.714041  2.802818  2.425
Co  Co1  1  0.74999330  0.27238242  0.72759806  1  0.847804  2.787841  2.326383  2.478  0.858436  2.7883  2.726323  2.549  0.948396  2.853979  2.63678  2.662  0.59843  0.780636  2.714026  2.802847  2.425
H  H2  1  0.90126952  0.64113780  0.47596429  1  0.118668  -0.000158  0.971142  0.0  0.122406  6.9e-05  1.041284  0.0  0.126541  -5.1e-05  1.037752  0.0  0.121589  0.119129  0.000232  1.044371  0.0
H  H3  1  0.59874604  0.52404459  0.35884796  1  0.118531  -0.000161  0.971328  0.0  0.122368  6.9e-05  1.041416  0.0  0.126479  -5.1e-05  1.037886  0.0  0.121625  0.11909  0.000231  1.044508  0.0
H  H4  1  0.09873292  0.35886719  0.52404363  1  0.118688  -0.000159  0.971289  0.0  0.122404  6.9e-05  1.04142  0.0  0.126571  -5e-05  1.037828  0.0  0.121609  0.119129  0.000232  1.044508  0.0
H  H5  1  0.40125803  0.47596297  0.64115416  1  0.118602  -0.000163  0.97118  0.0  0.122407  6.9e-05  1.041293  0.0  0.126528  -5.1e-05  1.037767  0.0  0.121631  0.119129  0.000231  1.044386  0.0
H  H6  1  0.87701336  0.10140849  0.24556927  1  0.12812  0.00057  0.952831  0.001  0.144361  0.00071  1.022736  0.001  0.146637  0.000481  1.021625  0.0  0.093746  0.142356  0.00099  1.023944  0.001
H  H7  1  0.62295975  0.75443141  0.89853826  1  0.128031  0.000571  0.953148  0.001  0.144304  0.000711  1.022977  0.001  0.146588  0.000482  1.021856  0.0  0.093715  0.142303  0.000991  1.024184  0.001
H  H8  1  0.12298844  0.89859260  0.75443233  1  0.128124  0.000571  0.952847  0.001  0.144347  0.00071  1.022753  0.001  0.146621  0.000481  1.021639  0.0  0.093729  0.142343  0.00099  1.023961  0.001
H  H9  1  0.37704383  0.24556577  0.10145611  1  0.128042  0.000569  0.953241  0.001  0.144332  0.000711  1.023042  0.001  0.146615  0.000482  1.021923  0.0  0.093753  0.14233  0.000991  1.024251  0.001
H  H10  1  0.89614210  0.94052417  0.04057887  1  0.129982  0.000125  0.950335  0.0  0.153674  0.0002  1.004995  0.0  0.154025  0.00013  1.00649  0.0  0.101529  0.153321  0.000291  1.004035  0.0
H  H11  1  0.60384332  0.95938887  0.05943507  1  0.130033  0.000127  0.950439  0.0  0.153731  0.0002  1.005066  0.0  0.154084  0.00013  1.006558  0.0  0.101575  0.153378  0.000291  1.004108  0.0
H  H12  1  0.10385894  0.05947952  0.95942369  1  0.129997  0.000127  0.950302  0.0  0.153661  0.0002  1.004995  0.0  0.15401  0.00013  1.006493  0.0  0.101513  0.153308  0.000291  1.004036  0.0
H  H13  1  0.39615751  0.04061351  0.94056227  1  0.130033  0.000126  0.950493  0.0  0.15373  0.0002  1.005117  0.0  0.154081  0.000129  1.00661  0.0  0.101569  0.153377  0.000291  1.004158  0.0
H  H14  1  0.05189616  0.99652133  0.22432243  1  0.146114  -9.3e-05  0.949971  0.0  0.158809  -1e-06  1.016058  0.0  0.161806  -6.7e-05  1.014136  0.0  0.103762  0.156678  8.9e-05  1.017361  0.0
H  H15  1  0.44809084  0.77569143  0.00343870  1  0.145984  -9.2e-05  0.95031  0.0  0.158654  -1e-06  1.016412  0.0  0.161647  -6.7e-05  1.014498  0.0  0.10364  0.156522  8.9e-05  1.017716  0.0
H  H16  1  0.94810445  0.00347976  0.77567670  1  0.146138  -9.5e-05  0.949968  0.0  0.158833  -1e-06  1.016051  0.0  0.161831  -6.7e-05  1.014128  0.0  0.103771  0.156702  8.9e-05  1.01735  0.0
H  H17  1  0.55190892  0.22430447  0.99655708  1  0.146072  -9.5e-05  0.950203  0.0  0.158748  -1e-06  1.016307  0.0  0.161747  -6.7e-05  1.014377  0.0  0.103671  0.156616  8.9e-05  1.017616  0.0
C  C18  1  0.83223293  0.84472340  0.22281931  1  0.156273  0.005845  3.581994  0.007  0.14856  0.006428  3.84014  0.007  0.154714  0.004403  3.85483  0.005  0.134046  0.143812  0.009099  3.831287  0.01
C  C19  1  0.66775801  0.77717712  0.15526436  1  0.156321  0.005837  3.582246  0.007  0.148726  0.006427  3.840284  0.007  0.154785  0.004403  3.855058  0.005  0.134234  0.14398  0.009095  3.831431  0.01
C  C20  1  0.16776572  0.15528030  0.77717832  1  0.156165  0.005846  3.582272  0.007  0.148563  0.006426  3.840296  0.007  0.154652  0.004403  3.855031  0.005  0.13404  0.143817  0.009096  3.831444  0.01
C  C21  1  0.33224174  0.22281881  0.84473844  1  0.156417  0.005838  3.582191  0.007  0.148718  0.006429  3.840318  0.007  0.154851  0.004404  3.855022  0.005  0.134233  0.14397  0.009098  3.831465  0.01
C  C22  1  0.83111180  0.67677872  0.38495001  1  -0.005151  0.004079  3.627027  0.005  -0.049613  0.004727  3.899152  0.005  -0.045273  0.003006  3.908665  0.004  0.045183  -0.053233  0.007013  3.894598  0.007
C  C23  1  0.66890698  0.61504618  0.32322055  1  -0.004675  0.004076  3.626486  0.005  -0.049361  0.00473  3.898633  0.005  -0.044983  0.003009  3.908175  0.004  0.045186  -0.052983  0.007018  3.894081  0.008
C  C24  1  0.16888529  0.32323018  0.61505072  1  -0.005006  0.004078  3.627001  0.005  -0.049477  0.004727  3.899162  0.005  -0.045145  0.003007  3.908663  0.004  0.045207  -0.053098  0.007014  3.894611  0.007
C  C25  1  0.33109002  0.38495495  0.67678288  1  -0.004888  0.004082  3.626714  0.005  -0.049497  0.00473  3.898809  0.005  -0.045139  0.003009  3.908354  0.004  0.045185  -0.053119  0.007017  3.894257  0.007
C  C26  1  0.97268489  0.37254907  0.08689277  1  0.299296  -0.041107  3.955598  -0.028  0.298994  -0.005772  4.259091  -0.001  0.324644  -0.006023  4.27438  -0.002  0.153317  0.27896  -0.005999  4.247892  -0.002
C  C27  1  0.52735602  0.91312979  0.62747311  1  0.299214  -0.041092  3.955789  -0.028  0.298935  -0.005774  4.259207  -0.001  0.324581  -0.006025  4.274488  -0.002  0.153377  0.2789  -0.006019  4.24803  -0.002
C  C28  1  0.02731473  0.62745333  0.91310796  1  0.299351  -0.041097  3.955495  -0.028  0.299049  -0.00577  4.258994  -0.001  0.324698  -0.006021  4.274284  -0.002  0.153357  0.279015  -0.005997  4.247794  -0.002
C  C29  1  0.47263687  0.08686100  0.37253153  1  0.299268  -0.041094  3.955572  -0.028  0.298991  -0.005775  4.259004  -0.001  0.324639  -0.006025  4.274277  -0.002  0.153331  0.278956  -0.006021  4.247834  -0.002
C  C30  1  0.92106172  0.97821576  0.18047697  1  -0.361046  -0.000118  3.700065  0.0  -0.442295  0.000574  3.936509  0.0  -0.444825  0.000257  3.942105  0.0  -0.239714  -0.440184  0.000997  3.933142  0.001
C  C31  1  0.57892285  0.81951871  0.02174083  1  -0.360913  -0.000125  3.700636  0.0  -0.442202  0.000575  3.936943  0.0  -0.444719  0.000257  3.94255  0.0  -0.23968  -0.440097  0.000998  3.933578  0.001
C  C32  1  0.07894051  0.02178792  0.81952455  1  -0.361107  -0.000124  3.700118  0.0  -0.442326  0.000575  3.936567  0.0  -0.444841  0.000257  3.942178  0.0  -0.239705  -0.440215  0.000997  3.933199  0.001
C  C33  1  0.42107854  0.18047978  0.97825851  1  -0.361016  -0.000114  3.700808  0.0  -0.442308  0.000575  3.937122  0.0  -0.444838  0.000258  3.942713  0.0  -0.239734  -0.440204  0.000998  3.933763  0.001
S  S34  1  0.12090343  0.43767235  0.25134394  1  -0.31762  0.041335  2.255618  0.066  -0.321554  0.026016  2.600183  0.038  -0.347592  0.016157  2.589581  0.027  -0.12231  -0.298758  0.037415  2.607772  0.051
S  S35  1  0.37915123  0.74868198  0.56236220  1  -0.317534  0.041345  2.255327  0.066  -0.321532  0.026021  2.599993  0.039  -0.347579  0.016171  2.58939  0.027  -0.122265  -0.298723  0.037425  2.607567  0.051
S  S36  1  0.87909196  0.56232618  0.74865242  1  -0.317669  0.041335  2.255523  0.066  -0.321611  0.026019  2.600108  0.039  -0.347634  0.01616  2.58948  0.027  -0.122341  -0.298811  0.037423  2.607694  0.051
S  S37  1  0.62084753  0.25131525  0.43764219  1  -0.317578  0.04135  2.255338  0.066  -0.321579  0.026026  2.600009  0.039  -0.347631  0.016173  2.589397  0.027  -0.122275  -0.29877  0.037429  2.607585  0.051
N  N38  1  0.63148582  0.03483324  0.67302998  1  -0.496608  0.054343  3.021227  0.088  -0.480095  0.036408  3.311388  0.054  -0.509202  0.030025  3.31402  0.045  -0.383577  -0.456945  0.042368  3.310319  0.061
N  N39  1  0.86852897  0.32697673  0.96516940  1  -0.496716  0.05437  3.020867  0.088  -0.480162  0.036417  3.310984  0.054  -0.509281  0.030032  3.313637  0.045  -0.383535  -0.456999  0.042383  3.309869  0.061
N  N40  1  0.36850630  0.96516014  0.32697212  1  -0.496651  0.05434  3.021112  0.088  -0.480122  0.036406  3.311253  0.054  -0.509226  0.030023  3.313888  0.045  -0.383518  -0.456975  0.042362  3.310192  0.061
N  N41  1  0.13147023  0.67302307  0.03482789  1  -0.49673  0.054364  3.020852  0.088  -0.480178  0.036415  3.310972  0.054  -0.509294  0.03003  3.313626  0.045  -0.383551  -0.457016  0.042381  3.309857  0.061
N  N42  1  0.91279297  0.78999316  0.33461640  1  0.249779  0.002252  3.648796  0.003  0.293994  0.005549  3.91876  0.008  0.298823  0.002767  3.940897  0.004  -0.10065  0.289259  0.009542  3.902902  0.013
N  N43  1  0.58720863  0.66540226  0.20999100  1  0.249406  0.002261  3.648629  0.003  0.293583  0.005549  3.918706  0.008  0.29843  0.002768  3.940856  0.004  -0.100826  0.288848  0.009543  3.902846  0.013
N  N44  1  0.08720643  0.21000795  0.66538728  1  0.249726  0.002254  3.648879  0.003  0.293914  0.005549  3.918849  0.008  0.298753  0.002767  3.941007  0.004  -0.100726  0.289179  0.009543  3.90299  0.013
N  N45  1  0.41279001  0.33460144  0.79000663  1  0.249437  0.002255  3.648596  0.003  0.293622  0.005548  3.918664  0.008  0.29845  0.002766  3.940805  0.004  -0.100824  0.288886  0.009543  3.902805  0.013
O  O46  1  0.06895246  0.84680284  0.39673663  1  -0.471725  0.038983  1.946291  0.067  -0.456503  0.030932  2.218264  0.051  -0.49451  0.021912  2.223075  0.037  -0.206273  -0.42477  0.040936  2.212945  0.064
O  O47  1  0.43104327  0.60329435  0.15318073  1  -0.471568  0.038994  1.946377  0.067  -0.456245  0.030937  2.218254  0.051  -0.49425  0.021914  2.223056  0.037  -0.206148  -0.42451  0.040944  2.212932  0.064
O  O48  1  0.93105055  0.15319823  0.60326276  1  -0.471692  0.038977  1.946393  0.067  -0.456439  0.030928  2.218334  0.051  -0.49445  0.021909  2.223145  0.037  -0.206222  -0.424707  0.040933  2.213015  0.064
O  O49  1  0.56896094  0.39670672  0.84681878  1  -0.471575  0.038998  1.946249  0.067  -0.456255  0.030939  2.218145  0.051  -0.494263  0.021917  2.22295  0.037  -0.206155  -0.424518  0.04095  2.212829  0.064
