# generated using pymatgen
data_Hg2H9C19S4N13
_symmetry_space_group_name_H-M   'P 1'
_cell_length_a   6.78982962
_cell_length_b   9.07994480
_cell_length_c   22.46234436
_cell_angle_alpha   88.14409141
_cell_angle_beta   85.01335421
_cell_angle_gamma   68.03787415
_symmetry_Int_Tables_number   1
_chemical_formula_structural   Hg2H9C19S4N13
_chemical_formula_sum   'Hg4 H18 C38 S8 N26'
_cell_volume   1279.47548855
_cell_formula_units_Z   2
loop_
 _symmetry_equiv_pos_site_id
 _symmetry_equiv_pos_as_xyz
  1  'x, y, z'
loop_
 _atom_site_type_symbol
 _atom_site_label
 _atom_site_symmetry_multiplicity
 _atom_site_fract_x
 _atom_site_fract_y
 _atom_site_fract_z
 _atom_site_occupancy
 _atom_site_hle17_bader_spin_density
 _atom_site_hle17_ddec_charge
 _atom_site_hle17_ddec_spin_density
 _atom_site_hle17_ddec_sum_bond_order
 _atom_site_hle17_magmom
 _atom_site_hse06_10hf_bader_spin_density
 _atom_site_hse06_10hf_ddec_charge
 _atom_site_hse06_10hf_ddec_spin_density
 _atom_site_hse06_10hf_ddec_sum_bond_order
 _atom_site_hse06_10hf_magmom
 _atom_site_hse06_bader_spin_density
 _atom_site_hse06_ddec_charge
 _atom_site_hse06_ddec_spin_density
 _atom_site_hse06_ddec_sum_bond_order
 _atom_site_hse06_magmom
 _atom_site_pbe_bader_spin_density
 _atom_site_pbe_cm5_charge
 _atom_site_pbe_ddec_charge
 _atom_site_pbe_ddec_spin_density
 _atom_site_pbe_ddec_sum_bond_order
 _atom_site_pbe_magmom
Hg  Hg0  1  0.94034585  0.65404622  0.11714306  1  0  0.645027  0  2.139824  0  0  0.496652  0  2.625984  0  0  0.539694  0  2.598279  0  0  0.536919  0.467452  0  2.644496  0
Hg  Hg1  1  0.40578902  0.65437720  0.38298416  1  0  0.644841  0  2.140604  0  0  0.496584  0  2.626673  0  0  0.539599  0  2.598996  0  0  0.537029  0.467401  0  2.645183  0
Hg  Hg2  1  0.05967239  0.34595889  0.88285750  1  0  0.645055  0  2.13977  0  0  0.496676  0  2.625949  0  0  0.539722  0  2.598244  0  0  0.536913  0.467472  0  2.644465  0
Hg  Hg3  1  0.59420903  0.34562078  0.61701352  1  0  0.644895  0  2.140373  0  0  0.49664  0  2.626422  0  0  0.539657  0  2.598745  0  0  0.537024  0.467455  0  2.644931  0
H  H4  1  0.75122501  0.95224447  0.02044157  1  0  0.102583  0  0.947095  0  0  0.105673  0  1.017063  0  0  0.108724  0  1.013634  0  0  0.120447  0.103403  0  1.019609  0
H  H5  1  0.29625318  0.95294598  0.47963043  1  0  0.102821  0  0.946269  0  0  0.10605  0  1.016233  0  0  0.109089  0  1.012775  0  0  0.120783  0.103836  0  1.018743  0
H  H6  1  0.24878361  0.04777370  0.97955463  1  0  0.102704  0  0.946915  0  0  0.105682  0  1.016937  0  0  0.108775  0  1.013467  0  0  0.120434  0.10341  0  1.019484  0
H  H7  1  0.70375503  0.04704963  0.52037055  1  0  0.102785  0  0.946349  0  0  0.106067  0  1.016264  0  0  0.109103  0  1.012805  0  0  0.120794  0.103853  0  1.018781  0
H  H8  1  0.72103840  0.23582539  0.00139035  1  0  0.112045  0  0.982431  0  0  0.113869  0  1.054766  0  0  0.116843  0  1.055437  0  0  0.100986  0.111752  0  1.054489  0
H  H9  1  0.04253430  0.23648321  0.49860654  1  0  0.111778  0  0.982813  0  0  0.113309  0  1.0555  0  0  0.116273  0  1.05619  0  0  0.100875  0.111244  0  1.055142  0
H  H10  1  0.27894907  0.76419991  0.99861170  1  0  0.111983  0  0.982533  0  0  0.113839  0  1.05488  0  0  0.116816  0  1.055552  0  0  0.100945  0.111721  0  1.0546  0
H  H11  1  0.95745240  0.76350527  0.50139739  1  0  0.111834  0  0.982876  0  0  0.113365  0  1.055576  0  0  0.116331  0  1.056266  0  0  0.100896  0.111295  0  1.055228  0
H  H12  1  0.80245104  0.37874714  0.08530290  1  0  0.063889  0  0.957047  0  0  0.067937  0  1.032054  0  0  0.069764  0  1.029993  0  0  0.102914  0.066546  0  1.033632  0
H  H13  1  0.81842116  0.37913994  0.41461698  1  0  0.063545  0  0.957012  0  0  0.067618  0  1.032122  0  0  0.069458  0  1.030031  0  0  0.102959  0.066235  0  1.033684  0
H  H14  1  0.19753795  0.62127221  0.91470008  1  0  0.063741  0  0.957129  0  0  0.067791  0  1.032143  0  0  0.069619  0  1.030078  0  0  0.10282  0.066399  0  1.03372  0
H  H15  1  0.18155468  0.62084380  0.58539000  1  0  0.063463  0  0.957003  0  0  0.067556  0  1.032086  0  0  0.06939  0  1.030008  0  0  0.102976  0.06617  0  1.033648  0
H  H16  1  0.13391344  0.24718348  0.19299964  1  0  0.089566  0  0.951694  0  0  0.088891  0  1.027159  0  0  0.092618  0  1.022761  0  0  0.115074  0.08617  0  1.030317  0
H  H17  1  0.62031960  0.24704280  0.30692220  1  0  0.090453  0  0.953544  0  0  0.08934  0  1.029376  0  0  0.092967  0  1.025031  0  0  0.115437  0.086704  0  1.032462  0
H  H18  1  0.86607438  0.75282281  0.80699243  1  0  0.08959  0  0.95171  0  0  0.088916  0  1.027148  0  0  0.092644  0  1.022744  0  0  0.11512  0.0862  0  1.030298  0
H  H19  1  0.37966617  0.75295875  0.69307044  1  0  0.090374  0  0.953676  0  0  0.089254  0  1.02948  0  0  0.092882  0  1.02514  0  0  0.115391  0.08662  0  1.032557  0
H  H20  1  0.45599064  0.08948386  0.24991213  1  0  0.116763  0  0.926737  0  0  0.12732  0  0.980393  0  0  0.130561  0  0.980598  0  0  0.11105  0.125034  0  0.980416  0
H  H21  1  0.54399773  0.91052125  0.75007816  1  0  0.116776  0  0.92679  0  0  0.12738  0  0.980403  0  0  0.130623  0  0.980604  0  0  0.11105  0.125093  0  0.980429  0
C  C22  1  0.44280378  0.82396002  0.12095083  1  0  0.222062  0  3.948459  0  0  0.212365  0  4.259327  0  0  0.227598  0  4.276338  0  0  0.116799  0.202001  0  4.247805  0
C  C23  1  0.73358560  0.82403370  0.37919559  1  0  0.221328  0  3.949679  0  0  0.211679  0  4.260453  0  0  0.226905  0  4.277472  0  0  0.116231  0.201321  0  4.248941  0
C  C24  1  0.55725194  0.17596553  0.87907339  1  0  0.22162  0  3.948971  0  0  0.21192  0  4.259851  0  0  0.227155  0  4.276855  0  0  0.116343  0.201553  0  4.248335  0
C  C25  1  0.26642046  0.17595715  0.62080241  1  0  0.221531  0  3.949591  0  0  0.211899  0  4.260338  0  0  0.227124  0  4.277357  0  0  0.116328  0.201536  0  4.248829  0
C  C26  1  0.24285757  0.39486574  0.02553130  1  0  0.249835  0  3.932837  0  0  0.237845  0  4.232112  0  0  0.255636  0  4.249249  0  0  0.140865  0.225782  0  4.220397  0
C  C27  1  0.36242256  0.39482700  0.47437734  1  0  0.248125  0  3.934131  0  0  0.236081  0  4.233516  0  0  0.253847  0  4.250711  0  0  0.139918  0.224039  0  4.221791  0
C  C28  1  0.75714905  0.60514174  0.97446645  1  0  0.249829  0  3.932648  0  0  0.237838  0  4.231939  0  0  0.255629  0  4.249071  0  0  0.140822  0.225776  0  4.220222  0
C  C29  1  0.63756998  0.60519117  0.52562555  1  0  0.247886  0  3.934216  0  0  0.235829  0  4.233637  0  0  0.253595  0  4.250837  0  0  0.139743  0.223777  0  4.221916  0
C  C30  1  0.78643399  0.02159016  0.05382879  1  0  0.191251  0  3.621717  0  0  0.157361  0  3.871803  0  0  0.166584  0  3.888351  0  0  0.076733  0.151503  0  3.860451  0
C  C31  1  0.19173403  0.02214114  0.44621446  1  0  0.190999  0  3.620213  0  0  0.157117  0  3.870385  0  0  0.166375  0  3.886954  0  0  0.076612  0.151206  0  3.858996  0
C  C32  1  0.21356550  0.97842564  0.94616859  1  0  0.191036  0  3.621769  0  0  0.157386  0  3.871804  0  0  0.16657  0  3.888335  0  0  0.076794  0.151531  0  3.86045  0
C  C33  1  0.80826528  0.97785446  0.55378545  1  0  0.191017  0  3.620242  0  0  0.157098  0  3.870444  0  0  0.166363  0  3.887011  0  0  0.076658  0.151188  0  3.859059  0
C  C34  1  0.76883306  0.17784129  0.04380320  1  0  -0.133743  0  3.65868  0  0  -0.143057  0  3.903868  0  0  -0.153768  0  3.926489  0  0  -0.066858  -0.136225  0  3.888763  0
C  C35  1  0.05284450  0.17838049  0.45620407  1  0  -0.132335  0  3.659206  0  0  -0.141629  0  3.904785  0  0  -0.152326  0  3.927391  0  0  -0.066272  -0.13484  0  3.889701  0
C  C36  1  0.23115793  0.82217688  0.95619751  1  0  -0.133518  0  3.658692  0  0  -0.142995  0  3.903944  0  0  -0.153713  0  3.926585  0  0  -0.066819  -0.13616  0  3.888832  0
C  C37  1  0.94714778  0.82160562  0.54379840  1  0  -0.132312  0  3.659225  0  0  -0.141688  0  3.90488  0  0  -0.152384  0  3.927483  0  0  -0.066275  -0.134895  0  3.889796  0
C  C38  1  0.81467293  0.25564382  0.09003950  1  0  0.182694  0  3.68703  0  0  0.151523  0  3.949077  0  0  0.160553  0  3.964569  0  0  0.06949  0.145768  0  3.938473  0
C  C39  1  0.92935384  0.25603927  0.40993848  1  0  0.182734  0  3.689178  0  0  0.151531  0  3.951402  0  0  0.160552  0  3.966933  0  0  0.069147  0.145782  0  3.940778  0
C  C40  1  0.18531926  0.74437197  0.90996121  1  0  0.182867  0  3.687131  0  0  0.151752  0  3.94923  0  0  0.160786  0  3.964722  0  0  0.069638  0.145997  0  3.938627  0
C  C41  1  0.07063021  0.74395159  0.59006594  1  0  0.182715  0  3.689069  0  0  0.151547  0  3.951298  0  0  0.160567  0  3.966829  0  0  0.069055  0.145802  0  3.940668  0
C  C42  1  0.89363042  0.03312024  0.14719841  1  0  0.290289  0  3.765556  0  0  0.271828  0  4.02249  0  0  0.28234  0  4.037718  0  0  0.250277  0.264934  0  4.012039  0
C  C43  1  0.07330102  0.03339332  0.35282887  1  0  0.289314  0  3.767409  0  0  0.272563  0  4.022504  0  0  0.283028  0  4.037811  0  0  0.249977  0.265669  0  4.012019  0
C  C44  1  0.10637267  0.96688843  0.85280030  1  0  0.290021  0  3.765813  0  0  0.271885  0  4.02235  0  0  0.282372  0  4.037592  0  0  0.250339  0.265  0  4.011915  0
C  C45  1  0.92669682  0.96660229  0.64717153  1  0  0.289243  0  3.767307  0  0  0.272484  0  4.022416  0  0  0.282955  0  4.037723  0  0  0.24992  0.265591  0  4.011928  0
C  C46  1  0.97666675  0.94799858  0.20317662  1  0  0.372709  0  3.692316  0  0  0.34719  0  3.955363  0  0  0.364933  0  3.964597  0  0  0.278259  0.335316  0  3.94908  0
C  C47  1  0.07566097  0.94811931  0.29685411  1  0  0.372136  0  3.694902  0  0  0.345446  0  3.9591  0  0  0.363195  0  3.968378  0  0  0.277519  0.333591  0  3.952792  0
C  C48  1  0.02333486  0.05201009  0.79682169  1  0  0.372939  0  3.692374  0  0  0.347367  0  3.955342  0  0  0.365116  0  3.964571  0  0  0.27834  0.335485  0  3.949068  0
C  C49  1  0.92434245  0.05187985  0.70314518  1  0  0.372135  0  3.694756  0  0  0.345397  0  3.959035  0  0  0.363144  0  3.968316  0  0  0.277518  0.333557  0  3.952716  0
C  C50  1  0.14392931  0.71323575  0.25000724  1  0  0.373595  0  3.731294  0  0  0.344511  0  3.995693  0  0  0.362924  0  4.004957  0  0  0.272204  0.332107  0  3.989645  0
C  C51  1  0.85606572  0.28676817  0.74998867  1  0  0.373276  0  3.731633  0  0  0.344231  0  3.996042  0  0  0.362642  0  4.005309  0  0  0.272124  0.331834  0  3.989986  0
C  C52  1  0.23291837  0.53553172  0.25000297  1  0  0.288473  0  3.782971  0  0  0.270236  0  4.043038  0  0  0.28058  0  4.058617  0  0  0.242456  0.263382  0  4.032436  0
C  C53  1  0.76707313  0.46447338  0.74999346  1  0  0.288704  0  3.78312  0  0  0.270483  0  4.043145  0  0  0.280828  0  4.058725  0  0  0.242573  0.263616  0  4.032553  0
C  C54  1  0.21599661  0.30472729  0.21822060  1  0  0.190723  0  3.643939  0  0  0.159445  0  3.905202  0  0  0.168966  0  3.919308  0  0  0.071663  0.153403  0  3.895395  0
C  C55  1  0.48069649  0.30466193  0.28172038  1  0  0.189996  0  3.646715  0  0  0.158526  0  3.908859  0  0  0.168172  0  3.922932  0  0  0.070703  0.152396  0  3.899094  0
C  C56  1  0.78399510  0.69528019  0.78177312  1  0  0.190851  0  3.644008  0  0  0.159585  0  3.905295  0  0  0.169106  0  3.919407  0  0  0.071669  0.153543  0  3.89549  0
C  C57  1  0.51929732  0.69533842  0.71827383  1  0  0.190014  0  3.646709  0  0  0.15862  0  3.908772  0  0  0.168259  0  3.922853  0  0  0.070718  0.152494  0  3.898999  0
C  C58  1  0.39126065  0.21892773  0.24994591  1  0  -0.140494  0  3.644549  0  0  -0.153888  0  3.893589  0  0  -0.164435  0  3.915725  0  0  -0.071619  -0.147146  0  3.878613  0
C  C59  1  0.60873317  0.78107856  0.75004910  1  0  -0.140699  0  3.644406  0  0  -0.154183  0  3.89346  0  0  -0.164728  0  3.915589  0  0  -0.071723  -0.147445  0  3.87849  0
S  S60  1  0.58590911  0.67746452  0.16407287  1  0  -0.216598  0  2.282057  0  0  -0.188914  0  2.640541  0  0  -0.204746  0  2.63521  0  0  -0.116004  -0.178201  0  2.644238  0
S  S61  1  0.73687741  0.67763491  0.33603074  1  0  -0.216465  0  2.282178  0  0  -0.188867  0  2.640582  0  0  -0.204756  0  2.635374  0  0  -0.115882  -0.178134  0  2.644214  0
S  S62  1  0.41416590  0.32245746  0.83594239  1  0  -0.216658  0  2.281867  0  0  -0.188954  0  2.640313  0  0  -0.204786  0  2.634975  0  0  -0.115996  -0.178229  0  2.643998  0
S  S63  1  0.26312009  0.32235832  0.66396792  1  0  -0.216575  0  2.282093  0  0  -0.188991  0  2.640497  0  0  -0.204864  0  2.635261  0  0  -0.115922  -0.178253  0  2.644127  0
S  S64  1  0.30332631  0.50844514  0.07114526  1  0  -0.198703  0  2.355694  0  0  -0.164959  0  2.716119  0  0  -0.182129  0  2.713229  0  0  -0.080933  -0.15337  0  2.718134  0
S  S65  1  0.18849614  0.50851328  0.42875306  1  0  -0.197955  0  2.355508  0  0  -0.163885  0  2.715514  0  0  -0.181007  0  2.712582  0  0  -0.080501  -0.152337  0  2.717522  0
S  S66  1  0.69668695  0.49156946  0.92884685  1  0  -0.198693  0  2.35564  0  0  -0.164932  0  2.716039  0  0  -0.1821  0  2.713144  0  0  -0.08088  -0.153343  0  2.718056  0
S  S67  1  0.81149474  0.49149896  0.57124328  1  0  -0.197938  0  2.355828  0  0  -0.163854  0  2.715817  0  0  -0.180987  0  2.712902  0  0  -0.080498  -0.1523  0  2.717821  0
N  N68  1  0.33517076  0.92830328  0.09167532  1  0  -0.421823  0  2.599973  0  0  -0.396549  0  2.826015  0  0  -0.409422  0  2.840131  0  0  -0.338453  -0.387767  0  2.816463  0
N  N69  1  0.73700728  0.92822208  0.40853598  1  0  -0.42166  0  2.601424  0  0  -0.39655  0  2.82784  0  0  -0.409413  0  2.841916  0  0  -0.338319  -0.387763  0  2.818307  0
N  N70  1  0.66488524  0.07163058  0.90834877  1  0  -0.421332  0  2.600742  0  0  -0.396077  0  2.826854  0  0  -0.408947  0  2.840957  0  0  -0.337973  -0.387294  0  2.817305  0
N  N71  1  0.26300261  0.07176996  0.59146145  1  0  -0.421762  0  2.601403  0  0  -0.396663  0  2.827814  0  0  -0.409529  0  2.84189  0  0  -0.338371  -0.387885  0  2.818295  0
N  N72  1  0.20861763  0.31021769  0.99270416  1  0  -0.446768  0  2.754153  0  0  -0.406579  0  3.004675  0  0  -0.424459  0  3.0172  0  0  -0.335784  -0.394414  0  2.996092  0
N  N73  1  0.48119690  0.31000249  0.50718561  1  0  -0.445357  0  2.755285  0  0  -0.405233  0  3.005858  0  0  -0.423103  0  3.018391  0  0  -0.335151  -0.393105  0  2.997302  0
N  N74  1  0.79138112  0.68978504  0.00729744  1  0  -0.446762  0  2.754009  0  0  -0.406599  0  3.00457  0  0  -0.424471  0  3.01708  0  0  -0.33578  -0.394433  0  2.995985  0
N  N75  1  0.51877817  0.69001806  0.49281730  1  0  -0.445107  0  2.754786  0  0  -0.404968  0  3.005335  0  0  -0.422837  0  3.017874  0  0  -0.334974  -0.392836  0  2.996774  0
N  N76  1  0.85207303  0.94857363  0.10539494  1  0  -0.336846  0  3.174809  0  0  -0.271275  0  3.430561  0  0  -0.29215  0  3.450129  0  0  -0.294356  -0.257058  0  3.416822  0
N  N77  1  0.19933561  0.94897522  0.39466083  1  0  -0.33737  0  3.176145  0  0  -0.272302  0  3.431467  0  0  -0.293221  0  3.451105  0  0  -0.294405  -0.25809  0  3.417784  0
N  N78  1  0.14792619  0.05143979  0.89460338  1  0  -0.336778  0  3.175122  0  0  -0.271388  0  3.430798  0  0  -0.292257  0  3.450404  0  0  -0.294407  -0.257177  0  3.417063  0
N  N79  1  0.80066959  0.05102039  0.60533846  1  0  -0.337346  0  3.176159  0  0  -0.272247  0  3.431457  0  0  -0.293168  0  3.451095  0  0  -0.294384  -0.25804  0  3.417782  0
N  N80  1  0.87384052  0.18510574  0.14241293  1  0  -0.330652  0  3.018799  0  0  -0.29839  0  3.281748  0  0  -0.311792  0  3.294689  0  0  -0.293863  -0.28933  0  3.272805  0
N  N81  1  0.94098152  0.18536532  0.35757566  1  0  -0.33006  0  3.019767  0  0  -0.298151  0  3.282129  0  0  -0.311524  0  3.295063  0  0  -0.293716  -0.28911  0  3.27319  0
N  N82  1  0.12615848  0.81490531  0.85758765  1  0  -0.330634  0  3.018961  0  0  -0.298511  0  3.281855  0  0  -0.311899  0  3.294783  0  0  -0.29394  -0.289461  0  3.272915  0
N  N83  1  0.05900607  0.81462435  0.64242823  1  0  -0.33001  0  3.019657  0  0  -0.298089  0  3.281987  0  0  -0.311464  0  3.294921  0  0  -0.293686  -0.289051  0  3.273044  0
N  N84  1  0.98332057  0.03335378  0.25002282  1  0  -0.373924  0  2.952841  0  0  -0.345751  0  3.219303  0  0  -0.361592  0  3.228803  0  0  -0.275173  -0.335418  0  3.21301  0
N  N85  1  0.01668639  0.96665014  0.74997630  1  0  -0.374041  0  2.952889  0  0  -0.345866  0  3.219394  0  0  -0.361706  0  3.228891  0  0  -0.275241  -0.335536  0  3.213103  0
N  N86  1  0.04430159  0.78874359  0.20266621  1  0  -0.402513  0  3.127569  0  0  -0.350831  0  3.392829  0  0  -0.371698  0  3.405116  0  0  -0.290232  -0.336984  0  3.384631  0
N  N87  1  0.16779990  0.78888648  0.29735134  1  0  -0.401168  0  3.125047  0  0  -0.349587  0  3.391218  0  0  -0.370333  0  3.403218  0  0  -0.289698  -0.335744  0  3.38297  0
N  N88  1  0.95569406  0.21126508  0.79733094  1  0  -0.402312  0  3.127527  0  0  -0.350666  0  3.392764  0  0  -0.371559  0  3.405122  0  0  -0.290192  -0.336821  0  3.384565  0
N  N89  1  0.83219548  0.21111387  0.70264639  1  0  -0.401082  0  3.125037  0  0  -0.3495  0  3.391231  0  0  -0.370236  0  3.403209  0  0  -0.289668  -0.335667  0  3.382983  0
N  N90  1  0.13787618  0.46415902  0.21758027  1  0  -0.35718  0  3.09269  0  0  -0.310748  0  3.352447  0  0  -0.327665  0  3.368046  0  0  -0.303056  -0.299159  0  3.341554  0
N  N91  1  0.39933233  0.46410946  0.28241617  1  0  -0.358015  0  3.092599  0  0  -0.311381  0  3.352408  0  0  -0.328282  0  3.367929  0  0  -0.303075  -0.299813  0  3.341576  0
N  N92  1  0.86211078  0.53585203  0.78241310  1  0  -0.357295  0  3.092996  0  0  -0.310889  0  3.352775  0  0  -0.327806  0  3.368373  0  0  -0.303152  -0.299294  0  3.341884  0
N  N93  1  0.60065713  0.53589090  0.71758128  1  0  -0.357976  0  3.092495  0  0  -0.31139  0  3.35233  0  0  -0.32829  0  3.367852  0  0  -0.303039  -0.299818  0  3.341497  0
