# generated using pymatgen
data_CuH7C7NCl
_symmetry_space_group_name_H-M   'P 1'
_cell_length_a   7.84141694
_cell_length_b   9.36731012
_cell_length_c   10.62046554
_cell_angle_alpha   90.00004860
_cell_angle_beta   108.54832702
_cell_angle_gamma   89.99964942
_symmetry_Int_Tables_number   1
_chemical_formula_structural   CuH7C7NCl
_chemical_formula_sum   'Cu4 H28 C28 N4 Cl4'
_cell_volume   739.58287255
_cell_formula_units_Z   4
loop_
 _symmetry_equiv_pos_site_id
 _symmetry_equiv_pos_as_xyz
  1  'x, y, z'
loop_
 _atom_site_type_symbol
 _atom_site_label
 _atom_site_symmetry_multiplicity
 _atom_site_fract_x
 _atom_site_fract_y
 _atom_site_fract_z
 _atom_site_occupancy
 _atom_site_hle17_bader_spin_density
 _atom_site_hle17_ddec_charge
 _atom_site_hle17_ddec_spin_density
 _atom_site_hle17_ddec_sum_bond_order
 _atom_site_hle17_magmom
 _atom_site_hse06_10hf_bader_spin_density
 _atom_site_hse06_10hf_ddec_charge
 _atom_site_hse06_10hf_ddec_spin_density
 _atom_site_hse06_10hf_ddec_sum_bond_order
 _atom_site_hse06_10hf_magmom
 _atom_site_hse06_bader_spin_density
 _atom_site_hse06_ddec_charge
 _atom_site_hse06_ddec_spin_density
 _atom_site_hse06_ddec_sum_bond_order
 _atom_site_hse06_magmom
 _atom_site_pbe_bader_spin_density
 _atom_site_pbe_cm5_charge
 _atom_site_pbe_ddec_charge
 _atom_site_pbe_ddec_spin_density
 _atom_site_pbe_ddec_sum_bond_order
 _atom_site_pbe_magmom
Cu  Cu0  1  0.15014640  0.12206778  0.07277165  1  0  0.513212  0  2.097044  0  0  0.468749  0  2.54374  0  0  0.468532  0  2.509786  0  0  0.492723  0.469897  0  2.565316  0
Cu  Cu1  1  0.15014399  0.37793337  0.57276924  1  0  0.513231  0  2.097048  0  0  0.468771  0  2.543773  0  0  0.468569  0  2.509799  0  0  0.492746  0.469924  0  2.565389  0
Cu  Cu2  1  0.84985473  0.87793442  0.92722864  1  0  0.513265  0  2.096997  0  0  0.468812  0  2.543674  0  0  0.468556  0  2.509724  0  0  0.492772  0.469971  0  2.565272  0
Cu  Cu3  1  0.84985578  0.62206668  0.42723260  1  0  0.513244  0  2.097029  0  0  0.468798  0  2.543704  0  0  0.468549  0  2.509756  0  0  0.492751  0.469954  0  2.565319  0
H  H4  1  0.98990206  0.23820156  0.36081658  1  0  0.142636  0  0.969153  0  0  0.150588  0  1.036506  0  0  0.15317  0  1.035151  0  0  0.090725  0.148749  0  1.037447  0
H  H5  1  0.98991258  0.26180090  0.86082285  1  0  0.142664  0  0.96903  0  0  0.150544  0  1.036514  0  0  0.153123  0  1.035162  0  0  0.090721  0.148723  0  1.037437  0
H  H6  1  0.01009367  0.76180064  0.63918429  1  0  0.142629  0  0.969161  0  0  0.150558  0  1.036564  0  0  0.153139  0  1.035207  0  0  0.090726  0.148721  0  1.037503  0
H  H7  1  0.01008992  0.73819916  0.13917588  1  0  0.142614  0  0.969068  0  0  0.150515  0  1.036534  0  0  0.153092  0  1.035184  0  0  0.09072  0.148684  0  1.037469  0
H  H8  1  0.01938636  0.12769535  0.51012420  1  0  0.127746  0  0.958772  0  0  0.144839  0  1.015404  0  0  0.146665  0  1.014225  0  0  0.093707  0.143328  0  1.016842  0
H  H9  1  0.01939894  0.37230961  0.01012924  1  0  0.127693  0  0.958745  0  0  0.144803  0  1.015366  0  0  0.146631  0  1.014186  0  0  0.093729  0.143291  0  1.016802  0
H  H10  1  0.98061071  0.87230577  0.48987699  1  0  0.127768  0  0.958751  0  0  0.144867  0  1.015375  0  0  0.146692  0  1.014193  0  0  0.09374  0.143354  0  1.016811  0
H  H11  1  0.98060356  0.62769258  0.98986855  1  0  0.127714  0  0.958718  0  0  0.144806  0  1.01538  0  0  0.14663  0  1.014194  0  0  0.093722  0.143295  0  1.016818  0
H  H12  1  0.31659689  0.27466309  0.41972826  1  0  0.102391  0  0.947075  0  0  0.111389  0  1.012618  0  0  0.113561  0  1.011983  0  0  0.09807  0.109885  0  1.012908  0
H  H13  1  0.31660636  0.22533222  0.91973331  1  0  0.102398  0  0.946993  0  0  0.111391  0  1.012537  0  0  0.113558  0  1.011904  0  0  0.098063  0.109876  0  1.012841  0
H  H14  1  0.68340017  0.72533697  0.58027387  1  0  0.10242  0  0.94709  0  0  0.111409  0  1.01263  0  0  0.113578  0  1.011994  0  0  0.098081  0.109895  0  1.012933  0
H  H15  1  0.68339747  0.77466677  0.08026668  1  0  0.102427  0  0.946996  0  0  0.111426  0  1.012526  0  0  0.113593  0  1.011894  0  0  0.098085  0.109907  0  1.012834  0
H  H16  1  0.37639565  0.79592573  0.46990412  1  0  0.111952  0  0.945929  0  0  0.123777  0  1.002297  0  0  0.126847  0  1.002269  0  0  0.10204  0.121474  0  1.002575  0
H  H17  1  0.37639054  0.70407785  0.96990094  1  0  0.111958  0  0.945897  0  0  0.123786  0  1.002272  0  0  0.126857  0  1.002242  0  0  0.102016  0.121484  0  1.002549  0
H  H18  1  0.62360148  0.20407326  0.53009237  1  0  0.112022  0  0.945823  0  0  0.123844  0  1.002209  0  0  0.126915  0  1.002181  0  0  0.102065  0.121538  0  1.002487  0
H  H19  1  0.62361061  0.29592221  0.03009746  1  0  0.111976  0  0.945895  0  0  0.123794  0  1.002274  0  0  0.126866  0  1.002242  0  0  0.102021  0.121494  0  1.00255  0
H  H20  1  0.15284370  0.93680444  0.29500186  1  0  0.076505  0  0.959312  0  0  0.085679  0  1.023453  0  0  0.087847  0  1.021899  0  0  0.104642  0.083729  0  1.025198  0
H  H21  1  0.15284101  0.56319264  0.79500104  1  0  0.076548  0  0.959259  0  0  0.085713  0  1.023389  0  0  0.087884  0  1.021841  0  0  0.104701  0.083763  0  1.025139  0
H  H22  1  0.84715475  0.06319455  0.70499684  1  0  0.076545  0  0.959206  0  0  0.085708  0  1.023347  0  0  0.087876  0  1.021804  0  0  0.104643  0.083757  0  1.025097  0
H  H23  1  0.84716013  0.43680848  0.20499831  1  0  0.076527  0  0.959251  0  0  0.085691  0  1.023383  0  0  0.087859  0  1.021843  0  0  0.104687  0.08374  0  1.025134  0
H  H24  1  0.54374323  0.07138416  0.13446980  1  0  0.076176  0  0.968791  0  0  0.083294  0  1.037671  0  0  0.08542  0  1.036337  0  0  0.104927  0.081655  0  1.038792  0
H  H25  1  0.54373905  0.42861503  0.63446889  1  0  0.076209  0  0.968707  0  0  0.083279  0  1.037659  0  0  0.085401  0  1.036327  0  0  0.104926  0.081636  0  1.038787  0
H  H26  1  0.45625654  0.92861697  0.86553110  1  0  0.076166  0  0.968818  0  0  0.083295  0  1.037691  0  0  0.08542  0  1.036357  0  0  0.104925  0.081655  0  1.038812  0
H  H27  1  0.45626208  0.57138289  0.36553139  1  0  0.076196  0  0.968739  0  0  0.083295  0  1.037668  0  0  0.085419  0  1.036334  0  0  0.104927  0.08165  0  1.038797  0
H  H28  1  0.78047234  0.94101748  0.29887910  1  0  0.109327  0  0.970163  0  0  0.120527  0  1.030492  0  0  0.123588  0  1.029697  0  0  0.09779  0.117981  0  1.031715  0
H  H29  1  0.78046972  0.55898384  0.79887453  1  0  0.109318  0  0.970163  0  0  0.120532  0  1.030473  0  0  0.123594  0  1.029675  0  0  0.097799  0.117986  0  1.031698  0
H  H30  1  0.21952743  0.05898151  0.70112180  1  0  0.10931  0  0.97018  0  0  0.120507  0  1.030513  0  0  0.123568  0  1.029717  0  0  0.097773  0.117959  0  1.031738  0
H  H31  1  0.21953276  0.44101622  0.20112514  1  0  0.109324  0  0.970131  0  0  0.120523  0  1.030449  0  0  0.123583  0  1.029655  0  0  0.097799  0.117971  0  1.031677  0
C  C32  1  0.07772044  0.20413334  0.45783349  1  0  -0.294501  0  3.670058  0  0  -0.353237  0  3.963099  0  0  -0.347888  0  3.964476  0  0  -0.244264  -0.35676  0  3.962186  0
C  C33  1  0.07772800  0.29586644  0.95783907  1  0  -0.294326  0  3.669867  0  0  -0.35304  0  3.962896  0  0  -0.347689  0  3.964274  0  0  -0.244233  -0.35658  0  3.961972  0
C  C34  1  0.92227798  0.79586672  0.54216803  1  0  -0.294491  0  3.670063  0  0  -0.353226  0  3.963089  0  0  -0.34787  0  3.964465  0  0  -0.244304  -0.356765  0  3.962212  0
C  C35  1  0.92227315  0.70413362  0.04215933  1  0  -0.294308  0  3.669884  0  0  -0.353054  0  3.962929  0  0  -0.347677  0  3.964272  0  0  -0.244229  -0.356583  0  3.962007  0
C  C36  1  0.26383974  0.22026771  0.49061242  1  0  -0.133591  0  3.803689  0  0  -0.158744  0  4.098098  0  0  -0.157841  0  4.107303  0  0  -0.157722  -0.158776  0  4.091138  0
C  C37  1  0.26385012  0.27972794  0.99061867  1  0  -0.133765  0  3.803705  0  0  -0.158911  0  4.098062  0  0  -0.158012  0  4.107278  0  0  -0.157803  -0.15893  0  4.091087  0
C  C38  1  0.73615733  0.77973234  0.50938877  1  0  -0.133656  0  3.803715  0  0  -0.1588  0  4.098073  0  0  -0.157885  0  4.107256  0  0  -0.157717  -0.158828  0  4.091119  0
C  C39  1  0.73615372  0.72027212  0.00938038  1  0  -0.133771  0  3.803741  0  0  -0.158924  0  4.098107  0  0  -0.158016  0  4.107309  0  0  -0.157846  -0.158945  0  4.09115  0
C  C40  1  0.60188420  0.85693409  0.40347728  1  0  0.135184  0  3.805959  0  0  0.153008  0  4.038736  0  0  0.15926  0  4.060094  0  0  -0.000496  0.148313  0  4.024367  0
C  C41  1  0.60188364  0.64306506  0.90347138  1  0  0.135193  0  3.80602  0  0  0.153044  0  4.038794  0  0  0.159294  0  4.060153  0  0  -0.000379  0.148348  0  4.024424  0
C  C42  1  0.39811289  0.14306490  0.59652297  1  0  0.135154  0  3.805901  0  0  0.152944  0  4.038761  0  0  0.159195  0  4.06012  0  0  -0.000516  0.148245  0  4.024392  0
C  C43  1  0.39812020  0.35693393  0.09652767  1  0  0.135267  0  3.806008  0  0  0.153077  0  4.038808  0  0  0.159324  0  4.060177  0  0  -0.000404  0.148381  0  4.024434  0
C  C44  1  0.42031530  0.85625560  0.39792601  1  0  -0.164231  0  3.700586  0  0  -0.182063  0  3.943291  0  0  -0.191102  0  3.965834  0  0  -0.087742  -0.175944  0  3.928454  0
C  C45  1  0.42031199  0.64374341  0.89792416  1  0  -0.164255  0  3.70051  0  0  -0.182139  0  3.943244  0  0  -0.191177  0  3.965786  0  0  -0.087778  -0.176014  0  3.928404  0
C  C46  1  0.57968183  0.14374125  0.60207048  1  0  -0.164309  0  3.700446  0  0  -0.182153  0  3.943189  0  0  -0.191192  0  3.965734  0  0  -0.087752  -0.176026  0  3.928344  0
C  C47  1  0.57969185  0.35625772  0.10207489  1  0  -0.164277  0  3.700541  0  0  -0.182124  0  3.943246  0  0  -0.191161  0  3.965789  0  0  -0.087723  -0.176004  0  3.928411  0
C  C48  1  0.29414969  0.93390997  0.30062105  1  0  0.134663  0  3.695809  0  0  0.109449  0  3.943076  0  0  0.116525  0  3.960039  0  0  0.039021  0.10458  0  3.932014  0
C  C49  1  0.29414700  0.56608852  0.80061741  1  0  0.134567  0  3.695906  0  0  0.109429  0  3.943159  0  0  0.116496  0  3.960128  0  0  0.038955  0.104561  0  3.932101  0
C  C50  1  0.70584741  0.06608795  0.69937826  1  0  0.134637  0  3.69577  0  0  0.109469  0  3.943019  0  0  0.116537  0  3.959983  0  0  0.039028  0.104601  0  3.931956  0
C  C51  1  0.70585547  0.43391047  0.19938320  1  0  0.134641  0  3.69582  0  0  0.109494  0  3.943061  0  0  0.116559  0  3.960028  0  0  0.038967  0.104624  0  3.932006  0
C  C52  1  0.51068468  0.01021304  0.21070682  1  0  0.119322  0  3.716376  0  0  0.091768  0  3.966979  0  0  0.098897  0  3.983877  0  0  0.032432  0.086863  0  3.95595  0
C  C53  1  0.51068141  0.48978640  0.71070241  1  0  0.119361  0  3.716247  0  0  0.091852  0  3.966859  0  0  0.098982  0  3.983758  0  0  0.032477  0.086968  0  3.955807  0
C  C54  1  0.48931375  0.98978595  0.78929376  1  0  0.119301  0  3.716392  0  0  0.091736  0  3.966995  0  0  0.098864  0  3.983892  0  0  0.032422  0.086829  0  3.955974  0
C  C55  1  0.48931973  0.51021152  0.28929693  1  0  0.119436  0  3.716271  0  0  0.091902  0  3.966865  0  0  0.099032  0  3.983758  0  0  0.032506  0.087028  0  3.955789  0
C  C56  1  0.64434361  0.93591285  0.30473839  1  0  -0.169101  0  3.703605  0  0  -0.183289  0  3.940866  0  0  -0.191619  0  3.961696  0  0  -0.091987  -0.177974  0  3.927298  0
C  C57  1  0.64434097  0.56408598  0.80473287  1  0  -0.169084  0  3.703695  0  0  -0.183277  0  3.940929  0  0  -0.191606  0  3.961758  0  0  -0.091983  -0.177966  0  3.927367  0
C  C58  1  0.35565482  0.06408507  0.69526218  1  0  -0.169049  0  3.703617  0  0  -0.183213  0  3.940881  0  0  -0.191543  0  3.961713  0  0  -0.091934  -0.177898  0  3.927311  0
C  C59  1  0.35566020  0.43591408  0.19526459  1  0  -0.169159  0  3.703691  0  0  -0.183329  0  3.940943  0  0  -0.191658  0  3.961773  0  0  -0.092016  -0.178016  0  3.927379  0
N  N60  1  0.33690713  0.01160663  0.20789696  1  0  -0.31063  0  3.373079  0  0  -0.248327  0  3.667341  0  0  -0.259556  0  3.675883  0  0  -0.369503  -0.240966  0  3.661335  0
N  N61  1  0.33690519  0.48838730  0.70789569  1  0  -0.31064  0  3.373213  0  0  -0.248406  0  3.667518  0  0  -0.259636  0  3.676064  0  0  -0.369567  -0.241049  0  3.661532  0
N  N62  1  0.66308997  0.98839130  0.79210235  1  0  -0.310624  0  3.373108  0  0  -0.248348  0  3.667388  0  0  -0.259568  0  3.675918  0  0  -0.369527  -0.240989  0  3.661394  0
N  N63  1  0.66309594  0.51161276  0.29210459  1  0  -0.310745  0  3.373146  0  0  -0.248518  0  3.667466  0  0  -0.25974  0  3.675997  0  0  -0.369617  -0.241165  0  3.661483  0
Cl  Cl64  1  0.89201943  0.07639643  0.11605143  1  0  -0.577062  0  1.112366  0  0  -0.517378  0  1.417999  0  0  -0.532263  0  1.39437  0  0  -0.304374  -0.506014  0  1.433783  0
Cl  Cl65  1  0.89201662  0.42360201  0.61605179  1  0  -0.577088  0  1.112388  0  0  -0.517389  0  1.418004  0  0  -0.53228  0  1.394378  0  0  -0.304381  -0.506019  0  1.433806  0
Cl  Cl66  1  0.10798035  0.92360577  0.88394947  1  0  -0.577091  0  1.11239  0  0  -0.5174  0  1.418018  0  0  -0.532284  0  1.394389  0  0  -0.304385  -0.506032  0  1.433809  0
Cl  Cl67  1  0.10798313  0.57639911  0.38395099  1  0  -0.577086  0  1.112383  0  0  -0.517392  0  1.418008  0  0  -0.532281  0  1.394381  0  0  -0.304389  -0.506027  0  1.433812  0
