# generated using pymatgen
data_CuH7C12(NO2)2
_symmetry_space_group_name_H-M   'P 1'
_cell_length_a   9.50382829
_cell_length_b   9.48299835
_cell_length_c   13.66041574
_cell_angle_alpha   90.00276691
_cell_angle_beta   89.99905405
_cell_angle_gamma   107.35878649
_symmetry_Int_Tables_number   1
_chemical_formula_structural   CuH7C12(NO2)2
_chemical_formula_sum   'Cu4 H28 C48 N8 O16'
_cell_volume   1175.06993380
_cell_formula_units_Z   4
loop_
 _symmetry_equiv_pos_site_id
 _symmetry_equiv_pos_as_xyz
  1  'x, y, z'
loop_
 _atom_site_type_symbol
 _atom_site_label
 _atom_site_symmetry_multiplicity
 _atom_site_fract_x
 _atom_site_fract_y
 _atom_site_fract_z
 _atom_site_occupancy
 _atom_site_pbe_bader_charge
 _atom_site_pbe_bader_spin_density
 _atom_site_pbe_cm5_charge
 _atom_site_pbe_ddec_charge
 _atom_site_pbe_ddec_spin_density
 _atom_site_pbe_ddec_sum_bond_order
 _atom_site_pbe_magmom
Cu  Cu0  1  0.44686030  0.12852443  0.91209115  1  1.047611  -0.541958  0.730325  0.742754  -0.728943  2.22015  -0.543
Cu  Cu1  1  0.05311329  0.87149119  0.41207203  1  1.047578  0.541975  0.730275  0.742574  0.728944  2.220299  0.543
Cu  Cu2  1  0.55312304  0.87150157  0.08791577  1  1.047534  0.541956  0.730197  0.742572  0.728921  2.2201  0.543
Cu  Cu3  1  0.94687522  0.12853454  0.58790780  1  1.047674  -0.541939  0.730328  0.742674  -0.728906  2.220246  -0.543
H  H4  1  0.94303503  0.70127899  0.72985234  1  0.080286  0.000175  0.109531  0.109327  7.6e-05  0.987142  0.0
H  H5  1  0.55700826  0.29869706  0.22987840  1  0.080427  -0.000175  0.109449  0.109176  -7.6e-05  0.987261  0.0
H  H6  1  0.05700159  0.29872736  0.27013555  1  0.080143  -0.000175  0.109541  0.109339  -7.6e-05  0.987195  0.0
H  H7  1  0.44301134  0.70128434  0.77009923  1  0.081035  0.000175  0.109488  0.109287  7.6e-05  0.987045  0.0
H  H8  1  0.93722429  0.74176003  0.90986148  1  0.148719  -0.000822  0.112266  0.131002  -0.00045  1.010219  -0.001
H  H9  1  0.56280215  0.25820563  0.40987807  1  0.148213  0.000822  0.112362  0.131073  0.00045  1.010175  0.001
H  H10  1  0.06281959  0.25822459  0.09013592  1  0.148313  0.000821  0.112404  0.13108  0.00045  1.010187  0.001
H  H11  1  0.43723679  0.74176464  0.59009224  1  0.148583  -0.000822  0.112324  0.131204  -0.00045  1.010008  -0.001
H  H12  1  0.15535854  0.92133421  0.99050489  1  0.19533  -0.001977  0.122984  0.111193  -0.000875  1.049907  -0.002
H  H13  1  0.34466150  0.07864502  0.49051808  1  0.195168  0.001977  0.122956  0.111322  0.000875  1.049738  0.002
H  H14  1  0.84468538  0.07866277  0.00948226  1  0.19524  0.001977  0.122925  0.111238  0.000875  1.049919  0.002
H  H15  1  0.65538400  0.92134738  0.50947200  1  0.194893  -0.001977  0.122896  0.111141  -0.000875  1.049814  -0.002
H  H16  1  0.56408270  0.38348668  0.05886229  1  0.112465  -0.001764  0.120183  0.093935  -0.00084  1.017903  -0.001
H  H17  1  0.93582809  0.61655314  0.55878223  1  0.114112  0.001764  0.120095  0.093938  0.000841  1.018103  0.001
H  H18  1  0.43579402  0.61653256  0.94119001  1  0.114165  0.001763  0.120157  0.094088  0.000841  1.017943  0.001
H  H19  1  0.06411630  0.38349737  0.44116906  1  0.112953  -0.001763  0.120288  0.094007  -0.00084  1.017499  -0.001
H  H20  1  0.81392811  0.53872733  0.10544989  1  0.068739  -0.001054  0.11754  0.127955  -0.000543  0.986286  -0.001
H  H21  1  0.68598849  0.46121988  0.60527818  1  0.070934  0.001051  0.117399  0.127698  0.000542  0.986724  0.001
H  H22  1  0.18593846  0.46118908  0.89472686  1  0.070393  0.001052  0.117414  0.127741  0.000542  0.986621  0.001
H  H23  1  0.31395956  0.53874955  0.39459404  1  0.069371  -0.001053  0.117522  0.127757  -0.000542  0.986544  -0.001
H  H24  1  0.97951634  0.35707707  0.85412369  1  0.101237  -0.000773  0.112486  0.125074  -0.000486  1.019303  0.0
H  H25  1  0.52044686  0.64285664  0.35392672  1  0.101848  0.000773  0.112506  0.125485  0.000486  1.018523  0.0
H  H26  1  0.02046771  0.64288374  0.14609771  1  0.101762  0.000773  0.1125  0.125383  0.000486  1.018678  0.0
H  H27  1  0.47955444  0.35705943  0.64588766  1  0.104801  -0.000769  0.112399  0.124987  -0.000486  1.019426  0.0
H  H28  1  0.72265435  0.21569367  0.81820515  1  0.144619  -0.001436  0.119459  0.094892  -0.000599  1.031235  -0.001
H  H29  1  0.77733962  0.78431124  0.31808244  1  0.14671  0.001437  0.119525  0.094726  0.000599  1.03132  0.001
H  H30  1  0.27737431  0.78432321  0.18191962  1  0.14621  0.001437  0.119453  0.094639  0.000599  1.031365  0.001
H  H31  1  0.22268427  0.21568566  0.68180442  1  0.144381  -0.001436  0.119562  0.094983  -0.000599  1.031236  -0.001
C  C32  1  0.40528537  0.06593959  0.71286800  1  1.584153  0.00161  0.198396  0.514555  -0.000401  4.278043  0.002
C  C33  1  0.09474683  0.93409302  0.21286221  1  1.585347  -0.00161  0.198231  0.514114  0.000401  4.278096  -0.002
C  C34  1  0.59476253  0.93411784  0.28713087  1  1.585365  -0.001611  0.198266  0.514209  0.000399  4.278273  -0.002
C  C35  1  0.90526896  0.06593240  0.78712567  1  1.584496  0.001614  0.198283  0.514415  -0.000399  4.278218  0.002
C  C36  1  0.27254454  0.96258041  0.76133326  1  0.436618  0.002216  0.101505  0.052439  0.001112  3.964011  0.002
C  C37  1  0.22746907  0.03742952  0.26133617  1  0.436718  -0.002214  0.101503  0.052671  -0.001111  3.96419  -0.002
C  C38  1  0.72747762  0.03746040  0.23866121  1  0.436581  -0.002214  0.101581  0.052947  -0.00111  3.964318  -0.002
C  C39  1  0.77253927  0.96258954  0.73865611  1  0.436706  0.002215  0.101473  0.052509  0.00111  3.964145  0.002
C  C40  1  0.15742932  0.86246957  0.71113026  1  0.074719  0.004364  0.00625  -0.042066  0.003099  3.895294  0.004
C  C41  1  0.34260532  0.13753021  0.21115057  1  0.074533  -0.004368  0.006096  -0.042327  -0.003102  3.895318  -0.004
C  C42  1  0.84260891  0.13756590  0.28884737  1  0.074485  -0.004367  0.006062  -0.042691  -0.003101  3.895414  -0.004
C  C43  1  0.65741316  0.86248159  0.78884683  1  0.074902  0.004369  0.006209  -0.042019  0.003102  3.89512  0.004
C  C44  1  0.03665737  0.77875651  0.76645437  1  -0.086505  0.005933  -0.065586  -0.066447  0.003999  3.925265  0.003
C  C45  1  0.46338205  0.22124006  0.26647390  1  -0.086548  -0.005929  -0.065387  -0.066039  -0.003997  3.925308  -0.003
C  C46  1  0.96339203  0.22127163  0.23353205  1  -0.086723  -0.005929  -0.065526  -0.066146  -0.003996  3.925446  -0.003
C  C47  1  0.53665381  0.77876408  0.73350886  1  -0.08683  0.005931  -0.065428  -0.066351  0.003998  3.924858  0.003
C  C48  1  0.03411317  0.79853073  0.86699338  1  -0.020047  -0.006417  -0.071216  -0.092221  -0.004474  3.932447  -0.005
C  C49  1  0.46592126  0.20145614  0.36700197  1  -0.020111  0.006418  -0.071321  -0.092559  0.004474  3.932602  0.005
C  C50  1  0.96593690  0.20147491  0.13300402  1  -0.019861  0.006418  -0.071381  -0.09252  0.004473  3.932344  0.005
C  C51  1  0.53412011  0.79853647  0.63297054  1  -0.020725  -0.006417  -0.071178  -0.09245  -0.004474  3.932145  -0.005
C  C52  1  0.15387287  0.90012314  0.91218262  1  0.495242  0.003887  0.057932  0.115759  0.001939  3.875493  0.002
C  C53  1  0.34614530  0.09985982  0.41218479  1  0.495479  -0.003891  0.057782  0.115543  -0.00194  3.875157  -0.002
C  C54  1  0.84616250  0.09987653  0.08781697  1  0.495472  -0.003889  0.057823  0.115599  -0.001941  3.875064  -0.002
C  C55  1  0.65389470  0.90014411  0.58779650  1  0.496037  0.003888  0.057718  0.115487  0.001939  3.875211  0.002
C  C56  1  0.15347364  0.83895033  0.60132357  1  1.614838  -0.002534  0.204679  0.577479  -0.000946  4.248784  -0.004
C  C57  1  0.34653386  0.16103549  0.10133656  1  1.615585  0.00254  0.204721  0.57753  0.000949  4.248704  0.004
C  C58  1  0.84654985  0.16106682  0.39866651  1  1.615624  0.00254  0.20481  0.577216  0.000949  4.248578  0.004
C  C59  1  0.65345066  0.83895112  0.89865498  1  1.616432  -0.002537  0.204727  0.577163  -0.000946  4.24928  -0.004
C  C60  1  0.66072734  0.37973777  0.01732634  1  0.497834  0.000259  0.050283  0.099176  -0.000623  3.924704  0.0
C  C61  1  0.83919667  0.62027605  0.51721749  1  0.409258  -8.8e-05  0.050094  0.098746  0.000617  3.925321  0.0
C  C62  1  0.33916878  0.62026136  0.98277209  1  0.41013  -8.8e-05  0.050225  0.098732  0.000617  3.925592  0.0
C  C63  1  0.16076004  0.37974909  0.48270597  1  0.497431  0.000261  0.050019  0.098875  -0.000621  3.92428  0.0
C  C64  1  0.80152259  0.46607015  0.04232841  1  0.053275  -0.005428  -0.071117  -0.15025  -0.003805  3.910176  -0.004
C  C65  1  0.69840946  0.53387417  0.54216558  1  0.114691  0.005293  -0.07081  -0.149618  0.003805  3.909288  0.004
C  C66  1  0.19836999  0.53386063  0.95784249  1  0.115455  0.005292  -0.070944  -0.149895  0.003804  3.909665  0.004
C  C67  1  0.30154900  0.46608572  0.45770737  1  0.053731  -0.005428  -0.071054  -0.149873  -0.003804  3.909921  -0.004
C  C68  1  0.92350117  0.45884949  0.98640939  1  -0.080455  0.003083  0.01754  0.096502  0.00209  3.978066  0.002
C  C69  1  0.57644963  0.54108606  0.48621716  1  -0.03478  -0.00309  0.0172  0.096574  -0.002095  3.977769  -0.002
C  C70  1  0.07642736  0.54108165  0.01380469  1  -0.035079  -0.00309  0.017201  0.096969  -0.002095  3.977538  -0.002
C  C71  1  0.42352807  0.45885933  0.51362358  1  -0.081278  0.003085  0.017573  0.096627  0.002091  3.97798  0.002
C  C72  1  0.89336174  0.36935410  0.90281764  1  0.020148  -0.005427  -0.073161  -0.152473  -0.003781  3.908171  -0.004
C  C73  1  0.60660624  0.63059729  0.40263245  1  0.018297  0.005429  -0.073123  -0.15347  0.003783  3.908156  0.004
C  C74  1  0.10660820  0.63060857  0.09738254  1  0.018102  0.005428  -0.073059  -0.153506  0.003783  3.908089  0.004
C  C75  1  0.39339133  0.36935380  0.59720537  1  0.016324  -0.005432  -0.07311  -0.152512  -0.003781  3.908236  -0.004
C  C76  1  0.74961034  0.28682165  0.88216983  1  0.469007  0.000759  0.050089  0.108251  4.1e-05  3.910467  0.001
C  C77  1  0.75036405  0.71316507  0.38203480  1  0.466393  -0.000758  0.050206  0.108905  -4.1e-05  3.910537  -0.001
C  C78  1  0.25037401  0.71317059  0.11796812  1  0.466827  -0.000758  0.050209  0.108986  -4.1e-05  3.910589  -0.001
C  C79  1  0.24964503  0.28682250  0.61785279  1  0.469111  0.000757  0.050115  0.108428  4e-05  3.910464  0.001
N  N80  1  0.26949380  0.97849395  0.85985470  1  -1.214423  -0.085827  -0.344165  -0.242825  -0.059982  3.639059  -0.075
N  N81  1  0.23051423  0.02149831  0.35985338  1  -1.214211  0.085827  -0.344037  -0.242658  0.059983  3.638954  0.075
N  N82  1  0.73052217  0.02152584  0.14014270  1  -1.214439  0.085814  -0.343934  -0.242678  0.059976  3.638987  0.075
N  N83  1  0.76950708  0.97851558  0.64013450  1  -1.215035  -0.085816  -0.344069  -0.24259  -0.059976  3.638773  -0.075
N  N84  1  0.63489415  0.28787451  0.93963362  1  -1.234654  -0.077336  -0.345799  -0.22038  -0.053839  3.58694  -0.067
N  N85  1  0.86505045  0.71215254  0.43954262  1  -1.210649  0.077297  -0.345621  -0.22012  0.053842  3.587621  0.067
N  N86  1  0.36504818  0.71215477  0.06044869  1  -1.211108  0.077294  -0.345697  -0.220224  0.05384  3.587706  0.067
N  N87  1  0.13493131  0.28787803  0.56038963  1  -1.234717  -0.077332  -0.345805  -0.220465  -0.053837  3.587057  -0.067
O  O88  1  0.49124451  0.16262401  0.77125680  1  -1.112153  -0.120094  -0.33281  -0.548479  -0.080235  2.35199  -0.11
O  O89  1  0.00877346  0.83740548  0.27123706  1  -1.112738  0.120114  -0.332536  -0.548203  0.080246  2.351974  0.11
O  O90  1  0.50878472  0.83742205  0.22876109  1  -1.112433  0.120122  -0.332576  -0.548322  0.080252  2.352248  0.11
O  O91  1  0.99124451  0.16262319  0.72875449  1  -1.11238  -0.120132  -0.332701  -0.548432  -0.080259  2.352001  -0.11
O  O92  1  0.42646143  0.05965985  0.62365306  1  -1.145517  -0.028003  -0.282942  -0.469062  -0.018424  2.194974  -0.024
O  O93  1  0.07359404  0.94037217  0.12364553  1  -1.1458  0.028006  -0.282947  -0.468866  0.018427  2.194953  0.024
O  O94  1  0.57360875  0.94039193  0.37635019  1  -1.145592  0.028021  -0.283019  -0.468898  0.018437  2.194671  0.024
O  O95  1  0.92643607  0.05965811  0.87634162  1  -1.145532  -0.02802  -0.282887  -0.468961  -0.018435  2.194876  -0.024
O  O96  1  0.19202117  0.73462034  0.56701810  1  -1.154672  -0.000547  -0.316959  -0.546757  -0.000606  2.118774  0.0
O  O97  1  0.30799089  0.26537301  0.06704163  1  -1.154714  0.000544  -0.316968  -0.54679  0.000605  2.119165  0.0
O  O98  1  0.80801287  0.26540300  0.43297710  1  -1.154567  0.000549  -0.317021  -0.546615  0.000608  2.118912  0.0
O  O99  1  0.69200908  0.73462178  0.93294259  1  -1.154974  -0.000546  -0.317038  -0.546624  -0.000606  2.119086  0.0
O  O100  1  0.09282924  0.92307849  0.55274262  1  -1.118737  0.091096  -0.327665  -0.569463  0.061412  2.394418  0.082
O  O101  1  0.40717102  0.07688865  0.05275429  1  -1.119418  -0.091126  -0.327639  -0.569396  -0.061432  2.394217  -0.082
O  O102  1  0.90719845  0.07692944  0.44724087  1  -1.119661  -0.09111  -0.327681  -0.569179  -0.06142  2.394352  -0.082
O  O103  1  0.59281421  0.92308781  0.94724311  1  -1.119726  0.091099  -0.327624  -0.56923  0.061413  2.394368  0.082
