# generated using pymatgen
data_MnH11C9N3(ClO)2
_symmetry_space_group_name_H-M   'P 1'
_cell_length_a   6.68404840
_cell_length_b   10.31763947
_cell_length_c   10.31772362
_cell_angle_alpha   60.50638374
_cell_angle_beta   73.58561553
_cell_angle_gamma   73.58463706
_symmetry_Int_Tables_number   1
_chemical_formula_structural   MnH11C9N3(ClO)2
_chemical_formula_sum   'Mn2 H22 C18 N6 Cl4 O4'
_cell_volume   585.25868469
_cell_formula_units_Z   2
loop_
 _symmetry_equiv_pos_site_id
 _symmetry_equiv_pos_as_xyz
  1  'x, y, z'
loop_
 _atom_site_type_symbol
 _atom_site_label
 _atom_site_symmetry_multiplicity
 _atom_site_fract_x
 _atom_site_fract_y
 _atom_site_fract_z
 _atom_site_occupancy
 _atom_site_pbe_cm5_charge
 _atom_site_pbe_ddec_charge
 _atom_site_pbe_ddec_spin_density
 _atom_site_pbe_ddec_sum_bond_order
 _atom_site_pbe_magmom
Mn  Mn0  1  0.25000144  0.11107069  0.88892933  1  0.431965  0.656239  -4.660331  2.556218  -4.435
Mn  Mn1  1  0.74999716  0.88892752  0.11106850  1  0.431943  0.656159  -4.660334  2.556323  -4.435
H  H2  1  0.32687803  0.67172185  0.73258544  1  0.095255  0.13838  -0.000252  1.025947  0.0
H  H3  1  0.17312536  0.26740753  0.32827654  1  0.095261  0.1384  -0.000252  1.025937  0.0
H  H4  1  0.67312847  0.32827627  0.26740816  1  0.095268  0.138412  -0.000252  1.025886  0.0
H  H5  1  0.82687583  0.73258613  0.67172211  1  0.09525  0.138364  -0.000252  1.025967  0.0
H  H6  1  0.35348145  0.54905547  0.92517415  1  0.100033  0.151715  -0.000356  1.005635  0.0
H  H7  1  0.14652537  0.07482062  0.45094720  1  0.10004  0.151756  -0.000356  1.005576  0.0
H  H8  1  0.64651997  0.45094384  0.07482459  1  0.100052  0.151761  -0.000356  1.005575  0.0
H  H9  1  0.85347984  0.92517527  0.54905547  1  0.100044  0.151733  -0.000356  1.005608  0.0
H  H10  1  0.09939690  0.62613978  0.87434898  1  0.10005  0.153999  -0.000289  1.006249  -0.001
H  H11  1  0.40059834  0.12564540  0.37386739  1  0.100057  0.154019  -0.000289  1.006268  -0.001
H  H12  1  0.90060229  0.37386293  0.12564557  1  0.10005  0.154019  -0.000289  1.00624  -0.001
H  H13  1  0.59939708  0.87435284  0.62613290  1  0.100033  0.153993  -0.000289  1.006229  -0.001
H  H14  1  0.25560073  0.70139451  0.53786067  1  0.110024  0.124563  -0.000521  0.996353  0.0
H  H15  1  0.24438963  0.46215268  0.29861004  1  0.110063  0.124664  -0.000521  0.996198  0.0
H  H16  1  0.74439581  0.29860487  0.46214566  1  0.110034  0.124578  -0.000521  0.996333  0.0
H  H17  1  0.75560755  0.53785119  0.70139106  1  0.110064  0.124656  -0.000521  0.996247  0.0
H  H18  1  0.24998941  0.70163657  0.29837393  1  0.09632  0.112854  0.000899  1.0384  0.0
H  H19  1  0.75000593  0.29836845  0.70162789  1  0.096333  0.112884  0.000899  1.038392  0.0
H  H20  1  0.32233430  0.18352867  0.12275581  1  0.276861  0.304481  -0.000484  1.033804  -0.001
H  H21  1  0.17767572  0.87724308  0.81647149  1  0.276866  0.304496  -0.000484  1.033782  -0.001
H  H22  1  0.67766614  0.81646839  0.87724129  1  0.276839  0.304474  -0.000484  1.033835  -0.001
H  H23  1  0.82233354  0.12275615  0.18352496  1  0.27687  0.304469  -0.000484  1.033745  -0.001
C  C24  1  0.26818572  0.44694240  0.81635136  1  0.130548  0.193999  -0.008413  3.924731  -0.008
C  C25  1  0.23180900  0.18365989  0.55304878  1  0.130487  0.194016  -0.008414  3.924556  -0.008
C  C26  1  0.73181268  0.55304905  0.18365467  1  0.130516  0.193883  -0.008416  3.92484  -0.008
C  C27  1  0.76818917  0.81634734  0.44694468  1  0.13051  0.193955  -0.008413  3.924732  -0.008
C  C28  1  0.25519910  0.45954566  0.67020715  1  0.127459  0.172926  -0.004283  4.000937  -0.003
C  C29  1  0.24479284  0.32980282  0.54045804  1  0.127378  0.172842  -0.004283  4.000842  -0.003
C  C30  1  0.74479365  0.54045713  0.32979525  1  0.12738  0.172864  -0.004282  4.000868  -0.003
C  C31  1  0.75520094  0.67020222  0.45954404  1  0.127336  0.17284  -0.004282  4.000985  -0.003
C  C32  1  0.25250465  0.59664430  0.53766183  1  -0.081429  -0.159889  -0.003598  3.92434  -0.003
C  C33  1  0.24747672  0.46234828  0.40336322  1  -0.081394  -0.159947  -0.003598  3.924388  -0.003
C  C34  1  0.74748566  0.40335514  0.46234457  1  -0.081399  -0.159868  -0.0036  3.924278  -0.003
C  C35  1  0.75251706  0.53765676  0.59663887  1  -0.081424  -0.159975  -0.003599  3.92448  -0.003
C  C36  1  0.24999636  0.59682388  0.40318328  1  -0.067947  -0.012197  -0.003348  3.955894  -0.003
C  C37  1  0.75000058  0.40318113  0.59681731  1  -0.067921  -0.012182  -0.003347  3.955994  -0.003
C  C38  1  0.26310946  0.58076028  0.83731892  1  -0.242066  -0.444631  -0.000984  3.926713  -0.001
C  C39  1  0.23689087  0.16268034  0.41924152  1  -0.242085  -0.444743  -0.000984  3.92678  -0.001
C  C40  1  0.73689121  0.41924242  0.16267828  1  -0.242094  -0.444699  -0.000984  3.926775  -0.001
C  C41  1  0.76311083  0.83731783  0.58075676  1  -0.24203  -0.444605  -0.000984  3.926767  -0.001
N  N42  1  0.28462524  0.30977415  0.92410035  1  -0.2185  -0.092594  -0.031273  3.403463  -0.022
N  N43  1  0.21538373  0.07590670  0.69022025  1  -0.218407  -0.092532  -0.031271  3.403331  -0.022
N  N44  1  0.71537476  0.69022406  0.07590306  1  -0.218466  -0.092482  -0.03127  3.403331  -0.022
N  N45  1  0.78462325  0.92409593  0.30977395  1  -0.218442  -0.09254  -0.031269  3.403344  -0.022
N  N46  1  0.25000103  0.33013517  0.66986779  1  -0.310305  -0.301373  -0.039727  3.503026  -0.03
N  N47  1  0.74999875  0.66986417  0.33013412  1  -0.310271  -0.301389  -0.039729  3.503023  -0.03
Cl  Cl48  1  0.63794757  0.03077578  0.82023297  1  -0.22121  -0.453954  -0.094032  1.386437  -0.054
Cl  Cl49  1  0.86205662  0.17977456  0.96921836  1  -0.221239  -0.453952  -0.094024  1.386377  -0.054
Cl  Cl50  1  0.36204933  0.96922246  0.17976999  1  -0.221217  -0.453949  -0.094028  1.38644  -0.054
Cl  Cl51  1  0.13794448  0.82021911  0.03078321  1  -0.221248  -0.453941  -0.094022  1.386318  -0.054
O  O52  1  0.29262488  0.29712336  0.06136395  1  -0.252031  -0.316748  -0.004267  2.316494  -0.005
O  O53  1  0.20738741  0.93864092  0.70287735  1  -0.252036  -0.316755  -0.004266  2.31657  -0.005
O  O54  1  0.70737720  0.70287257  0.93863924  1  -0.251984  -0.316729  -0.004267  2.316528  -0.005
O  O55  1  0.79261951  0.06136171  0.29711880  1  -0.252045  -0.31672  -0.004266  2.316487  -0.005
