# generated using pymatgen
data_CdH4C9(NO2)2
_symmetry_space_group_name_H-M   'P 1'
_cell_length_a   5.79927914
_cell_length_b   10.74398305
_cell_length_c   13.73377021
_cell_angle_alpha   95.34440496
_cell_angle_beta   90.00028575
_cell_angle_gamma   90.00023810
_symmetry_Int_Tables_number   1
_chemical_formula_structural   CdH4C9(NO2)2
_chemical_formula_sum   'Cd4 H16 C36 N8 O16'
_cell_volume   851.99496557
_cell_formula_units_Z   4
loop_
 _symmetry_equiv_pos_site_id
 _symmetry_equiv_pos_as_xyz
  1  'x, y, z'
loop_
 _atom_site_type_symbol
 _atom_site_label
 _atom_site_symmetry_multiplicity
 _atom_site_fract_x
 _atom_site_fract_y
 _atom_site_fract_z
 _atom_site_occupancy
 _atom_site_hle17_bader_spin_density
 _atom_site_hle17_ddec_charge
 _atom_site_hle17_ddec_spin_density
 _atom_site_hle17_ddec_sum_bond_order
 _atom_site_hle17_magmom
 _atom_site_hse06_10hf_bader_spin_density
 _atom_site_hse06_10hf_ddec_charge
 _atom_site_hse06_10hf_ddec_spin_density
 _atom_site_hse06_10hf_ddec_sum_bond_order
 _atom_site_hse06_10hf_magmom
 _atom_site_hse06_bader_spin_density
 _atom_site_hse06_ddec_charge
 _atom_site_hse06_ddec_spin_density
 _atom_site_hse06_ddec_sum_bond_order
 _atom_site_hse06_magmom
 _atom_site_pbe_bader_spin_density
 _atom_site_pbe_cm5_charge
 _atom_site_pbe_ddec_charge
 _atom_site_pbe_ddec_spin_density
 _atom_site_pbe_ddec_sum_bond_order
 _atom_site_pbe_magmom
Cd  Cd0  1  0.78528659  0.74607068  0.65661889  1  0  1.238982  0  1.604182  0  0  1.057726  0  2.049735  0  0  1.112837  0  1.99536  0  0  0.808374  1.018118  0  2.087315  0
Cd  Cd1  1  0.28529278  0.75392912  0.84338464  1  0  1.23903  0  1.604146  0  0  1.057788  0  2.049687  0  0  1.112894  0  1.995315  0  0  0.808402  1.018184  0  2.087281  0
Cd  Cd2  1  0.21470880  0.25393240  0.34338328  1  0  1.239025  0  1.604143  0  0  1.057788  0  2.049684  0  0  1.112898  0  1.995309  0  0  0.808413  1.018186  0  2.087264  0
Cd  Cd3  1  0.71471123  0.24607022  0.15661653  1  0  1.23902  0  1.604187  0  0  1.057789  0  2.049735  0  0  1.1129  0  1.995361  0  0  0.808401  1.018183  0  2.087311  0
H  H4  1  0.18272158  0.08534170  0.05445781  1  0  0.102883  0  0.976677  0  0  0.109597  0  1.040819  0  0  0.113084  0  1.036281  0  0  0.134954  0.106646  0  1.044837  0
H  H5  1  0.68272326  0.41465803  0.44553735  1  0  0.10284  0  0.976652  0  0  0.109529  0  1.040826  0  0  0.113017  0  1.036282  0  0  0.134945  0.106576  0  1.044855  0
H  H6  1  0.81728071  0.91466045  0.94554210  1  0  0.102805  0  0.976721  0  0  0.109481  0  1.040911  0  0  0.113  0  1.036323  0  0  0.134923  0.10653  0  1.044931  0
H  H7  1  0.31727041  0.58534692  0.55446423  1  0  0.102858  0  0.976688  0  0  0.109518  0  1.040879  0  0  0.113032  0  1.036305  0  0  0.134948  0.106567  0  1.044898  0
H  H8  1  0.40459043  0.14178795  0.90762365  1  0  0.31676  0  0.934597  0  0  0.295474  0  0.997277  0  0  0.304422  0  0.990661  0  0  0.309839  0.289295  0  1.00174  0
H  H9  1  0.90459114  0.35821119  0.59237350  1  0  0.316738  0  0.934566  0  0  0.29547  0  0.997263  0  0  0.304422  0  0.990641  0  0  0.309823  0.289289  0  1.001726  0
H  H10  1  0.59541186  0.85820858  0.09237731  1  0  0.316736  0  0.934575  0  0  0.295469  0  0.997265  0  0  0.304418  0  0.990647  0  0  0.309828  0.289288  0  1.00173  0
H  H11  1  0.09540597  0.64178535  0.40762527  1  0  0.316949  0  0.934245  0  0  0.295659  0  0.997007  0  0  0.304615  0  0.99037  0  0  0.30986  0.289476  0  1.00148  0
H  H12  1  0.34457416  0.33024012  0.76570130  1  0  0.120316  0  0.949431  0  0  0.1282  0  1.013245  0  0  0.130829  0  1.013498  0  0  0.107025  0.126329  0  1.013149  0
H  H13  1  0.84457353  0.16975979  0.73429359  1  0  0.120324  0  0.949508  0  0  0.128212  0  1.01331  0  0  0.130841  0  1.013563  0  0  0.107061  0.12634  0  1.013213  0
H  H14  1  0.65542812  0.66975455  0.23429588  1  0  0.120354  0  0.949477  0  0  0.128229  0  1.013295  0  0  0.130857  0  1.01355  0  0  0.107072  0.126359  0  1.013198  0
H  H15  1  0.15541841  0.83024048  0.26570692  1  0  0.120288  0  0.949548  0  0  0.12818  0  1.013346  0  0  0.130807  0  1.013602  0  0  0.107034  0.126309  0  1.013253  0
H  H16  1  0.63866395  0.42609165  0.97382971  1  0  0.131675  0  0.967458  0  0  0.138106  0  1.032592  0  0  0.142489  0  1.029088  0  0  0.10954  0.134948  0  1.03524  0
H  H17  1  0.13864980  0.07391141  0.52617297  1  0  0.131724  0  0.967358  0  0  0.138057  0  1.032621  0  0  0.142436  0  1.029116  0  0  0.10951  0.134899  0  1.035265  0
H  H18  1  0.36134179  0.57390957  0.02616795  1  0  0.131713  0  0.967389  0  0  0.138058  0  1.032627  0  0  0.142438  0  1.029124  0  0  0.109524  0.134902  0  1.03527  0
H  H19  1  0.86133697  0.92609261  0.47382781  1  0  0.131679  0  0.96745  0  0  0.138122  0  1.032582  0  0  0.142504  0  1.029075  0  0  0.109536  0.134962  0  1.035231  0
C  C20  1  0.94612924  0.31235254  0.95108611  1  0  0.155021  0  3.820831  0  0  0.150656  0  4.069502  0  0  0.154512  0  4.092562  0  0  0.089529  0.147982  0  4.05394  0
C  C21  1  0.44611266  0.18765793  0.54891852  1  0  0.154682  0  3.821121  0  0  0.150458  0  4.069626  0  0  0.154266  0  4.092747  0  0  0.089558  0.147789  0  4.054061  0
C  C22  1  0.05388512  0.68765054  0.04891533  1  0  0.154816  0  3.820919  0  0  0.15056  0  4.06949  0  0  0.154381  0  4.092597  0  0  0.089549  0.147883  0  4.053936  0
C  C23  1  0.55388791  0.81234328  0.45108351  1  0  0.154834  0  3.821015  0  0  0.150585  0  4.069558  0  0  0.1544  0  4.09267  0  0  0.089564  0.147921  0  4.053986  0
C  C24  1  0.12927355  0.15905839  0.01000401  1  0  0.294778  0  3.620237  0  0  0.226819  0  3.899716  0  0  0.24653  0  3.906999  0  0  0.169301  0.213812  0  3.89507  0
C  C25  1  0.62926145  0.34094399  0.48999487  1  0  0.294796  0  3.620132  0  0  0.226887  0  3.899659  0  0  0.246602  0  3.906944  0  0  0.16928  0.213881  0  3.895015  0
C  C26  1  0.87073564  0.84094282  0.98999657  1  0  0.294851  0  3.620235  0  0  0.226951  0  3.899726  0  0  0.246648  0  3.906997  0  0  0.169315  0.21395  0  3.895077  0
C  C27  1  0.37073739  0.65905629  0.51000709  1  0  0.294764  0  3.620164  0  0  0.226896  0  3.899678  0  0  0.24659  0  3.906952  0  0  0.16929  0.213896  0  3.895032  0
C  C28  1  0.66307174  0.56427485  0.82161655  1  0  0.662944  0  3.897741  0  0  0.61015  0  4.191772  0  0  0.6457  0  4.184847  0  0  0.204376  0.585909  0  4.195736  0
C  C29  1  0.16305828  0.93573209  0.67838432  1  0  0.662754  0  3.897834  0  0  0.609962  0  4.191849  0  0  0.645512  0  4.184928  0  0  0.204305  0.585721  0  4.195807  0
C  C30  1  0.33693917  0.43572917  0.17838278  1  0  0.662848  0  3.897583  0  0  0.610057  0  4.191611  0  0  0.645607  0  4.184687  0  0  0.204334  0.585806  0  4.195585  0
C  C31  1  0.83693711  0.06426352  0.32161438  1  0  0.663005  0  3.897679  0  0  0.610187  0  4.191722  0  0  0.645741  0  4.184792  0  0  0.204322  0.585947  0  4.195685  0
C  C32  1  0.19231419  0.35033092  0.81098693  1  0  -0.150602  0  3.704063  0  0  -0.178126  0  3.95688  0  0  -0.180318  0  3.975794  0  0  -0.085559  -0.176815  0  3.944138  0
C  C33  1  0.69230600  0.14967042  0.68901429  1  0  -0.150583  0  3.704127  0  0  -0.178116  0  3.956962  0  0  -0.180304  0  3.975872  0  0  -0.085573  -0.176812  0  3.944218  0
C  C34  1  0.80769845  0.64966842  0.18901423  1  0  -0.150555  0  3.703996  0  0  -0.178048  0  3.956834  0  0  -0.180236  0  3.975747  0  0  -0.085531  -0.176741  0  3.944088  0
C  C35  1  0.30768767  0.85032611  0.31098739  1  0  -0.150617  0  3.704265  0  0  -0.178149  0  3.95709  0  0  -0.180339  0  3.976  0  0  -0.085621  -0.176847  0  3.944357  0
C  C36  1  0.14357907  0.28517992  0.89190848  1  0  0.170473  0  3.769568  0  0  0.160378  0  4.016449  0  0  0.165721  0  4.036482  0  0  0.103258  0.157059  0  4.002834  0
C  C37  1  0.64357039  0.21482875  0.60809463  1  0  0.170527  0  3.769571  0  0  0.160404  0  4.016496  0  0  0.165762  0  4.036535  0  0  0.10329  0.157081  0  4.002885  0
C  C38  1  0.85643184  0.71482128  0.10809355  1  0  0.170541  0  3.769416  0  0  0.160354  0  4.016436  0  0  0.165704  0  4.036475  0  0  0.103208  0.157039  0  4.002822  0
C  C39  1  0.35642500  0.78516685  0.39190480  1  0  0.170428  0  3.769666  0  0  0.160354  0  4.016538  0  0  0.165711  0  4.036575  0  0  0.10333  0.157029  0  4.002932  0
C  C40  1  0.83895207  0.47134321  0.84891600  1  0  -0.086919  0  3.749944  0  0  -0.075878  0  3.993361  0  0  -0.083918  0  4.017355  0  0  -0.024172  -0.070822  0  3.977711  0
C  C41  1  0.33894422  0.02865854  0.65108338  1  0  -0.08687  0  3.749841  0  0  -0.075792  0  3.993199  0  0  -0.083835  0  4.017191  0  0  -0.02416  -0.070736  0  3.97754  0
C  C42  1  0.16105884  0.52865800  0.15108311  1  0  -0.086863  0  3.74984  0  0  -0.075802  0  3.993225  0  0  -0.08384  0  4.017211  0  0  -0.024159  -0.070746  0  3.977573  0
C  C43  1  0.66104082  0.97134267  0.34891792  1  0  -0.086987  0  3.749846  0  0  -0.075896  0  3.993252  0  0  -0.083947  0  4.017252  0  0  -0.024163  -0.070839  0  3.977592  0
C  C44  1  0.03869356  0.44452663  0.79040689  1  0  -0.086422  0  3.758801  0  0  -0.07478  0  4.003008  0  0  -0.07995  0  4.024932  0  0  -0.021628  -0.071106  0  3.988257  0
C  C45  1  0.53868671  0.05547520  0.70959549  1  0  -0.086414  0  3.758847  0  0  -0.074742  0  4.003033  0  0  -0.079912  0  4.02496  0  0  -0.021651  -0.071057  0  3.988255  0
C  C46  1  0.96131390  0.55546897  0.20959254  1  0  -0.08654  0  3.758839  0  0  -0.074892  0  4.002986  0  0  -0.080065  0  4.024915  0  0  -0.021693  -0.071207  0  3.988213  0
C  C47  1  0.46129833  0.94452787  0.29040959  1  0  -0.086406  0  3.758789  0  0  -0.074784  0  4.002992  0  0  -0.079947  0  4.024914  0  0  -0.021648  -0.071095  0  3.98823  0
C  C48  1  0.08861159  0.51706153  0.70454654  1  0  0.685804  0  3.865829  0  0  0.628133  0  4.168621  0  0  0.664008  0  4.157445  0  0  0.216839  0.603522  0  4.175715  0
C  C49  1  0.58859648  0.98294052  0.79545526  1  0  0.68572  0  3.866122  0  0  0.627984  0  4.169017  0  0  0.663858  0  4.157849  0  0  0.216741  0.603379  0  4.176091  0
C  C50  1  0.91139932  0.48293781  0.29545462  1  0  0.685607  0  3.866272  0  0  0.628018  0  4.168922  0  0  0.663891  0  4.157754  0  0  0.216786  0.603409  0  4.176004  0
C  C51  1  0.41139546  0.01706162  0.20454683  1  0  0.685824  0  3.865945  0  0  0.628165  0  4.168718  0  0  0.664041  0  4.157539  0  0  0.216855  0.603531  0  4.175839  0
C  C52  1  0.79268967  0.40584066  0.92985455  1  0  -0.130023  0  3.688595  0  0  -0.160455  0  3.941337  0  0  -0.16054  0  3.958787  0  0  -0.082686  -0.160441  0  3.929881  0
C  C53  1  0.29267443  0.09416750  0.57014958  1  0  -0.129891  0  3.688516  0  0  -0.160297  0  3.941216  0  0  -0.160372  0  3.958705  0  0  -0.082627  -0.160288  0  3.92976  0
C  C54  1  0.20732124  0.59416335  0.07014624  1  0  -0.129952  0  3.688515  0  0  -0.160347  0  3.941231  0  0  -0.160423  0  3.958703  0  0  -0.082664  -0.160336  0  3.929781  0
C  C55  1  0.70731923  0.90583278  0.42985092  1  0  -0.129933  0  3.688607  0  0  -0.16043  0  3.941308  0  0  -0.160512  0  3.958804  0  0  -0.082706  -0.16042  0  3.929853  0
N  N56  1  0.25351333  0.18816940  0.93192773  1  0  -0.326225  0  3.357748  0  0  -0.261584  0  3.591292  0  0  -0.279921  0  3.602136  0  0  -0.366472  -0.249254  0  3.583478  0
N  N57  1  0.75350311  0.31183305  0.56807079  1  0  -0.326085  0  3.35766  0  0  -0.261554  0  3.591318  0  0  -0.279891  0  3.602159  0  0  -0.366388  -0.249221  0  3.583501  0
N  N58  1  0.74649068  0.81182994  0.06807198  1  0  -0.326182  0  3.357686  0  0  -0.261624  0  3.591345  0  0  -0.27996  0  3.602193  0  0  -0.3664  -0.249291  0  3.583527  0
N  N59  1  0.24649401  0.68816349  0.43192798  1  0  -0.326184  0  3.357459  0  0  -0.261682  0  3.591092  0  0  -0.280022  0  3.601943  0  0  -0.366443  -0.249347  0  3.583283  0
N  N60  1  0.94337333  0.23163251  0.02469306  1  0  -0.472335  0  3.178158  0  0  -0.397926  0  3.472122  0  0  -0.423266  0  3.485069  0  0  -0.359983  -0.380348  0  3.463004  0
N  N61  1  0.44335699  0.26837542  0.47531201  1  0  -0.472304  0  3.178291  0  0  -0.397912  0  3.472204  0  0  -0.423234  0  3.48516  0  0  -0.360088  -0.380339  0  3.463092  0
N  N62  1  0.05663930  0.76837244  0.97530852  1  0  -0.472291  0  3.178161  0  0  -0.397871  0  3.472058  0  0  -0.423201  0  3.48502  0  0  -0.36001  -0.380295  0  3.462948  0
N  N63  1  0.55664185  0.73162485  0.52468850  1  0  -0.472293  0  3.178425  0  0  -0.397889  0  3.472321  0  0  -0.423214  0  3.485287  0  0  -0.36005  -0.380317  0  3.463206  0
O  O64  1  0.63270199  0.58078487  0.73177739  1  0  -0.669515  0  2.010716  0  0  -0.602635  0  2.262852  0  0  -0.631322  0  2.251467  0  0  -0.342976  -0.582319  0  2.269874  0
O  O65  1  0.13269807  0.91920889  0.76822099  1  0  -0.669524  0  2.010905  0  0  -0.602636  0  2.26301  0  0  -0.631325  0  2.251621  0  0  -0.342978  -0.582329  0  2.270036  0
O  O66  1  0.36730030  0.41921260  0.26822000  1  0  -0.669504  0  2.010761  0  0  -0.602624  0  2.262907  0  0  -0.631313  0  2.25152  0  0  -0.342964  -0.58231  0  2.269934  0
O  O67  1  0.86728007  0.08078391  0.23177605  1  0  -0.669624  0  2.010863  0  0  -0.602709  0  2.262972  0  0  -0.631397  0  2.251578  0  0  -0.343012  -0.582398  0  2.269999  0
O  O68  1  0.11752831  0.45905484  0.62196804  1  0  -0.5741  0  1.957589  0  0  -0.525082  0  2.176991  0  0  -0.548308  0  2.167904  0  0  -0.298359  -0.508881  0  2.182939  0
O  O69  1  0.61751294  0.04094535  0.87803366  1  0  -0.57403  0  1.957734  0  0  -0.524978  0  2.177151  0  0  -0.548202  0  2.168064  0  0  -0.298241  -0.508784  0  2.183094  0
O  O70  1  0.88247743  0.54094824  0.37803267  1  0  -0.574044  0  1.95768  0  0  -0.525072  0  2.177067  0  0  -0.548285  0  2.16797  0  0  -0.298317  -0.50887  0  2.183013  0
O  O71  1  0.38248245  0.95905960  0.12196792  1  0  -0.574075  0  1.957731  0  0  -0.525083  0  2.177138  0  0  -0.5483  0  2.168047  0  0  -0.298354  -0.508876  0  2.183095  0
O  O72  1  0.54553703  0.61908487  0.89185431  1  0  -0.639656  0  2.03531  0  0  -0.568306  0  2.292678  0  0  -0.599599  0  2.283815  0  0  -0.317879  -0.546252  0  2.298  0
O  O73  1  0.04552068  0.88092079  0.60814694  1  0  -0.639497  0  2.035215  0  0  -0.56816  0  2.292593  0  0  -0.599452  0  2.283734  0  0  -0.317838  -0.546103  0  2.297907  0
O  O74  1  0.45446526  0.38090886  0.10814425  1  0  -0.639573  0  2.035061  0  0  -0.56828  0  2.292519  0  0  -0.599575  0  2.283658  0  0  -0.317881  -0.546218  0  2.297834  0
O  O75  1  0.95447644  0.11908044  0.39184199  1  0  -0.639584  0  2.035347  0  0  -0.568254  0  2.292772  0  0  -0.599544  0  2.283907  0  0  -0.317796  -0.546202  0  2.29809  0
O  O76  1  0.09969621  0.63847571  0.71901432  1  0  -0.743902  0  2.143437  0  0  -0.660508  0  2.429887  0  0  -0.693045  0  2.412551  0  0  -0.353347  -0.637421  0  2.440937  0
O  O77  1  0.59969738  0.86152824  0.78098983  1  0  -0.743896  0  2.143492  0  0  -0.660525  0  2.430049  0  0  -0.693043  0  2.412661  0  0  -0.353354  -0.637441  0  2.44109  0
O  O78  1  0.90030091  0.36152737  0.28098566  1  0  -0.743793  0  2.143587  0  0  -0.660443  0  2.430035  0  0  -0.692971  0  2.412674  0  0  -0.353312  -0.637358  0  2.441076  0
O  O79  1  0.40029457  0.13847764  0.21901400  1  0  -0.743923  0  2.143378  0  0  -0.660543  0  2.42985  0  0  -0.693076  0  2.412496  0  0  -0.35336  -0.637449  0  2.440901  0
