# generated using pymatgen
data_AlH8C15O6F
_symmetry_space_group_name_H-M   'P 1'
_cell_length_a   6.68032987
_cell_length_b   15.22230160
_cell_length_c   17.77005221
_cell_angle_alpha   88.62923118
_cell_angle_beta   80.32458523
_cell_angle_gamma   78.76113835
_symmetry_Int_Tables_number   1
_chemical_formula_structural   AlH8C15O6F
_chemical_formula_sum   'Al2 H16 C30 O12 F2'
_cell_volume   1747.09945611
_cell_formula_units_Z   2
loop_
 _symmetry_equiv_pos_site_id
 _symmetry_equiv_pos_as_xyz
  1  'x, y, z'
loop_
 _atom_site_type_symbol
 _atom_site_label
 _atom_site_symmetry_multiplicity
 _atom_site_fract_x
 _atom_site_fract_y
 _atom_site_fract_z
 _atom_site_occupancy
 _atom_site_pbe_bader_charge
 _atom_site_pbe_bader_spin_density
 _atom_site_pbe_cm5_charge
 _atom_site_pbe_ddec_charge
 _atom_site_pbe_ddec_spin_density
 _atom_site_pbe_ddec_sum_bond_order
 _atom_site_pbe_magmom
Al  Al0  1  0.50000351  0.50000508  0.49999904  1  2.504211  0  0.405201  1.642274  0  2.5727  0
Al  Al1  1  0.00001177  0.49999514  0.49999186  1  2.505281  0  0.397344  1.647028  0  2.580183  0
H  H2  1  0.24331673  0.43170502  0.58065583  1  0.620887  0  0.354059  0.433193  0  0.851361  0
H  H3  1  0.75671470  0.56830105  0.41933229  1  0.620835  0  0.354334  0.433584  0  0.851456  0
H  H4  1  0.67795095  0.46323758  0.27152143  1  0.130991  0  0.115079  0.122037  0  0.995329  0
H  H5  1  0.75730023  0.45793478  0.12939407  1  0.093364  0  0.107958  0.112673  0  0.993619  0
H  H6  1  0.10426348  0.54720313  0.12259570  1  0.09982  0  0.115601  0.140438  0  0.981101  0
H  H7  1  0.89587668  0.45292001  0.87737345  1  0.099983  0  0.115588  0.140325  0  0.981581  0
H  H8  1  0.32207170  0.53671705  0.72848268  1  0.130694  0  0.115041  0.12205  0  0.995524  0
H  H9  1  0.24276780  0.54201409  0.87061168  1  0.094083  0  0.107997  0.112605  0  0.993546  0
H  H10  1  0.70256663  0.93366907  0.52275219  1  0.086841  0  0.104197  0.119  0  1.024325  0
H  H11  1  0.29737686  0.06629333  0.47709040  1  0.087183  0  0.104354  0.119256  0  1.023935  0
H  H12  1  0.56781680  0.22474884  0.49913193  1  0.168947  0  0.104476  0.114808  0  1.040352  0
H  H13  1  0.64134137  0.06198139  0.50971388  1  0.05708  0  0.097014  0.096729  0  1.039948  0
H  H14  1  0.43210964  0.77527866  0.50101901  1  0.170038  0  0.104435  0.114645  0  1.040417  0
H  H15  1  0.35853393  0.93804558  0.49049232  1  0.057484  0  0.097177  0.096874  0  1.039838  0
H  H16  1  0.80322765  0.70048923  0.53516070  1  0.67207  0  0.314779  0.360656  0  0.958598  0
H  H17  1  0.19678850  0.29947463  0.46473488  1  0.673063  0  0.314533  0.360507  0  0.958269  0
C  C18  1  0.83525357  0.33751215  0.48371896  1  1.473441  0  0.258153  0.645308  0  4.09116  0
C  C19  1  0.68526050  0.49480263  0.63755120  1  1.589039  0  0.271732  0.665167  0  4.090578  0
C  C20  1  0.16473917  0.66248072  0.51629197  1  1.473484  0  0.258154  0.645506  0  4.090838  0
C  C21  1  0.31476559  0.50521143  0.36243530  1  1.588789  0  0.271701  0.665095  0  4.090499  0
C  C22  1  0.35062860  0.50533452  0.27746574  1  0.11458  0  -0.01859  -0.15964  0  3.952226  0
C  C23  1  0.55435292  0.48057332  0.23775900  1  -0.083238  0  -0.071715  -0.054515  0  3.981502  0
C  C24  1  0.59850560  0.47803986  0.15877640  1  -0.028802  0  -0.083978  -0.140866  0  3.946914  0
C  C25  1  0.43720302  0.50170113  0.11547728  1  0.175988  0  0.008926  0.172857  0  4.118986  0
C  C26  1  0.23226841  0.52734688  0.15401056  1  0.114613  0  -0.091782  -0.258718  0  3.928387  0
C  C27  1  0.19277764  0.52840736  0.23314706  1  0.331901  0  0.114691  0.294948  0  4.034246  0
C  C28  1  0.48035847  0.50048855  0.03481349  1  -0.567394  0  -0.036193  -0.096361  0  4.091973  0
C  C29  1  0.51978150  0.49954905  0.96517681  1  0.083037  0  -0.035679  -0.095895  0  4.091926  0
C  C30  1  0.56290232  0.49833559  0.88451203  1  0.176417  0  0.008721  0.172447  0  4.120019  0
C  C31  1  0.76783488  0.47274538  0.84596954  1  0.112433  0  -0.091811  -0.258339  0  3.929455  0
C  C32  1  0.80730016  0.47168409  0.76683311  1  0.331064  0  0.114668  0.294399  0  4.035425  0
C  C33  1  0.64941024  0.49470113  0.72252249  1  0.116306  0  -0.018654  -0.159279  0  3.952073  0
C  C34  1  0.44567931  0.51941546  0.76223758  1  -0.082644  0  -0.07164  -0.054613  0  3.981101  0
C  C35  1  0.40157170  0.52194725  0.84122450  1  -0.028465  0  -0.084058  -0.140726  0  3.946612  0
C  C36  1  0.11385663  0.76077158  0.51617833  1  0.016964  0  -0.03938  -0.207475  0  3.997325  0
C  C37  1  0.88608925  0.23922799  0.48384510  1  0.017153  0  -0.039201  -0.20696  0  3.997145  0
C  C38  1  0.90593014  0.80795959  0.52341393  1  0.532978  0  0.093461  0.323688  0  4.064283  0
C  C39  1  0.86468385  0.90139201  0.51725038  1  -0.056459  0  -0.103055  -0.254746  0  3.921571  0
C  C40  1  0.09402135  0.19201985  0.47654119  1  0.531926  0  0.093606  0.323702  0  4.063837  0
C  C41  1  0.13525915  0.09858851  0.48269346  1  -0.055376  0  -0.103311  -0.255086  0  3.921814  0
C  C42  1  0.72728855  0.18935332  0.49512362  1  -0.109467  0  -0.084389  -0.055004  0  4.00402  0
C  C43  1  0.77026046  0.09710734  0.50079356  1  -0.010411  0  -0.106447  -0.167887  0  3.999643  0
C  C44  1  0.27263805  0.81066381  0.50497814  1  -0.111549  0  -0.084168  -0.054322  0  4.003282  0
C  C45  1  0.22963593  0.90290727  0.49932499  1  -0.009472  0  -0.106813  -0.168541  0  4.000212  0
C  C46  1  0.02353582  0.95059680  0.50422054  1  0.037071  0  0.001468  0.10271  0  3.992529  0
C  C47  1  0.97637373  0.04939677  0.49581514  1  -0.006431  0  0.001349  0.102445  0  3.992626  0
O  O48  1  0.64677164  0.37725012  0.49473322  1  -1.264879  0  -0.234729  -0.582659  0  2.342244  0
O  O49  1  0.87089868  0.48439005  0.60251211  1  -1.256008  0  -0.235159  -0.598953  0  2.367276  0
O  O50  1  0.00994162  0.62090618  0.52564272  1  -1.262385  0  -0.242133  -0.615522  0  2.387112  0
O  O51  1  0.47514316  0.49425366  0.39427228  1  -1.254758  0  -0.231419  -0.587411  0  2.331207  0
O  O52  1  0.35324122  0.62275925  0.50529150  1  -1.265052  0  -0.234552  -0.582553  0  2.341839  0
O  O53  1  0.12911003  0.51560572  0.39747117  1  -1.255568  0  -0.235172  -0.598817  0  2.366984  0
O  O54  1  0.99007206  0.37908223  0.47434049  1  -1.262711  0  -0.242101  -0.615477  0  2.386939  0
O  O55  1  0.52486905  0.50575520  0.60572662  1  -1.255142  0  -0.231416  -0.587359  0  2.331211  0
O  O56  1  0.25554054  0.45677439  0.52973859  1  -1.423201  0  -0.448946  -0.992043  0  2.180847  0
O  O57  1  0.74448273  0.54322282  0.47024534  1  -1.42315  0  -0.449332  -0.992552  0  2.181154  0
O  O58  1  0.74277708  0.76619954  0.53549021  1  -1.180007  0  -0.343827  -0.438661  0  2.300137  0
O  O59  1  0.25721681  0.23376183  0.46438784  1  -1.179873  0  -0.343646  -0.438504  0  2.299054  0
F  F60  1  0.99158067  0.55456159  0.26638582  1  -0.62847  0  -0.091357  -0.138843  0  1.35846  0
F  F61  1  0.00850737  0.44558806  0.73358083  1  -0.629125  0  -0.091143  -0.138629  0  1.359128  0
