# generated using pymatgen
data_ZnH3C9N(O2F)2
_symmetry_space_group_name_H-M   'P 1'
_cell_length_a   7.48101666
_cell_length_b   8.93243013
_cell_length_c   16.25162528
_cell_angle_alpha   88.43526748
_cell_angle_beta   77.37222104
_cell_angle_gamma   84.93571233
_symmetry_Int_Tables_number   1
_chemical_formula_structural   ZnH3C9N(O2F)2
_chemical_formula_sum   'Zn2 H6 C18 N2 O8 F4'
_cell_volume   1055.55115402
_cell_formula_units_Z   2
loop_
 _symmetry_equiv_pos_site_id
 _symmetry_equiv_pos_as_xyz
  1  'x, y, z'
loop_
 _atom_site_type_symbol
 _atom_site_label
 _atom_site_symmetry_multiplicity
 _atom_site_fract_x
 _atom_site_fract_y
 _atom_site_fract_z
 _atom_site_occupancy
 _atom_site_pbe_bader_charge
 _atom_site_pbe_bader_spin_density
 _atom_site_pbe_cm5_charge
 _atom_site_pbe_ddec_charge
 _atom_site_pbe_ddec_spin_density
 _atom_site_pbe_ddec_sum_bond_order
 _atom_site_pbe_magmom
Zn  Zn0  1  0.69043728  0.50623725  0.47059415  1  1.284918  0  0.6732  0.813944  0  2.410199  0
Zn  Zn1  1  0.30958156  0.49381239  0.52940685  1  1.284472  0  0.673208  0.813904  0  2.410265  0
H  H2  1  0.58904039  0.74354227  0.93787061  1  0.145515  0  0.129936  0.160816  0  0.945369  0
H  H3  1  0.41091838  0.25645645  0.06213635  1  0.145478  0  0.129873  0.160757  0  0.945343  0
H  H4  1  0.28803345  0.00439593  0.51929115  1  0.12599  0  0.115954  0.13812  0  0.97466  0
H  H5  1  0.71199593  0.99565812  0.48069181  1  0.126381  0  0.115912  0.138171  0  0.974718  0
H  H6  1  0.91606901  0.49307803  0.58481523  1  0.497248  0  0.325362  0.281902  0  0.936131  0
H  H7  1  0.08395139  0.50696260  0.41518947  1  0.497583  0  0.325335  0.281906  0  0.936107  0
C  C8  1  0.45930837  0.78946121  0.50249362  1  1.562536  0  0.216733  0.638891  0  4.154998  0
C  C9  1  0.63029817  0.38994658  0.96685236  1  0.623456  0  0.112989  0.210257  0  3.731886  0
C  C10  1  0.47261598  0.50247079  0.24953232  1  0.137624  0  -0.041789  -0.184575  0  3.968175  0
C  C11  1  0.52738037  0.49756789  0.75047159  1  0.137705  0  -0.042032  -0.18498  0  3.968379  0
C  C12  1  0.66173391  0.52980907  0.01736310  1  0.635294  0  0.112579  0.211533  0  3.744179  0
C  C13  1  0.33822934  0.47018510  0.98264359  1  0.63604  0  0.112574  0.211304  0  3.744343  0
C  C14  1  0.48263090  0.50258844  0.08696113  1  0.06317  0  0.000669  0.015681  0  3.828457  0
C  C15  1  0.51733744  0.49740904  0.91304579  1  0.062495  0  0.00056  0.015927  0  3.828266  0
C  C16  1  0.47058649  0.50182537  0.17483289  1  -0.376443  0  -0.032451  -0.023149  0  4.099756  0
C  C17  1  0.52938207  0.49818782  0.82517261  1  -0.376479  0  -0.032208  -0.022818  0  4.099436  0
C  C18  1  0.54072469  0.21057257  0.49749425  1  1.561458  0  0.216692  0.63921  0  4.1548  0
C  C19  1  0.48452301  0.50288562  0.33703726  1  1.666378  0  0.226192  0.678761  0  4.228149  0
C  C20  1  0.51548985  0.49715399  0.66296427  1  1.666828  0  0.226069  0.678467  0  4.228509  0
C  C21  1  0.43024117  0.95598562  0.50581741  1  -0.090755  0  -0.073817  -0.162017  0  3.86655  0
C  C22  1  0.56980404  0.04407385  0.49416501  1  0.014053  0  -0.073516  -0.16194  0  3.866604  0
C  C23  1  0.54888681  0.63612673  0.96640112  1  -0.06865  0  -0.072603  -0.214967  0  3.629077  0
C  C24  1  0.45105242  0.36387559  0.03360775  1  -0.069565  0  -0.072391  -0.214392  0  3.628325  0
C  C25  1  0.36966450  0.61005209  0.03315556  1  0.62287  0  0.113046  0.210695  0  3.731888  0
N  N26  1  0.02846174  0.49549858  0.53314627  1  -0.381491  0  -0.224955  -0.093516  0  3.125079  0
N  N27  1  0.97156012  0.50454428  0.46685645  1  -0.436057  0  -0.224949  -0.093545  0  3.125036  0
O  O28  1  0.62355439  0.72890299  0.48197437  1  -1.15749  0  -0.31817  -0.545068  0  2.312326  0
O  O29  1  0.37648047  0.27113858  0.51803241  1  -1.157267  0  -0.318101  -0.545074  0  2.311967  0
O  O30  1  0.31378199  0.71969786  0.52125077  1  -1.156293  0  -0.320815  -0.547261  0  2.290964  0
O  O31  1  0.68622606  0.28034299  0.47872887  1  -1.156251  0  -0.320924  -0.547539  0  2.291255  0
O  O32  1  0.64493596  0.50657081  0.35090043  1  -1.121845  0  -0.306604  -0.516292  0  2.228415  0
O  O33  1  0.35506434  0.49349253  0.64909922  1  -1.122112  0  -0.306638  -0.516209  0  2.228322  0
O  O34  1  0.33537802  0.49929128  0.39286159  1  -1.167456  0  -0.308693  -0.576804  0  2.298218  0
O  O35  1  0.66462963  0.50072368  0.60714367  1  -1.167575  0  -0.308491  -0.576454  0  2.298556  0
F  F36  1  0.23992293  0.72091770  0.06621682  1  -0.623623  0  -0.109478  -0.145292  0  1.301645  0
F  F37  1  0.76003944  0.27907537  0.93378748  1  -0.623507  0  -0.109513  -0.145266  0  1.301782  0
F  F38  1  0.17770404  0.43872198  0.96412480  1  -0.62253  0  -0.104389  -0.14156  0  1.349086  0
F  F39  1  0.82225240  0.56128124  0.03588597  1  -0.622104  0  -0.104358  -0.141526  0  1.348931  0
