# generated using pymatgen
data_MnH6C8N8O
_symmetry_space_group_name_H-M   'P 1'
_cell_length_a   7.37542546
_cell_length_b   8.91485230
_cell_length_c   18.43141041
_cell_angle_alpha   90.00008665
_cell_angle_beta   89.99939911
_cell_angle_gamma   109.25471106
_symmetry_Int_Tables_number   1
_chemical_formula_structural   MnH6C8N8O
_chemical_formula_sum   'Mn4 H24 C32 N32 O4'
_cell_volume   1144.09022564
_cell_formula_units_Z   4
loop_
 _symmetry_equiv_pos_site_id
 _symmetry_equiv_pos_as_xyz
  1  'x, y, z'
loop_
 _atom_site_type_symbol
 _atom_site_label
 _atom_site_symmetry_multiplicity
 _atom_site_fract_x
 _atom_site_fract_y
 _atom_site_fract_z
 _atom_site_occupancy
 _atom_site_hle17_ddec_charge
 _atom_site_hle17_ddec_spin_density
 _atom_site_hle17_ddec_sum_bond_order
 _atom_site_hle17_magmom
 _atom_site_hse06_10hf_ddec_charge
 _atom_site_hse06_10hf_ddec_spin_density
 _atom_site_hse06_10hf_ddec_sum_bond_order
 _atom_site_hse06_10hf_magmom
 _atom_site_hse06_ddec_charge
 _atom_site_hse06_ddec_spin_density
 _atom_site_hse06_ddec_sum_bond_order
 _atom_site_hse06_magmom
 _atom_site_pbe_cm5_charge
 _atom_site_pbe_ddec_charge
 _atom_site_pbe_ddec_spin_density
 _atom_site_pbe_ddec_sum_bond_order
 _atom_site_pbe_magmom
Mn  Mn0  1  0.97735860  0.82792495  0.62510396  1  1.180412  4.762844  1.954131  4.652  1.033568  4.666814  2.481493  4.486  1.081891  4.720548  2.41294  4.559  0.658938  0.996282  4.611776  2.532484  4.414
Mn  Mn1  1  0.02264050  0.67207415  0.12510293  1  1.180432  4.762832  1.954054  4.652  1.03359  4.666814  2.4814  4.486  1.08191  4.720541  2.412853  4.559  0.658918  0.996299  4.611772  2.532385  4.414
Mn  Mn2  1  0.02264501  0.17207028  0.37489536  1  1.180418  4.762879  1.953966  4.652  1.033577  4.666845  2.481293  4.486  1.081897  4.720573  2.412748  4.559  0.658958  0.996287  4.611811  2.532279  4.414
Mn  Mn3  1  0.97735510  0.32792819  0.87489422  1  1.180421  4.762849  1.954004  4.652  1.033596  4.666814  2.481332  4.486  1.081913  4.72054  2.412786  4.559  0.65897  0.996307  4.611771  2.532317  4.414
H  H4  1  0.32104104  0.02867280  0.56761515  1  0.377415  4.1e-05  0.950087  0.001  0.33473  0.000669  1.033559  0.002  0.345817  0.000402  1.018151  0.001  0.279273  0.326985  0.000931  1.044243  0.002
H  H5  1  0.67895917  0.47133294  0.06761375  1  0.377459  4.1e-05  0.950018  0.001  0.334771  0.000669  1.033504  0.002  0.345859  0.000402  1.018093  0.001  0.279302  0.327028  0.000931  1.044187  0.002
H  H6  1  0.67895945  0.97132480  0.43238580  1  0.377409  4.1e-05  0.950097  0.001  0.334721  0.000669  1.033577  0.002  0.345808  0.000402  1.018169  0.001  0.279291  0.326977  0.000931  1.044261  0.002
H  H7  1  0.32104232  0.52867059  0.93238719  1  0.377418  4e-05  0.950081  0.001  0.33472  0.000669  1.033578  0.002  0.345806  0.000402  1.018171  0.001  0.279273  0.326976  0.000931  1.044261  0.002
H  H8  1  0.16255114  0.08451300  0.52753338  1  0.410439  -3e-06  0.896676  0.002  0.382771  0.0009  0.957209  0.003  0.391968  0.000466  0.944092  0.002  0.292389  0.376204  0.00133  0.966558  0.003
H  H9  1  0.83744920  0.41548698  0.02753345  1  0.410423  -2e-06  0.896733  0.002  0.382751  0.0009  0.957252  0.003  0.391949  0.000466  0.944133  0.002  0.292369  0.376182  0.001331  0.966602  0.003
H  H10  1  0.83744564  0.91547866  0.47246648  1  0.410383  -3e-06  0.896698  0.002  0.382705  0.0009  0.957277  0.003  0.391901  0.000466  0.94416  0.002  0.292367  0.376137  0.001331  0.966625  0.003
H  H11  1  0.16255277  0.58451775  0.97246641  1  0.410377  -4e-06  0.896771  0.002  0.382715  0.0009  0.957287  0.003  0.391913  0.000466  0.944168  0.002  0.292349  0.376148  0.001331  0.966636  0.003
H  H12  1  0.57029518  0.86123904  0.58466299  1  0.070857  -0.000145  0.92356  0.0  0.077974  0.000247  0.990176  0.0  0.079504  9.6e-05  0.988113  0.0  0.133769  0.076719  0.000402  0.991915  0.0
H  H13  1  0.42970711  0.63877568  0.08465698  1  0.07074  -0.000141  0.923635  0.0  0.07788  0.000247  0.99021  0.0  0.079406  9.6e-05  0.988154  0.0  0.133734  0.076624  0.000402  0.991947  0.0
H  H14  1  0.42970083  0.13876093  0.41533687  1  0.070844  -0.000143  0.923585  0.0  0.077944  0.000247  0.990194  0.0  0.079483  9.7e-05  0.988123  0.0  0.133754  0.076674  0.000402  0.991952  0.0
H  H15  1  0.57030252  0.36122786  0.91534288  1  0.070731  -0.000142  0.923637  0.0  0.077879  0.000247  0.990214  0.0  0.079405  9.6e-05  0.98816  0.0  0.133739  0.076646  0.000402  0.991931  0.0
H  H16  1  0.57019743  0.32406826  0.60664918  1  0.081073  -5.1e-05  0.935635  0.0  0.087863  0.000114  1.002795  0.0  0.09027  5.4e-05  1.000288  0.0  0.119378  0.085993  0.000188  1.004762  0.0
H  H17  1  0.42981449  0.17594564  0.10664754  1  0.081057  -4.2e-05  0.935581  0.0  0.087882  0.000114  1.002742  0.0  0.090294  5.3e-05  1.000234  0.0  0.119338  0.086008  0.000188  1.004722  0.0
H  H18  1  0.42979858  0.67593171  0.39335448  1  0.081029  -4.3e-05  0.935731  0.0  0.08785  0.000114  1.002834  0.0  0.090251  5.3e-05  1.00032  0.0  0.119379  0.085978  0.000188  1.004804  0.0
H  H19  1  0.57018653  0.82405671  0.89335504  1  0.081107  -4.2e-05  0.935563  0.0  0.087894  0.000114  1.002753  0.0  0.090298  5.3e-05  1.00024  0.0  0.11937  0.086021  0.000188  1.004724  0.0
H  H20  1  0.90291235  0.40383455  0.66319058  1  0.127171  -0.000351  0.960933  0.0  0.133827  -0.000313  1.022716  0.0  0.136313  -0.000405  1.024403  0.0  0.115906  0.132068  -0.000205  1.02174  0.0
H  H21  1  0.09710023  0.09617791  0.16318756  1  0.127297  -0.000352  0.960953  0.0  0.133904  -0.000312  1.02275  0.0  0.136392  -0.000405  1.024436  0.0  0.115938  0.132144  -0.000205  1.021776  0.0
H  H22  1  0.09708449  0.59616066  0.33681308  1  0.127176  -0.000352  0.960983  0.0  0.133853  -0.000313  1.022748  0.0  0.136338  -0.000405  1.024441  0.0  0.115904  0.132098  -0.000205  1.021762  0.0
H  H23  1  0.90290769  0.90383157  0.83681339  1  0.127255  -0.000353  0.96084  0.0  0.133863  -0.000313  1.022667  0.0  0.136352  -0.000405  1.024351  0.0  0.11595  0.132106  -0.000205  1.021688  0.0
H  H24  1  0.05403410  0.18689673  0.67558905  1  0.086781  -9.8e-05  0.930896  0.0  0.096009  0.00033  0.992739  0.0  0.098115  0.000129  0.990423  0.0  0.125957  0.094381  0.000542  0.994541  0.001
H  H25  1  0.94596899  0.31310973  0.17558643  1  0.086753  -9.5e-05  0.930939  0.0  0.095939  0.00033  0.992839  0.0  0.098035  0.000129  0.990519  0.0  0.125945  0.094318  0.000542  0.994631  0.001
H  H26  1  0.94596227  0.81309730  0.32441243  1  0.086824  -9.7e-05  0.930881  0.0  0.095993  0.00033  0.992769  0.0  0.098096  0.000129  0.990452  0.0  0.125959  0.094369  0.000542  0.994568  0.001
H  H27  1  0.05403338  0.68689262  0.82441506  1  0.086772  -8.5e-05  0.930896  0.0  0.095989  0.00033  0.992761  0.0  0.098087  0.000129  0.990442  0.0  0.125959  0.094366  0.000542  0.994557  0.001
C  C28  1  0.59435969  0.57084163  0.69980867  1  0.520599  0.018595  3.98288  0.019  0.481461  0.025051  4.2689  0.024  0.508295  0.02183  4.280875  0.022  0.316385  0.462897  0.028355  4.260021  0.027
C  C29  1  0.40564593  0.92915834  0.19980676  1  0.520605  0.018642  3.982986  0.019  0.48146  0.025038  4.268998  0.024  0.508292  0.021818  4.280974  0.022  0.316383  0.462895  0.028344  4.260115  0.027
C  C30  1  0.40565083  0.42916073  0.30019282  1  0.520525  0.018627  3.983124  0.019  0.481378  0.025032  4.269134  0.024  0.50821  0.021824  4.281108  0.022  0.316393  0.462815  0.028343  4.260253  0.027
C  C31  1  0.59434866  0.07083806  0.80019527  1  0.52058  0.018665  3.982948  0.019  0.481437  0.025036  4.268943  0.024  0.508268  0.02182  4.280915  0.022  0.316427  0.462874  0.028343  4.26006  0.027
C  C32  1  0.29062383  0.46021115  0.75152967  1  0.522057  0.024773  3.97514  0.024  0.482069  0.031328  4.262592  0.03  0.509106  0.027352  4.274326  0.026  0.317108  0.463316  0.035512  4.253958  0.033
C  C33  1  0.70936935  0.03978903  0.25153598  1  0.522096  0.024762  3.975245  0.024  0.482093  0.031315  4.262693  0.03  0.509131  0.027327  4.274422  0.026  0.31712  0.463341  0.035494  4.254063  0.033
C  C34  1  0.70937442  0.53978763  0.24846748  1  0.522091  0.024731  3.975218  0.024  0.482095  0.031327  4.262658  0.03  0.509133  0.027345  4.274389  0.026  0.317102  0.463342  0.035508  4.254026  0.033
C  C35  1  0.29062571  0.96020856  0.74846497  1  0.522132  0.024762  3.975173  0.024  0.482126  0.031323  4.262619  0.03  0.509163  0.027328  4.274347  0.026  0.317113  0.463375  0.035502  4.253988  0.033
C  C36  1  0.76332430  0.61048928  0.49244438  1  0.523003  0.021655  3.963397  0.021  0.478562  0.028278  4.252358  0.026  0.505562  0.024077  4.263119  0.023  0.321362  0.459834  0.032791  4.244843  0.03
C  C37  1  0.23667131  0.88950822  0.99244259  1  0.523009  0.021633  3.963274  0.021  0.478597  0.028282  4.252216  0.026  0.505599  0.024092  4.262969  0.023  0.321387  0.459861  0.032795  4.244707  0.03
C  C38  1  0.23668245  0.38950358  0.50755657  1  0.523103  0.021642  3.963077  0.021  0.478684  0.028278  4.252041  0.026  0.50569  0.024072  4.262794  0.023  0.321416  0.459954  0.032792  4.244529  0.03
C  C39  1  0.76331809  0.11050242  0.00755565  1  0.523147  0.021641  3.963059  0.021  0.478757  0.028279  4.25201  0.026  0.505754  0.024088  4.262779  0.023  0.321422  0.460027  0.032793  4.244498  0.03
C  C40  1  0.78113076  0.40083590  0.42352930  1  0.507534  0.020103  3.966437  0.02  0.470947  0.025959  4.249141  0.025  0.496917  0.022441  4.260907  0.022  0.316353  0.452867  0.029716  4.240967  0.028
C  C41  1  0.21886522  0.09915878  0.92352575  1  0.507417  0.020093  3.96654  0.02  0.47085  0.025966  4.249249  0.025  0.49682  0.022451  4.261017  0.022  0.316296  0.452771  0.029718  4.24108  0.028
C  C42  1  0.21888094  0.59915577  0.57646947  1  0.507835  0.02005  3.96631  0.02  0.471284  0.025956  4.248988  0.025  0.497257  0.022436  4.26075  0.022  0.316502  0.453206  0.029715  4.240818  0.028
C  C43  1  0.78113013  0.90085662  0.07646977  1  0.507892  0.02007  3.966346  0.02  0.471373  0.025961  4.249008  0.025  0.497346  0.022442  4.260766  0.022  0.316452  0.453291  0.029713  4.24084  0.028
C  C44  1  0.64487679  0.98325819  0.60177931  1  0.310841  0.001296  3.690261  0.002  0.257348  0.003215  3.961209  0.003  0.272125  0.002452  3.973173  0.002  0.194733  0.247481  0.004125  3.95316  0.003
C  C45  1  0.35512414  0.51675764  0.10177353  1  0.310836  0.001244  3.690331  0.002  0.257332  0.003217  3.961284  0.003  0.272107  0.002452  3.973248  0.002  0.194628  0.247466  0.004127  3.953235  0.003
C  C46  1  0.35511692  0.01673940  0.39822109  1  0.310806  0.001261  3.690305  0.002  0.257361  0.003217  3.961204  0.003  0.272129  0.002453  3.973171  0.002  0.194729  0.247504  0.004127  3.953159  0.003
C  C47  1  0.64488184  0.48324352  0.89822742  1  0.310797  0.001213  3.690433  0.002  0.257267  0.003218  3.961436  0.003  0.27204  0.002455  3.973397  0.002  0.194596  0.247386  0.004128  3.953385  0.003
C  C48  1  0.64650262  0.23917460  0.61425123  1  0.1823  0.001294  3.664168  0.001  0.144501  0.002681  3.91958  0.002  0.155021  0.002094  3.935085  0.002  0.071826  0.137666  0.003554  3.909249  0.003
C  C49  1  0.35351002  0.26084164  0.11424834  1  0.18263  0.001234  3.663976  0.001  0.144729  0.002682  3.919464  0.002  0.155242  0.002094  3.93498  0.002  0.071995  0.137891  0.003555  3.909135  0.003
C  C50  1  0.35349922  0.76082300  0.38575080  1  0.182328  0.001255  3.664132  0.001  0.144517  0.002682  3.919587  0.002  0.155051  0.002094  3.935077  0.002  0.071795  0.137681  0.003556  3.909257  0.003
C  C51  1  0.64649053  0.73915952  0.88575315  1  0.182519  0.00121  3.663904  0.001  0.144648  0.002683  3.919409  0.002  0.155178  0.002095  3.934905  0.002  0.071983  0.137814  0.003556  3.909075  0.003
C  C52  1  0.82927681  0.28322280  0.64452364  1  -0.168209  -0.000863  3.689036  0.0  -0.176362  -0.000421  3.936473  0.0  -0.189499  -0.000895  3.960943  0.0  -0.073467  -0.168075  0.000141  3.920341  0.0
C  C53  1  0.17072986  0.21678381  0.14452040  1  -0.168589  -0.000783  3.689056  0.0  -0.176607  -0.000421  3.936437  0.0  -0.189742  -0.000896  3.960897  0.0  -0.073547  -0.168319  0.000141  3.920305  0.0
C  C54  1  0.17072008  0.71677598  0.35547730  1  -0.168159  -0.000814  3.689038  0.0  -0.176369  -0.000421  3.936475  0.0  -0.189507  -0.000896  3.960942  0.0  -0.073437  -0.168083  0.00014  3.920355  0.0
C  C55  1  0.82926290  0.78321141  0.85547946  1  -0.168453  -0.000741  3.688942  0.0  -0.176487  -0.000421  3.936316  0.0  -0.189629  -0.000896  3.960794  0.0  -0.073558  -0.1682  0.00014  3.920187  0.0
C  C56  1  0.91251566  0.16462299  0.65146430  1  0.195126  0.000817  3.64838  0.001  0.160644  0.002728  3.89861  0.003  0.171252  0.001908  3.914953  0.002  0.08262  0.153693  0.003763  3.887536  0.003
C  C57  1  0.08748497  0.33538595  0.15145877  1  0.195203  0.00077  3.648314  0.001  0.160714  0.002729  3.89854  0.003  0.171335  0.001908  3.914865  0.002  0.082614  0.153764  0.003764  3.887469  0.003
C  C58  1  0.08748306  0.83537698  0.34853556  1  0.195002  0.000788  3.648426  0.001  0.160614  0.00273  3.898602  0.003  0.171226  0.001909  3.91494  0.002  0.082613  0.15366  0.003764  3.887529  0.003
C  C59  1  0.91251380  0.66461758  0.84853892  1  0.195152  0.000719  3.648159  0.001  0.160663  0.00273  3.89838  0.003  0.171279  0.00191  3.914706  0.002  0.082607  0.153713  0.003766  3.887311  0.003
N  N60  1  0.74370944  0.66162049  0.68155096  1  -0.615921  0.023689  2.848245  0.004  -0.572446  0.031564  3.148063  0.005  -0.596423  0.026269  3.148972  0.001  -0.373297  -0.554917  0.03678  3.1474  0.009
N  N61  1  0.25629267  0.83838312  0.18155287  1  -0.615972  0.023639  2.848315  0.004  -0.572499  0.031571  3.148123  0.005  -0.596478  0.026281  3.149033  0.001  -0.373323  -0.55497  0.036782  3.147454  0.009
N  N62  1  0.25629894  0.33839018  0.31844781  1  -0.615928  0.02364  2.848317  0.004  -0.57247  0.031585  3.148143  0.005  -0.596444  0.026274  3.149053  0.001  -0.37338  -0.554943  0.036785  3.147476  0.009
N  N63  1  0.74370505  0.16161091  0.81844536  1  -0.615933  0.023614  2.848242  0.004  -0.572486  0.031575  3.148083  0.005  -0.596462  0.026282  3.148991  0.001  -0.373357  -0.554955  0.036783  3.147415  0.009
N  N64  1  0.43930439  0.45714766  0.71579308  1  -0.464186  0.009654  3.323933  0.009  -0.411896  0.015028  3.58659  0.013  -0.437863  0.012175  3.59208  0.01  -0.304824  -0.393411  0.018034  3.582063  0.015
N  N65  1  0.56069474  0.04285149  0.21579513  1  -0.464198  0.009635  3.323957  0.009  -0.411878  0.015024  3.586588  0.013  -0.437845  0.012161  3.592078  0.01  -0.304798  -0.393394  0.01803  3.582062  0.015
N  N66  1  0.56069846  0.54285588  0.28420298  1  -0.464111  0.009658  3.32401  0.009  -0.411799  0.015013  3.586635  0.013  -0.437768  0.012163  3.59213  0.01  -0.304754  -0.393318  0.018031  3.582113  0.015
N  N67  1  0.43929849  0.95714491  0.78420690  1  -0.464228  0.009633  3.323842  0.009  -0.411898  0.01502  3.586462  0.013  -0.437862  0.012158  3.591953  0.01  -0.304833  -0.393414  0.01803  3.581937  0.015
N  N68  1  0.14534847  0.44494840  0.78260355  1  -0.61496  0.016814  2.821101  -0.001  -0.574191  0.026825  3.11909  0.003  -0.597003  0.020851  3.118687  -0.001  -0.375255  -0.557606  0.032664  3.119388  0.007
N  N69  1  0.85463930  0.05505045  0.28260492  1  -0.614964  0.016832  2.821145  -0.001  -0.57419  0.026827  3.119135  0.003  -0.597004  0.020875  3.118734  -0.001  -0.375279  -0.557609  0.032669  3.119435  0.007
N  N70  1  0.85464842  0.55505038  0.21739359  1  -0.614989  0.01686  2.821239  -0.001  -0.574214  0.026829  3.119221  0.003  -0.597027  0.02086  3.118818  -0.001  -0.375247  -0.557628  0.032663  3.119518  0.007
N  N71  1  0.14535665  0.94494595  0.71739331  1  -0.614977  0.016836  2.821257  -0.001  -0.574208  0.026828  3.119249  0.003  -0.597022  0.020879  3.11885  -0.001  -0.375248  -0.557623  0.032668  3.119551  0.007
N  N72  1  0.81637543  0.73496436  0.52247945  1  -0.637232  0.013377  2.880652  -0.002  -0.588573  0.022345  3.16634  0.002  -0.610857  0.01796  3.167112  -0.001  -0.373807  -0.573008  0.02663  3.166319  0.005
N  N73  1  0.18361922  0.76503044  0.02247619  1  -0.637235  0.013415  2.880604  -0.002  -0.588598  0.022338  3.166286  0.002  -0.61088  0.017932  3.167057  -0.001  -0.373839  -0.573031  0.02663  3.166263  0.005
N  N74  1  0.18362264  0.26502374  0.47752312  1  -0.637304  0.013403  2.880407  -0.002  -0.588653  0.022349  3.166078  0.002  -0.610938  0.017969  3.166851  -0.001  -0.3738  -0.573086  0.026629  3.166056  0.005
N  N75  1  0.81637878  0.23498141  0.97752204  1  -0.6373  0.013406  2.88041  -0.002  -0.588662  0.022341  3.166087  0.002  -0.610944  0.017938  3.16685  -0.001  -0.373808  -0.573096  0.026629  3.166066  0.005
N  N76  1  0.69005423  0.47376622  0.46226177  1  -0.451975  0.007825  3.305953  0.007  -0.400011  0.012667  3.574037  0.01  -0.425252  0.010383  3.579715  0.009  -0.299615  -0.382388  0.01511  3.569869  0.012
N  N77  1  0.30993801  0.02623185  0.96225941  1  -0.451846  0.00781  3.305973  0.007  -0.399915  0.012675  3.574063  0.01  -0.425164  0.010411  3.579749  0.009  -0.299531  -0.382291  0.01511  3.569898  0.012
N  N78  1  0.30995245  0.52622307  0.53773918  1  -0.452094  0.007802  3.305921  0.007  -0.400166  0.01266  3.574027  0.01  -0.425417  0.010376  3.579721  0.009  -0.299687  -0.382545  0.01511  3.569862  0.012
N  N79  1  0.69005604  0.97378711  0.03774099  1  -0.452088  0.007809  3.305935  0.007  -0.400231  0.012671  3.574099  0.01  -0.425473  0.010404  3.579768  0.009  -0.299653  -0.382607  0.01511  3.569934  0.012
N  N80  1  0.84888821  0.32455325  0.38689331  1  -0.592556  0.019903  2.814896  0.002  -0.549104  0.029393  3.100717  0.005  -0.57163  0.024013  3.1021  0.002  -0.367808  -0.533155  0.034621  3.100199  0.009
N  N81  1  0.15110513  0.17543921  0.88688901  1  -0.59256  0.019925  2.814874  0.002  -0.549107  0.029381  3.100692  0.005  -0.571632  0.023988  3.102076  0.002  -0.367845  -0.533161  0.03462  3.100178  0.009
N  N82  1  0.15111582  0.67543960  0.61310438  1  -0.592801  0.019978  2.814833  0.002  -0.549363  0.029402  3.100667  0.005  -0.571889  0.024027  3.102041  0.002  -0.367927  -0.533417  0.034625  3.100157  0.009
N  N83  1  0.84888916  0.82456669  0.11310380  1  -0.592885  0.01995  2.814879  0.002  -0.549455  0.029388  3.100705  0.005  -0.571982  0.024003  3.102076  0.002  -0.367902  -0.533504  0.034623  3.100194  0.009
N  N84  1  0.82153215  0.01483152  0.62937931  1  -0.369545  0.026969  3.187813  0.017  -0.298556  0.033127  3.45995  0.019  -0.320013  0.029525  3.473199  0.016  -0.30314  -0.28346  0.036674  3.450726  0.022
N  N85  1  0.17846774  0.48517751  0.12937622  1  -0.369514  0.027013  3.187855  0.017  -0.298469  0.033126  3.459904  0.019  -0.319915  0.029526  3.473137  0.016  -0.303094  -0.283381  0.036675  3.450684  0.022
N  N86  1  0.17846704  0.98516964  0.37062001  1  -0.369461  0.027001  3.187772  0.017  -0.298499  0.033125  3.459868  0.019  -0.319958  0.029524  3.47312  0.016  -0.303125  -0.2834  0.036672  3.450637  0.022
N  N87  1  0.82153593  0.51482128  0.87062472  1  -0.369499  0.027045  3.187906  0.017  -0.298473  0.033127  3.460002  0.019  -0.319915  0.029525  3.473231  0.016  -0.303085  -0.283384  0.036674  3.450793  0.022
N  N88  1  0.55328604  0.08864833  0.59365881  1  -0.340505  0.000242  3.129056  0.001  -0.272106  0.00104  3.374935  0.001  -0.289828  0.000305  3.38836  0.001  -0.297091  -0.260497  0.001908  3.366101  0.002
N  N89  1  0.44671899  0.41136443  0.09365618  1  -0.340524  0.000293  3.129016  0.001  -0.272125  0.00104  3.37498  0.001  -0.289851  0.000307  3.388408  0.001  -0.297055  -0.260516  0.001908  3.366148  0.002
N  N90  1  0.44671227  0.91135401  0.40634213  1  -0.340504  0.000274  3.129065  0.001  -0.272127  0.001039  3.374959  0.001  -0.289849  0.000305  3.388383  0.001  -0.297077  -0.260518  0.001907  3.366121  0.002
N  N91  1  0.55328150  0.58863317  0.90634694  1  -0.340498  0.000332  3.128975  0.001  -0.272074  0.001039  3.374914  0.001  -0.289796  0.000304  3.388337  0.001  -0.297055  -0.260463  0.001908  3.366086  0.002
O  O92  1  0.18133046  0.99255492  0.55256213  1  -0.840498  0.031587  1.976244  0.021  -0.779023  0.04043  2.195645  0.028  -0.803782  0.035972  2.164149  0.023  -0.577702  -0.759856  0.044659  2.217263  0.031
O  O93  1  0.81867250  0.50744569  0.05256199  1  -0.84055  0.031587  1.97627  0.021  -0.779068  0.040431  2.195636  0.028  -0.803828  0.035972  2.164137  0.023  -0.577718  -0.759902  0.04466  2.217252  0.031
O  O94  1  0.81866856  0.00743555  0.44743664  1  -0.840423  0.031582  1.976226  0.021  -0.778914  0.040426  2.19565  0.028  -0.803668  0.035969  2.164152  0.023  -0.577696  -0.75975  0.044655  2.217267  0.031
O  O95  1  0.18132899  0.49255784  0.94743841  1  -0.840467  0.031587  1.976286  0.021  -0.778999  0.040428  2.195702  0.028  -0.80376  0.03597  2.16421  0.023  -0.577673  -0.759835  0.044658  2.217318  0.031
