# generated using pymatgen
data_ZnH18C21(NO3)2
_symmetry_space_group_name_H-M   'P 1'
_cell_length_a   8.12301933
_cell_length_b   10.58819963
_cell_length_c   11.98635503
_cell_angle_alpha   87.37293581
_cell_angle_beta   72.05350117
_cell_angle_gamma   88.12548281
_symmetry_Int_Tables_number   1
_chemical_formula_structural   ZnH18C21(NO3)2
_chemical_formula_sum   'Zn2 H36 C42 N4 O12'
_cell_volume   979.54608005
_cell_formula_units_Z   2
loop_
 _symmetry_equiv_pos_site_id
 _symmetry_equiv_pos_as_xyz
  1  'x, y, z'
loop_
 _atom_site_type_symbol
 _atom_site_label
 _atom_site_symmetry_multiplicity
 _atom_site_fract_x
 _atom_site_fract_y
 _atom_site_fract_z
 _atom_site_occupancy
 _atom_site_pbe_bader_charge
 _atom_site_pbe_bader_spin_density
 _atom_site_pbe_cm5_charge
 _atom_site_pbe_ddec_charge
 _atom_site_pbe_ddec_spin_density
 _atom_site_pbe_ddec_sum_bond_order
 _atom_site_pbe_magmom
Zn  Zn0  1  0.04642712  0.76218976  0.23906489  1  1.239803  0  0.692282  0.746767  0  2.384282  0
Zn  Zn1  1  0.95357293  0.23781022  0.76093511  1  1.239865  0  0.692294  0.746775  0  2.384209  0
H  H2  1  0.73778370  0.32258761  0.30874255  1  0.088019  0  0.105937  0.126201  0  1.017893  0
H  H3  1  0.26221478  0.67742277  0.69125152  1  0.088046  0  0.105956  0.126206  0  1.017814  0
H  H4  1  0.40993082  0.27923588  0.66991106  1  0.125369  0  0.109077  0.144019  0  1.029113  0
H  H5  1  0.59006919  0.72076599  0.33008970  1  0.125346  0  0.109085  0.144041  0  1.029142  0
H  H6  1  0.79896277  0.56726008  0.56828926  1  0.091471  0  0.10418  0.12301  0  1.028229  0
H  H7  1  0.20103596  0.43274084  0.43171181  1  0.091481  0  0.104164  0.122975  0  1.02828  0
H  H8  1  0.24951808  0.19683011  0.57115895  1  0.110626  0  0.10994  0.092775  0  1.026913  0
H  H9  1  0.75047936  0.80317081  0.42884322  1  0.110622  0  0.109961  0.09285  0  1.026877  0
H  H10  1  0.39536198  0.07636791  0.59407479  1  0.064266  0  0.107381  0.087064  0  0.985583  0
H  H11  1  0.60463931  0.92363395  0.40592403  1  0.064235  0  0.107375  0.087081  0  0.985586  0
H  H12  1  0.38940477  0.13829821  0.29047318  1  0.089226  0  0.109429  0.11798  0  1.026789  0
H  H13  1  0.61059931  0.86169608  0.70952454  1  0.088817  0  0.109472  0.118007  0  1.026801  0
H  H14  1  0.25442640  0.99399304  0.18569019  1  0.100871  0  0.120003  0.09188  0  1.013286  0
H  H15  1  0.74557497  0.00600599  0.81431207  1  0.101238  0  0.119995  0.091877  0  1.013285  0
H  H16  1  0.05422770  0.76977767  0.48613539  1  0.140701  0  0.121087  0.099288  0  1.001457  0
H  H17  1  0.94577359  0.23022419  0.51386510  1  0.140648  0  0.121075  0.099318  0  1.001449  0
H  H18  1  0.15781844  0.91545147  0.60802481  1  0.108525  0  0.11627  0.136401  0  0.98118  0
H  H19  1  0.84217375  0.08455228  0.39198002  1  0.108583  0  0.116186  0.136286  0  0.981222  0
H  H20  1  0.61097270  0.64496905  0.70778549  1  0.086786  0  0.108929  0.083251  0  1.007481  0
H  H21  1  0.38903662  0.35502336  0.29221204  1  0.086728  0  0.108962  0.083246  0  1.007408  0
H  H22  1  0.73013468  0.55569529  0.78845696  1  0.11763  0  0.107888  0.095768  0  0.998713  0
H  H23  1  0.26986689  0.44429617  0.21154306  1  0.117871  0  0.107868  0.095712  0  0.998691  0
H  H24  1  0.24450985  0.54444601  0.85406995  1  0.142585  0  0.113082  0.134596  0  1.032562  0
H  H25  1  0.75549163  0.45554923  0.14592494  1  0.142661  0  0.113092  0.134656  0  1.032547  0
H  H26  1  0.04041669  0.62930064  0.03657692  1  0.12214  0  0.126791  0.103362  0  0.977745  0
H  H27  1  0.95958595  0.37069933  0.96341503  1  0.122242  0  0.126761  0.103356  0  0.977703  0
H  H28  1  0.43989503  0.77781633  0.13377032  1  0.074544  0  0.118641  0.083298  0  1.016265  0
H  H29  1  0.56010140  0.22217419  0.86623081  1  0.074256  0  0.118624  0.083264  0  1.016286  0
H  H30  1  0.66180500  0.70307992  0.95399462  1  0.095557  0  0.120005  0.13906  0  0.965373  0
H  H31  1  0.33818856  0.29692100  0.04600670  1  0.095503  0  0.119968  0.139037  0  0.965328  0
H  H32  1  0.76182345  0.97954677  0.01046288  1  0.052755  0  0.096783  0.160564  0  1.017163  0
H  H33  1  0.23817422  0.02044564  0.98953708  1  0.052777  0  0.096782  0.160562  0  1.017196  0
H  H34  1  0.69888302  0.09515483  0.11927936  1  0.054495  0  0.088023  0.141202  0  1.019392  0
H  H35  1  0.30110800  0.90484420  0.88071923  1  0.054444  0  0.088014  0.141181  0  1.019408  0
H  H36  1  0.59582222  0.94404893  0.14517447  1  0.042998  0  0.081351  0.123471  0  1.056068  0
H  H37  1  0.40417806  0.05594253  0.85482498  1  0.04308  0  0.081384  0.123509  0  1.05603  0
C  C38  1  0.90716112  0.52851538  0.33579174  1  1.565986  0  0.203111  0.572796  0  4.19809  0
C  C39  1  0.09284284  0.47148365  0.66420415  1  1.565073  0  0.203066  0.572785  0  4.198143  0
C  C40  1  0.77989419  0.45216560  0.43047477  1  -0.095232  0  -0.019921  0.015248  0  4.012536  0
C  C41  1  0.22010843  0.54783531  0.56952298  1  -0.095125  0  -0.019952  0.015118  0  4.012595  0
C  C42  1  0.69970484  0.35131121  0.39936562  1  0.038015  0  -0.111211  -0.252452  0  3.98474  0
C  C43  1  0.30029777  0.64868971  0.60063213  1  0.038011  0  -0.111225  -0.252403  0  3.984664  0
C  C44  1  0.56654506  0.28930756  0.48530777  1  0.365775  0  0.077403  0.267908  0  4.104266  0
C  C45  1  0.43345495  0.71069431  0.51469132  1  0.36565  0  0.077424  0.267918  0  4.104154  0
C  C46  1  0.51594388  0.32405621  0.60188857  1  0.059049  0  -0.118574  -0.325288  0  3.934469  0
C  C47  1  0.48405876  0.67594376  0.39811089  1  0.059137  0  -0.118564  -0.325273  0  3.934456  0
C  C48  1  0.60025933  0.42531821  0.63134961  1  0.412026  0  0.081412  0.279869  0  4.068567  0
C  C49  1  0.39974727  0.57467892  0.36864997  1  0.412105  0  0.081369  0.279721  0  4.068698  0
C  C50  1  0.73264433  0.48870906  0.54724172  1  0.041602  0  -0.11663  -0.260512  0  3.995768  0
C  C51  1  0.26735831  0.51129091  0.45275690  1  0.041332  0  -0.116589  -0.260364  0  3.995811  0
C  C52  1  0.35159234  0.12859343  0.52626945  1  0.422546  0  -0.058995  -0.029771  0  3.884587  0
C  C53  1  0.64840889  0.87141127  0.47373094  1  0.422135  0  -0.05901  -0.030028  0  3.884708  0
C  C54  1  0.28228402  0.03980387  0.45860063  1  -0.057852  0  0.012316  0.133359  0  3.946317  0
C  C55  1  0.71771594  0.96019988  0.54140091  1  -0.057359  0  0.012335  0.133438  0  3.946261  0
C  C56  1  0.31183535  0.05973668  0.33779127  1  0.013078  0  -0.085478  -0.178342  0  3.942093  0
C  C57  1  0.68816605  0.94026140  0.66221102  1  0.013893  0  -0.085514  -0.178356  0  3.94204  0
C  C58  1  0.24205465  0.97803330  0.27822941  1  0.46822  0  0.046984  0.09612  0  3.968374  0
C  C59  1  0.75794542  0.02196572  0.72177312  1  0.467452  0  0.046972  0.096046  0  3.968354  0
C  C60  1  0.12479430  0.85493569  0.44763038  1  0.470743  0  0.049885  0.099021  0  3.938819  0
C  C61  1  0.87520436  0.14506806  0.55237226  1  0.470763  0  0.049898  0.098914  0  3.938852  0
C  C62  1  0.18504943  0.93547182  0.51410144  1  0.023566  0  -0.079875  -0.173989  0  3.936495  0
C  C63  1  0.81494659  0.06453383  0.48590250  1  0.023598  0  -0.079777  -0.173759  0  3.936459  0
C  C64  1  0.60054261  0.57151395  0.77806486  1  0.385892  0  -0.05688  -0.033506  0  3.887164  0
C  C65  1  0.39945886  0.42848129  0.22193587  1  0.385827  0  -0.056831  -0.033311  0  3.886895  0
C  C66  1  0.47162776  0.61715199  0.88846823  1  -0.062663  0  0.013733  0.136844  0  3.949548  0
C  C67  1  0.52837369  0.38284420  0.11153079  1  -0.062444  0  0.013699  0.136791  0  3.949502  0
C  C68  1  0.29428539  0.59645845  0.91281455  1  -0.015399  0  -0.078592  -0.176163  0  3.912245  0
C  C69  1  0.70571603  0.40353869  0.08718027  1  -0.015347  0  -0.078596  -0.176298  0  3.912303  0
C  C70  1  0.17913624  0.64352019  0.01417937  1  0.497455  0  0.060363  0.119127  0  3.911072  0
C  C71  1  0.82086648  0.35647695  0.98581602  1  0.497311  0  0.06033  0.119101  0  3.91103  0
C  C72  1  0.40199859  0.72803195  0.06830285  1  0.463489  0  0.051549  0.102977  0  3.965442  0
C  C73  1  0.59799654  0.27195857  0.93169940  1  0.463392  0  0.051559  0.102959  0  3.965443  0
C  C74  1  0.52525617  0.68546005  0.96789473  1  0.05919  0  -0.081248  -0.18635  0  3.934262  0
C  C75  1  0.47474018  0.31453330  0.03210797  1  0.059268  0  -0.081243  -0.18633  0  3.934194  0
C  C76  1  0.85905682  0.94105848  0.15347646  1  1.553599  0  0.195961  0.678617  0  4.150874  0
C  C77  1  0.14093932  0.05894243  0.84652431  1  1.553543  0  0.195956  0.678595  0  4.150947  0
C  C78  1  0.71761988  0.99339280  0.10557752  1  -0.088682  0  -0.254926  -0.5198  0  3.896526  0
C  C79  1  0.28237503  0.00660623  0.89442192  1  -0.088669  0  -0.254935  -0.519815  0  3.896608  0
N  N80  1  0.15085488  0.87634358  0.33175757  1  -1.283981  0  -0.336518  -0.246576  0  3.598239  0
N  N81  1  0.84914647  0.12365640  0.66824465  1  -1.284079  0  -0.336545  -0.246531  0  3.598159  0
N  N82  1  0.23179983  0.70751056  0.09158521  1  -1.283708  0  -0.333871  -0.244126  0  3.602717  0
N  N83  1  0.76819525  0.29248184  0.90841530  1  -1.283739  0  -0.333772  -0.243983  0  3.602712  0
O  O84  1  0.96742121  0.48848243  0.23433054  1  -1.18576  0  -0.329049  -0.562809  0  2.127471  0
O  O85  1  0.03258928  0.51151471  0.76566573  1  -1.18589  0  -0.329017  -0.562782  0  2.127443  0
O  O86  1  0.94210164  0.63803799  0.36758968  1  -1.185997  0  -0.338502  -0.564615  0  2.36434  0
O  O87  1  0.05789706  0.36196387  0.63240385  1  -1.184881  0  -0.338491  -0.56462  0  2.36425  0
O  O88  1  0.49160047  0.19439751  0.44467605  1  -1.089776  0  -0.182098  -0.210808  0  2.590445  0
O  O89  1  0.50839159  0.80561097  0.55532194  1  -1.089781  0  -0.182112  -0.2107  0  2.590323  0
O  O90  1  0.53828370  0.45779543  0.74652053  1  -1.07184  0  -0.176236  -0.197032  0  2.558646  0
O  O91  1  0.46172432  0.54219697  0.25348061  1  -1.071883  0  -0.176256  -0.197025  0  2.558622  0
O  O92  1  0.84596118  0.82196818  0.18833826  1  -1.177123  0  -0.351577  -0.582707  0  2.247551  0
O  O93  1  0.15403758  0.17803180  0.81166118  1  -1.177163  0  -0.351581  -0.582712  0  2.24758  0
O  O94  1  0.98012750  0.00941460  0.15622738  1  -1.190575  0  -0.339616  -0.587026  0  2.097998  0
O  O95  1  0.01986215  0.99058726  0.84378138  1  -1.190583  0  -0.339615  -0.587009  0  2.09797  0
