# generated using pymatgen
data_CuH2C3N7
_symmetry_space_group_name_H-M   'P 1'
_cell_length_a   6.67427028
_cell_length_b   8.58311136
_cell_length_c   9.75408947
_cell_angle_alpha   90.00013685
_cell_angle_beta   90.00003759
_cell_angle_gamma   107.13255263
_symmetry_Int_Tables_number   1
_chemical_formula_structural   CuH2C3N7
_chemical_formula_sum   'Cu4 H8 C12 N28'
_cell_volume   533.97772278
_cell_formula_units_Z   4
loop_
 _symmetry_equiv_pos_site_id
 _symmetry_equiv_pos_as_xyz
  1  'x, y, z'
loop_
 _atom_site_type_symbol
 _atom_site_label
 _atom_site_symmetry_multiplicity
 _atom_site_fract_x
 _atom_site_fract_y
 _atom_site_fract_z
 _atom_site_occupancy
 _atom_site_hle17_bader_spin_density
 _atom_site_hle17_ddec_charge
 _atom_site_hle17_ddec_spin_density
 _atom_site_hle17_ddec_sum_bond_order
 _atom_site_hle17_magmom
 _atom_site_hse06_10hf_bader_spin_density
 _atom_site_hse06_10hf_ddec_charge
 _atom_site_hse06_10hf_ddec_spin_density
 _atom_site_hse06_10hf_ddec_sum_bond_order
 _atom_site_hse06_10hf_magmom
 _atom_site_hse06_bader_spin_density
 _atom_site_hse06_ddec_charge
 _atom_site_hse06_ddec_spin_density
 _atom_site_hse06_ddec_sum_bond_order
 _atom_site_hse06_magmom
 _atom_site_pbe_bader_spin_density
 _atom_site_pbe_cm5_charge
 _atom_site_pbe_ddec_charge
 _atom_site_pbe_ddec_spin_density
 _atom_site_pbe_ddec_sum_bond_order
 _atom_site_pbe_magmom
Cu  Cu0  1  0.56746622  0.59202218  0.16716346  1  0  0.380128  0  2.038139  0  0  0.2316  0  2.571785  0  0  0.224024  0  2.527031  0  0  0.588213  0.241095  0  2.598422  0
Cu  Cu1  1  0.93253889  0.40797775  0.66716184  1  0  0.380146  0  2.038209  0  0  0.231624  0  2.571872  0  0  0.224042  0  2.52711  0  0  0.588202  0.241107  0  2.598376  0
Cu  Cu2  1  0.43253785  0.40797508  0.83283685  1  0  0.380135  0  2.038246  0  0  0.231629  0  2.571893  0  0  0.224035  0  2.527131  0  0  0.588222  0.24111  0  2.598399  0
Cu  Cu3  1  0.06746464  0.59202195  0.33283744  1  0  0.380238  0  2.038201  0  0  0.231767  0  2.571813  0  0  0.224227  0  2.52707  0  0  0.588252  0.241268  0  2.598361  0
H  H4  1  0.25178403  0.02277775  0.88083883  1  0  0.283074  0  0.955389  0  0  0.250248  0  1.034172  0  0  0.260438  0  1.026722  0  0  0.307067  0.24124  0  1.041438  0
H  H5  1  0.24820967  0.97721584  0.38084544  1  0  0.283061  0  0.955308  0  0  0.250196  0  1.034179  0  0  0.260415  0  1.026674  0  0  0.307046  0.241186  0  1.041449  0
H  H6  1  0.74821060  0.97721836  0.11915839  1  0  0.283103  0  0.955342  0  0  0.25024  0  1.034197  0  0  0.260436  0  1.026735  0  0  0.307064  0.241228  0  1.041471  0
H  H7  1  0.75178938  0.02278390  0.61915896  1  0  0.283134  0  0.95536  0  0  0.250257  0  1.034229  0  0  0.260459  0  1.026751  0  0  0.307049  0.241246  0  1.041499  0
H  H8  1  0.10091658  0.82598119  0.67527150  1  0  0.110349  0  0.940835  0  0  0.114822  0  1.010854  0  0  0.118078  0  1.006521  0  0  0.14214  0.112463  0  1.01393  0
H  H9  1  0.39908891  0.17402386  0.17528265  1  0  0.110226  0  0.940559  0  0  0.114687  0  1.010592  0  0  0.117946  0  1.006268  0  0  0.142137  0.112331  0  1.013666  0
H  H10  1  0.89908187  0.17402467  0.32472265  1  0  0.110126  0  0.940676  0  0  0.114606  0  1.010698  0  0  0.117869  0  1.006373  0  0  0.142064  0.112249  0  1.013775  0
H  H11  1  0.60091742  0.82598682  0.82472073  1  0  0.110246  0  0.941011  0  0  0.114765  0  1.01095  0  0  0.118018  0  1.006626  0  0  0.142141  0.112408  0  1.014027  0
C  C12  1  0.52526170  0.29807268  0.49840472  1  0  0.208619  0  3.812279  0  0  0.192089  0  4.080006  0  0  0.197132  0  4.097344  0  0  0.210388  0.188513  0  4.068551  0
C  C13  1  0.97473272  0.70192596  0.99840066  1  0  0.208511  0  3.812126  0  0  0.19204  0  4.079863  0  0  0.19708  0  4.097203  0  0  0.210368  0.188449  0  4.068432  0
C  C14  1  0.47473443  0.70192341  0.50159764  1  0  0.208539  0  3.812074  0  0  0.19204  0  4.079835  0  0  0.197085  0  4.097178  0  0  0.210335  0.188469  0  4.06839  0
C  C15  1  0.02526334  0.29807380  0.00159555  1  0  0.208649  0  3.812158  0  0  0.192115  0  4.0799  0  0  0.197158  0  4.097236  0  0  0.210344  0.188557  0  4.068425  0
C  C16  1  0.40180404  0.17704566  0.59330322  1  0  0.264403  0  3.758498  0  0  0.239544  0  4.031308  0  0  0.252244  0  4.041555  0  0  0.22128  0.231139  0  4.024748  0
C  C17  1  0.09819625  0.82296162  0.09330431  1  0  0.264734  0  3.758062  0  0  0.239742  0  4.031071  0  0  0.252449  0  4.041303  0  0  0.221453  0.231344  0  4.024528  0
C  C18  1  0.59819841  0.82295895  0.40669606  1  0  0.264626  0  3.758253  0  0  0.239651  0  4.031212  0  0  0.252349  0  4.041462  0  0  0.221399  0.231248  0  4.024676  0
C  C19  1  0.90180512  0.17704789  0.90669702  1  0  0.264278  0  3.758644  0  0  0.239448  0  4.031439  0  0  0.252148  0  4.041679  0  0  0.22127  0.231036  0  4.024877  0
C  C20  1  0.20271136  0.94996603  0.66604578  1  0  0.240632  0  3.62878  0  0  0.172365  0  3.911158  0  0  0.187231  0  3.922192  0  0  0.161264  0.161853  0  3.904177  0
C  C21  1  0.29726393  0.05000010  0.16604842  1  0  0.24083  0  3.629906  0  0  0.172627  0  3.912241  0  0  0.187476  0  3.923293  0  0  0.161457  0.162117  0  3.905252  0
C  C22  1  0.79727511  0.05001302  0.33395145  1  0  0.24099  0  3.629401  0  0  0.172757  0  3.91174  0  0  0.187605  0  3.922787  0  0  0.161479  0.162248  0  3.90476  0
C  C23  1  0.70271317  0.94997413  0.83394881  1  0  0.240766  0  3.628893  0  0  0.172471  0  3.911272  0  0  0.187333  0  3.922306  0  0  0.161303  0.161954  0  3.904297  0
N  N24  1  0.60768930  0.44562185  0.32037187  1  0  -0.067015  0  3.258991  0  0  -0.023714  0  3.593624  0  0  -0.020706  0  3.593527  0  0  -0.146538  -0.026252  0  3.593475  0
N  N25  1  0.89231364  0.55437981  0.82037054  1  0  -0.0671  0  3.258897  0  0  -0.023808  0  3.593527  0  0  -0.0208  0  3.593421  0  0  -0.146605  -0.026339  0  3.593319  0
N  N26  1  0.39231675  0.55437661  0.67963048  1  0  -0.067034  0  3.25897  0  0  -0.023757  0  3.593599  0  0  -0.020746  0  3.593491  0  0  -0.146593  -0.02629  0  3.593395  0
N  N27  1  0.10768691  0.44561992  0.17963181  1  0  -0.067067  0  3.258959  0  0  -0.023772  0  3.593585  0  0  -0.020774  0  3.593501  0  0  -0.146559  -0.026307  0  3.593413  0
N  N28  1  0.77759979  0.47612405  0.39968329  1  0  -0.069529  0  3.217193  0  0  -0.031294  0  3.549786  0  0  -0.026479  0  3.545353  0  0  -0.155114  -0.035378  0  3.55315  0
N  N29  1  0.72240284  0.52387665  0.89968284  1  0  -0.069469  0  3.217137  0  0  -0.031221  0  3.549718  0  0  -0.026392  0  3.545262  0  0  -0.155076  -0.035297  0  3.553058  0
N  N30  1  0.22240524  0.52387564  0.60031599  1  0  -0.069553  0  3.21713  0  0  -0.031268  0  3.549693  0  0  -0.026442  0  3.545244  0  0  -0.15507  -0.035344  0  3.553032  0
N  N31  1  0.27759723  0.47612186  0.10031849  1  0  -0.069504  0  3.21708  0  0  -0.031238  0  3.549661  0  0  -0.026412  0  3.545213  0  0  -0.155101  -0.035325  0  3.553059  0
N  N32  1  0.72932107  0.38423998  0.51384453  1  0  -0.257565  0  3.247844  0  0  -0.211582  0  3.579312  0  0  -0.214589  0  3.577889  0  0  -0.265836  -0.210471  0  3.580349  0
N  N33  1  0.77068269  0.61576069  0.01384425  1  0  -0.257558  0  3.247873  0  0  -0.211576  0  3.579332  0  0  -0.214585  0  3.577912  0  0  -0.265826  -0.210472  0  3.580428  0
N  N34  1  0.27068097  0.61575974  0.48615270  1  0  -0.257597  0  3.247942  0  0  -0.21163  0  3.579394  0  0  -0.21465  0  3.577992  0  0  -0.265851  -0.210529  0  3.580456  0
N  N35  1  0.22932281  0.38424022  0.98615401  1  0  -0.257587  0  3.247809  0  0  -0.211615  0  3.579253  0  0  -0.214617  0  3.577824  0  0  -0.26583  -0.210506  0  3.580289  0
N  N36  1  0.44807100  0.33317210  0.37914912  1  0  -0.274468  0  2.935303  0  0  -0.262072  0  3.217843  0  0  -0.271245  0  3.231621  0  0  -0.220087  -0.255767  0  3.20845  0
N  N37  1  0.05193099  0.66683120  0.87914889  1  0  -0.274416  0  2.935177  0  0  -0.262012  0  3.217697  0  0  -0.271185  0  3.231474  0  0  -0.220071  -0.255704  0  3.208301  0
N  N38  1  0.55193104  0.66682762  0.62085324  1  0  -0.274395  0  2.935234  0  0  -0.261999  0  3.217778  0  0  -0.271171  0  3.231554  0  0  -0.220034  -0.255693  0  3.208377  0
N  N39  1  0.94807398  0.33317216  0.12085347  1  0  -0.274422  0  2.935245  0  0  -0.262024  0  3.21778  0  0  -0.271197  0  3.231562  0  0  -0.220032  -0.255723  0  3.208377  0
N  N40  1  0.39835266  0.19504936  0.73003153  1  0  -0.241133  0  3.149916  0  0  -0.207299  0  3.475556  0  0  -0.20867  0  3.475191  0  0  -0.261041  -0.207837  0  3.476209  0
N  N41  1  0.10163916  0.80494742  0.23003259  1  0  -0.241385  0  3.149749  0  0  -0.207538  0  3.475502  0  0  -0.208927  0  3.475156  0  0  -0.261131  -0.208085  0  3.476191  0
N  N42  1  0.60164592  0.80494916  0.26997082  1  0  -0.241245  0  3.149877  0  0  -0.207352  0  3.475554  0  0  -0.208732  0  3.4752  0  0  -0.261086  -0.2079  0  3.476274  0
N  N43  1  0.89835888  0.19505355  0.76997182  1  0  -0.24106  0  3.149966  0  0  -0.207268  0  3.475647  0  0  -0.208645  0  3.475287  0  0  -0.261084  -0.207805  0  3.476297  0
N  N44  1  0.27349707  0.04783682  0.77393294  1  0  -0.173275  0  3.433563  0  0  -0.107311  0  3.678871  0  0  -0.123085  0  3.695701  0  0  -0.263315  -0.095694  0  3.668419  0
N  N45  1  0.22650319  0.95216615  0.27392205  1  0  -0.173246  0  3.434176  0  0  -0.107292  0  3.679502  0  0  -0.123071  0  3.696318  0  0  -0.263425  -0.095671  0  3.669054  0
N  N46  1  0.72650442  0.95216535  0.22607249  1  0  -0.173381  0  3.433988  0  0  -0.107444  0  3.679347  0  0  -0.123213  0  3.696168  0  0  -0.263419  -0.09582  0  3.66891  0
N  N47  1  0.77350218  0.04784210  0.72606390  1  0  -0.173419  0  3.433576  0  0  -0.107417  0  3.678926  0  0  -0.123188  0  3.695734  0  0  -0.263314  -0.095797  0  3.668477  0
N  N48  1  0.27949869  0.02795410  0.55024520  1  0  -0.404196  0  3.04512  0  0  -0.357377  0  3.311737  0  0  -0.374368  0  3.323146  0  0  -0.318406  -0.344884  0  3.304465  0
N  N49  1  0.22050497  0.97205423  0.05025486  1  0  -0.404385  0  3.045655  0  0  -0.357569  0  3.312327  0  0  -0.374544  0  3.32374  0  0  -0.318564  -0.345074  0  3.305056  0
N  N50  1  0.72050125  0.97205174  0.44974895  1  0  -0.404409  0  3.045436  0  0  -0.357563  0  3.312096  0  0  -0.374544  0  3.323513  0  0  -0.318524  -0.345067  0  3.304833  0
N  N51  1  0.77949939  0.02795525  0.94975057  1  0  -0.404131  0  3.045  0  0  -0.357318  0  3.311621  0  0  -0.374296  0  3.323037  0  0  -0.318404  -0.344828  0  3.304353  0
