# generated using pymatgen
data_CoH11C14N5O6
_symmetry_space_group_name_H-M   'P 1'
_cell_length_a   8.67196048
_cell_length_b   9.54078161
_cell_length_c   19.04045968
_cell_angle_alpha   100.65885249
_cell_angle_beta   89.99969679
_cell_angle_gamma   90.00019005
_symmetry_Int_Tables_number   1
_chemical_formula_structural   CoH11C14N5O6
_chemical_formula_sum   'Co4 H44 C56 N20 O24'
_cell_volume   1548.17448863
_cell_formula_units_Z   4
loop_
 _symmetry_equiv_pos_site_id
 _symmetry_equiv_pos_as_xyz
  1  'x, y, z'
loop_
 _atom_site_type_symbol
 _atom_site_label
 _atom_site_symmetry_multiplicity
 _atom_site_fract_x
 _atom_site_fract_y
 _atom_site_fract_z
 _atom_site_occupancy
 _atom_site_hle17_ddec_charge
 _atom_site_hle17_ddec_spin_density
 _atom_site_hle17_ddec_sum_bond_order
 _atom_site_hle17_magmom
 _atom_site_hse06_10hf_ddec_charge
 _atom_site_hse06_10hf_ddec_spin_density
 _atom_site_hse06_10hf_ddec_sum_bond_order
 _atom_site_hse06_10hf_magmom
 _atom_site_hse06_ddec_charge
 _atom_site_hse06_ddec_spin_density
 _atom_site_hse06_ddec_sum_bond_order
 _atom_site_hse06_magmom
 _atom_site_pbe_cm5_charge
 _atom_site_pbe_ddec_charge
 _atom_site_pbe_ddec_spin_density
 _atom_site_pbe_ddec_sum_bond_order
 _atom_site_pbe_magmom
Co  Co0  1  0.88335116  0.49585765  0.62464006  1  0.960559  -2.932264  2.014271  -2.538  0.897342  -2.850983  2.467256  -2.589  0.985957  -2.89872  2.383268  -2.676  0.688067  0.827386  -2.798458  2.530909  -2.508
Co  Co1  1  0.38335229  0.00414564  0.87535851  1  0.960636  2.841762  2.014672  2.538  0.897332  2.83058  2.467398  2.589  0.985947  2.875384  2.383434  2.676  0.688096  0.827425  2.784788  2.531006  2.508
Co  Co2  1  0.11664595  0.50414017  0.37535949  1  0.960596  2.841811  2.014736  2.538  0.897311  2.830622  2.4675  2.589  0.985866  2.875396  2.38355  2.676  0.68807  0.827336  2.784777  2.531117  2.508
Co  Co3  1  0.61664828  0.99586072  0.12464232  1  0.960578  2.841795  2.014675  2.538  0.897312  2.830624  2.467431  2.589  0.985875  2.875398  2.383464  2.676  0.688079  0.827361  2.784798  2.531059  2.508
H  H4  1  0.45067656  0.56649043  0.58796510  1  0.326642  -0.000317  0.916676  -0.001  0.30647  -0.000288  0.978374  0.0  0.315188  -0.000204  0.970938  0.0  0.316652  0.300304  -0.000354  0.98366  -0.001
H  H5  1  0.95067301  0.93350887  0.91203482  1  0.326594  0.000297  0.91672  0.001  0.306398  0.000268  0.978445  0.0  0.315115  0.000187  0.971012  0.0  0.316593  0.300232  0.000331  0.983732  0.001
H  H6  1  0.54932631  0.43350741  0.41203602  1  0.326669  0.000308  0.916714  0.001  0.306472  0.000286  0.978439  0.0  0.31519  0.000203  0.971002  0.0  0.316643  0.300306  0.000353  0.983726  0.001
H  H7  1  0.04932525  0.06649108  0.08796439  1  0.326672  0.000298  0.916644  0.001  0.306479  0.000268  0.978358  0.0  0.315195  0.000187  0.970923  0.0  0.316649  0.300313  0.000331  0.983647  0.001
H  H8  1  0.55778095  0.40341098  0.83250822  1  0.315248  -0.000274  0.927273  -0.001  0.297545  -0.000228  0.986244  0.0  0.306355  -0.000195  0.979218  0.0  0.309374  0.291159  -0.000255  0.991525  0.0
H  H9  1  0.05778253  0.09659055  0.66749255  1  0.315296  0.000267  0.927209  0.001  0.297595  0.000225  0.986176  0.0  0.306404  0.000194  0.979152  0.0  0.309403  0.291212  0.000254  0.991457  0.0
H  H10  1  0.44221615  0.59659113  0.16749328  1  0.315267  0.000247  0.927215  0.001  0.297581  0.00022  0.986173  0.0  0.306383  0.00014  0.979153  0.0  0.309411  0.291196  0.000297  0.991454  0.001
H  H11  1  0.94221688  0.90340834  0.33250709  1  0.31544  0.000247  0.927061  0.001  0.297713  0.000221  0.986078  0.0  0.306522  0.00014  0.979049  0.0  0.309431  0.29133  0.000296  0.99136  0.001
H  H12  1  0.57314142  0.73561052  0.43464101  1  0.128992  -0.000134  0.948598  0.0  0.132817  -2.8e-05  1.016619  0.0  0.137361  -3e-05  1.012474  0.0  0.118226  0.129315  -8e-06  1.019872  0.0
H  H13  1  0.07314249  0.76439027  0.06535984  1  0.128995  8.9e-05  0.948593  0.0  0.132813  -1.5e-05  1.016616  0.0  0.137357  -2.2e-05  1.012471  0.0  0.11822  0.129312  -2.3e-05  1.019871  0.0
H  H14  1  0.42686145  0.26438626  0.56536054  1  0.129039  0.000129  0.948564  0.0  0.132884  2.9e-05  1.01656  0.0  0.137404  3.1e-05  1.012452  0.0  0.118214  0.129383  9e-06  1.019812  0.0
H  H15  1  0.92686038  0.23561286  0.93463808  1  0.129015  8.7e-05  0.948562  0.0  0.132859  -1.5e-05  1.01656  0.0  0.137379  -2.2e-05  1.012452  0.0  0.118211  0.129358  -2.4e-05  1.019812  0.0
H  H16  1  0.68850523  0.17944611  0.44958374  1  0.127824  -0.000208  0.947195  0.0  0.13111  -0.000108  1.018006  0.0  0.135983  -5.1e-05  1.013055  0.0  0.117985  0.127349  -0.000168  1.0218  0.0
H  H17  1  0.18850669  0.32055375  0.05041593  1  0.127861  0.000158  0.947167  0.0  0.131135  4.4e-05  1.01799  0.0  0.136007  3e-06  1.01304  0.0  0.117991  0.127375  0.000101  1.021783  0.0
H  H18  1  0.31149533  0.82054745  0.55041542  1  0.127779  0.000209  0.947206  0.0  0.131083  0.000107  1.017979  0.0  0.135959  5e-05  1.013025  0.0  0.117949  0.12732  0.000168  1.021773  0.0
H  H19  1  0.81149503  0.67945260  0.94958438  1  0.127773  0.000149  0.947186  0.0  0.131073  4.5e-05  1.017972  0.0  0.135947  5e-06  1.013019  0.0  0.11795  0.127312  0.000101  1.021767  0.0
H  H20  1  0.86877408  0.94335112  0.60352390  1  0.104812  -9e-06  0.954137  0.0  0.113704  3.5e-05  1.019441  0.0  0.117924  6e-05  1.015377  0.0  0.11047  0.110724  -3.5e-05  1.022225  0.0
H  H21  1  0.36877516  0.55665011  0.89647482  1  0.104785  1.2e-05  0.954114  0.0  0.113667  -3.2e-05  1.019449  0.0  0.117886  -5.8e-05  1.015385  0.0  0.110445  0.110687  3.6e-05  1.022234  0.0
H  H22  1  0.13122187  0.05664778  0.39647679  1  0.104846  6e-05  0.954134  0.0  0.113722  4.6e-05  1.019442  0.0  0.11794  -2e-06  1.015382  0.0  0.110475  0.110743  0.000137  1.022227  0.0
H  H23  1  0.63122080  0.44335195  0.10352248  1  0.104843  6.4e-05  0.954145  0.0  0.113708  4.8e-05  1.019458  0.0  0.117924  1e-06  1.015402  0.0  0.110495  0.11073  0.000138  1.022242  0.0
H  H24  1  0.17517745  0.59906091  0.54557379  1  0.099437  -0.00017  0.975371  0.0  0.106291  -0.000259  1.042791  0.0  0.109513  -0.000246  1.039088  0.0  0.133811  0.103797  -0.00026  1.045664  0.0
H  H25  1  0.67517560  0.90093670  0.95442612  1  0.099437  -0.000166  0.97543  0.0  0.106282  3e-06  1.042862  0.0  0.109505  -9.2e-05  1.039156  0.0  0.133818  0.103793  0.000115  1.045735  0.0
H  H26  1  0.82482196  0.40093480  0.45442714  1  0.099408  0.000166  0.975427  0.0  0.106254  0.00026  1.04286  0.0  0.109475  0.000248  1.039157  0.0  0.13379  0.10376  0.000264  1.045733  0.0
H  H27  1  0.32482381  0.09906538  0.04557381  1  0.099476  -0.000165  0.97538  0.0  0.106293  4e-06  1.042839  0.0  0.109516  -9.1e-05  1.039134  0.0  0.133806  0.103802  0.000117  1.045714  0.0
H  H28  1  0.45293240  0.45714971  0.70086761  1  0.100753  -0.00016  1.014535  0.0  0.108941  -0.000173  1.077381  0.0  0.110617  -0.000103  1.07803  0.0  0.116191  0.107833  -0.000246  1.076814  0.0
H  H29  1  0.95292989  0.04284950  0.79913358  1  0.100709  0.000157  1.014582  0.0  0.108899  0.000173  1.077445  0.0  0.110574  0.000103  1.078094  0.0  0.116174  0.1078  0.000246  1.076869  0.0
H  H30  1  0.54706701  0.54284921  0.29913466  1  0.100664  0.000155  1.014587  0.0  0.108922  0.00017  1.077366  0.0  0.110597  0.000101  1.078015  0.0  0.11618  0.107806  0.000241  1.076808  0.0
H  H31  1  0.04706606  0.95714939  0.20086605  1  0.100691  0.000156  1.014463  0.0  0.108883  0.000169  1.077332  0.0  0.110558  0.000101  1.077982  0.0  0.116165  0.107777  0.000241  1.076764  0.0
H  H32  1  0.14290652  0.42132370  0.73287002  1  0.106545  -0.000156  0.977471  -0.001  0.10781  -0.000266  1.051244  -0.001  0.111556  -0.00019  1.047537  -0.001  0.111663  0.105072  -0.000345  1.054281  -0.001
H  H33  1  0.64290567  0.07867482  0.76713081  1  0.106573  0.000147  0.977458  0.001  0.107848  0.000264  1.051217  0.001  0.111595  0.000189  1.047507  0.001  0.111667  0.105116  0.000343  1.054243  0.001
H  H34  1  0.85709174  0.57867628  0.26713182  1  0.10659  0.000145  0.977424  0.001  0.107853  0.000253  1.051192  0.001  0.1116  0.000179  1.047484  0.001  0.11168  0.105129  0.000329  1.054213  0.001
H  H35  1  0.35709259  0.92132407  0.23286883  1  0.106592  0.000145  0.97743  0.001  0.107853  0.000253  1.051201  0.001  0.111602  0.000178  1.047489  0.001  0.111669  0.10511  0.000329  1.054242  0.001
H  H36  1  0.73980018  0.29708940  0.72933954  1  0.101023  -2.7e-05  0.946224  0.0  0.109953  -8.6e-05  1.009114  0.0  0.112156  -4.8e-05  1.006553  0.0  0.137193  0.108314  -0.000125  1.011112  0.0
H  H37  1  0.23980095  0.20291145  0.77066073  1  0.101085  2.3e-05  0.946225  0.0  0.109987  8.7e-05  1.009136  0.0  0.112189  4.8e-05  1.006576  0.0  0.137215  0.108348  0.000125  1.011132  0.0
H  H38  1  0.26019923  0.70291163  0.27066134  1  0.101031  1e-05  0.946215  0.0  0.10995  6.1e-05  1.009108  0.0  0.112153  2.7e-05  1.006549  0.0  0.137207  0.10831  9.6e-05  1.011104  0.0
H  H39  1  0.76019847  0.79708637  0.22933881  1  0.101078  1e-05  0.946214  0.0  0.109984  6.2e-05  1.00912  0.0  0.112186  2.8e-05  1.006561  0.0  0.137206  0.108345  9.6e-05  1.011115  0.0
H  H40  1  0.54181151  0.67679218  0.84592126  1  0.114667  -0.000356  0.984047  0.0  0.121119  -0.000297  1.051118  0.0  0.124286  -0.000278  1.049489  0.0  0.119783  0.11871  -0.0003  1.05234  0.0
H  H41  1  0.04181408  0.82320941  0.65407880  1  0.114656  0.000351  0.983978  0.0  0.121107  0.000297  1.051061  0.0  0.124274  0.00028  1.049431  0.0  0.119765  0.118697  0.000296  1.05228  0.0
H  H42  1  0.45818559  0.32320885  0.15407856  1  0.114658  0.000114  0.983936  0.0  0.121114  0.000117  1.051008  0.0  0.124281  1.9e-05  1.049379  0.0  0.119771  0.118705  0.000236  1.052234  0.0
H  H43  1  0.95818764  0.17679055  0.34592146  1  0.11463  0.000114  0.983998  0.0  0.121073  0.000116  1.051096  0.0  0.124238  1.6e-05  1.049469  0.0  0.119753  0.118662  0.000239  1.052317  0.0
H  H44  1  0.71932923  0.74131976  0.73483132  1  0.109929  -0.000137  0.95038  -0.001  0.1187  -0.000259  1.009468  -0.001  0.120588  -0.000182  1.009586  0.0  0.120386  0.117065  -0.000335  1.009984  -0.001
H  H45  1  0.21933027  0.75868222  0.76516835  1  0.109918  0.000134  0.95036  0.001  0.118705  0.00026  1.009422  0.001  0.120585  0.000183  1.009551  0.0  0.120375  0.11707  0.000336  1.009941  0.001
H  H46  1  0.28066903  0.25868126  0.26516798  1  0.109929  6.5e-05  0.950428  0.001  0.118708  0.000169  1.009508  0.001  0.120586  0.0001  1.009639  0.0  0.120394  0.117074  0.000237  1.010025  0.001
H  H47  1  0.78066914  0.24131883  0.23483306  1  0.109924  6.7e-05  0.95035  0.001  0.118714  0.000171  1.009414  0.001  0.120593  0.000101  1.009544  0.0  0.120384  0.117079  0.000239  1.009933  0.001
C  C48  1  0.72833162  0.69180142  0.55363647  1  0.649258  0.00238  3.911733  0.006  0.603468  -0.002032  4.210282  -0.001  0.639639  -0.001366  4.204637  -0.001  0.213553  0.577873  -0.002369  4.212891  -0.001
C  C49  1  0.22832727  0.80819951  0.94636308  1  0.649285  -0.002606  3.912056  -0.006  0.603436  0.001979  4.210681  0.001  0.639607  0.001318  4.205037  0.001  0.213484  0.57784  0.002318  4.213304  0.001
C  C50  1  0.27167010  0.30819533  0.44636245  1  0.649145  -0.002546  3.912152  -0.006  0.60339  0.002018  4.21063  0.001  0.63956  0.001354  4.204989  0.001  0.213455  0.577799  0.002357  4.213241  0.001
C  C51  1  0.77167330  0.19180258  0.05363684  1  0.649166  -0.002603  3.912195  -0.006  0.603418  0.00198  4.210672  0.001  0.639587  0.00132  4.20503  0.001  0.213525  0.577826  0.00232  4.213287  0.001
C  C52  1  0.72603499  0.82416577  0.52138771  1  -0.043792  -0.005669  3.722277  -0.008  -0.018284  -0.002162  3.957225  -0.003  -0.02778  -0.001391  3.978056  -0.002  -0.008013  -0.012796  -0.002646  3.944223  -0.004
C  C53  1  0.22603670  0.67583620  0.97861036  1  -0.043926  0.005322  3.72242  0.008  -0.018413  0.00203  3.957383  0.003  -0.027912  0.001288  3.978211  0.002  -0.008048  -0.012916  0.002563  3.944382  0.004
C  C54  1  0.27396557  0.17583312  0.47861140  1  -0.043704  0.0055  3.722335  0.008  -0.01824  0.002148  3.957271  0.003  -0.027736  0.001379  3.978099  0.002  -0.008004  -0.01276  0.002637  3.944297  0.004
C  C55  1  0.77396387  0.32416587  0.02138851  1  -0.043664  0.005315  3.722209  0.008  -0.018196  0.002033  3.957151  0.003  -0.027691  0.001293  3.977978  0.002  -0.007985  -0.012725  0.002567  3.944187  0.004
C  C56  1  0.63795377  0.82851093  0.46037923  1  -0.07743  0.003979  3.66252  0.005  -0.117289  0.000794  3.918395  0.001  -0.112374  0.000359  3.934138  0.0  -0.064401  -0.119495  -0.0003  3.907314  0.0
C  C57  1  0.13795365  0.67148786  0.03962076  1  -0.077373  -0.004202  3.662548  -0.005  -0.117213  -0.000853  3.918392  -0.001  -0.112295  -0.000418  3.934131  0.0  -0.064377  -0.119423  0.000203  3.907318  0.0
C  C58  1  0.36204910  0.17148476  0.53962012  1  -0.077523  -0.004136  3.662626  -0.005  -0.117387  -0.000774  3.918465  -0.001  -0.112451  -0.000343  3.934228  0.0  -0.064391  -0.119591  0.000327  3.907388  0.0
C  C59  1  0.86204806  0.32851422  0.96037812  1  -0.077402  -0.004168  3.662489  -0.005  -0.117306  -0.000875  3.918294  -0.001  -0.112372  -0.000436  3.934058  0.0  -0.064355  -0.119506  0.00018  3.907216  0.0
C  C60  1  0.63193591  0.95595399  0.43456879  1  0.053136  -0.001759  3.71809  -0.003  0.048659  -0.000219  3.979275  0.0  0.042995  -0.000137  4.002689  0.0  0.072734  0.051992  -0.00019  3.963302  0.0
C  C61  1  0.13193272  0.54404584  0.06542973  1  0.053152  0.001697  3.718228  0.003  0.048679  0.000241  3.979384  0.0  0.043014  0.000151  4.002798  0.0  0.07278  0.05201  0.000244  3.963403  0.0
C  C62  1  0.36806927  0.04404383  0.56543022  1  0.053183  0.001731  3.71816  0.003  0.048709  0.000251  3.979326  0.0  0.043043  0.000154  4.002738  0.0  0.07273  0.05204  0.000239  3.963344  0.0
C  C63  1  0.86806669  0.45595837  0.93456881  1  0.053003  0.001652  3.718376  0.003  0.048673  0.000211  3.979366  0.0  0.043007  0.000133  4.002775  0.0  0.072742  0.052004  0.000196  3.963386  0.0
C  C64  1  0.70376677  0.08045954  0.46920005  1  -0.079484  0.003071  3.670133  0.004  -0.118849  0.000686  3.926608  0.001  -0.11359  0.000451  3.941445  0.001  -0.066545  -0.121463  -0.000304  3.916628  0.0
C  C65  1  0.20376881  0.41954141  0.03079915  1  -0.079526  -0.003131  3.670159  -0.004  -0.118876  -0.000627  3.926622  -0.001  -0.113616  -0.000406  3.94146  0.0  -0.066544  -0.121487  0.000395  3.916638  0.0
C  C66  1  0.29623380  0.91953828  0.53079949  1  -0.079513  -0.003124  3.670061  -0.004  -0.118863  -0.000611  3.926537  -0.001  -0.113605  -0.000398  3.941375  0.0  -0.06652  -0.121475  0.00042  3.916551  0.0
C  C67  1  0.79623060  0.58046172  0.96919929  1  -0.079335  -0.003166  3.670118  -0.004  -0.118739  -0.000704  3.92655  -0.001  -0.113479  -0.000461  3.941387  0.0  -0.066491  -0.121352  0.000289  3.916569  0.0
C  C68  1  0.79008944  0.07581138  0.53077747  1  -0.063217  -0.004175  3.744666  -0.006  -0.036444  -0.001409  3.980517  -0.002  -0.047143  -0.000888  4.00324  -0.001  -0.015778  -0.03013  -0.001669  3.966466  -0.002
C  C69  1  0.29009217  0.42418958  0.96922165  1  -0.063341  0.003907  3.74482  0.006  -0.036566  0.001346  3.980718  0.002  -0.047268  0.000851  4.003442  0.001  -0.015838  -0.030249  0.001636  3.966671  0.002
C  C70  1  0.20991112  0.92418431  0.46922189  1  -0.063075  0.004028  3.744493  0.006  -0.036349  0.00139  3.9804  0.002  -0.047049  0.000872  4.003124  0.001  -0.015727  -0.030036  0.001648  3.96635  0.002
C  C71  1  0.70990955  0.57581462  0.03077689  1  -0.06327  0.003911  3.744808  0.006  -0.036505  0.001352  3.980702  0.002  -0.047204  0.000856  4.003424  0.001  -0.015765  -0.030191  0.00165  3.966655  0.002
C  C72  1  0.80364838  0.94663489  0.55509975  1  -0.034335  0.000942  3.648793  0.001  -0.078246  -0.001134  3.899613  -0.001  -0.072956  -0.000826  3.91526  -0.001  -0.065496  -0.082227  -0.000202  3.889988  0.0
C  C73  1  0.30364888  0.55336621  0.94490016  1  -0.034209  -0.000952  3.648845  -0.001  -0.078124  0.00116  3.899666  0.002  -0.072831  0.000841  3.91531  0.001  -0.065449  -0.08211  0.000202  3.890055  0.0
C  C74  1  0.19635219  0.05336294  0.44490032  1  -0.034494  -0.000947  3.648767  -0.001  -0.078353  0.001217  3.899574  0.002  -0.073063  0.000885  3.915223  0.001  -0.065549  -0.082333  0.000321  3.889961  0.0
C  C75  1  0.69635169  0.44663801  0.05509943  1  -0.034529  -0.000912  3.64898  -0.001  -0.078393  0.001178  3.899803  0.002  -0.073104  0.000854  3.915452  0.001  -0.065631  -0.082374  0.000219  3.890187  0.0
C  C76  1  0.85618982  0.20890967  0.57488288  1  0.645203  0.002835  3.899709  0.006  0.599094  -0.001711  4.196297  0.0  0.635639  -0.001247  4.191793  0.0  0.211146  0.573264  -0.002101  4.198125  0.0
C  C77  1  0.35619488  0.29109144  0.92511661  1  0.645351  -0.003024  3.899751  -0.006  0.599174  0.001682  4.196399  0.0  0.635718  0.001223  4.191892  0.0  0.211135  0.573342  0.002067  4.198234  0.0
C  C78  1  0.14380498  0.79108709  0.42511657  1  0.645102  -0.003004  3.899581  -0.006  0.598969  0.001712  4.196214  0.0  0.635516  0.001245  4.191708  0.0  0.211033  0.573138  0.002112  4.198043  0.0
C  C79  1  0.64380338  0.70891279  0.07488456  1  0.64509  -0.003014  3.899703  -0.006  0.598909  0.001703  4.196391  0.0  0.635451  0.001236  4.191885  0.0  0.210972  0.573081  0.002099  4.198225  0.0
C  C80  1  0.20606746  0.55625313  0.59269848  1  0.214308  0.000794  3.644703  0.001  0.159229  -0.003733  3.914517  -0.005  0.17388  -0.002892  3.928959  -0.004  0.142315  0.149227  -0.004527  3.904271  -0.005
C  C81  1  0.70606516  0.94374349  0.90730126  1  0.214249  -0.001044  3.644902  -0.001  0.159156  0.003539  3.914688  0.004  0.173808  0.00268  3.929126  0.003  0.142293  0.149147  0.004367  3.904448  0.005
C  C82  1  0.79393310  0.44374151  0.40730235  1  0.214278  -0.000891  3.644809  -0.001  0.159194  0.003694  3.91461  0.005  0.173845  0.002857  3.929052  0.004  0.142356  0.149189  0.004502  3.904357  0.005
C  C83  1  0.29393310  0.05625860  0.09269813  1  0.21423  -0.001041  3.644791  -0.001  0.159174  0.003524  3.914588  0.004  0.173824  0.002666  3.929027  0.003  0.142353  0.149171  0.004361  3.904348  0.005
C  C84  1  0.34882235  0.48207446  0.67471517  1  -0.013297  -0.004341  3.708751  -0.006  -0.050139  -0.001823  3.964562  -0.002  -0.048962  -0.001148  3.985076  -0.002  -0.000988  -0.050467  -0.002521  3.950952  -0.003
C  C85  1  0.84882059  0.01792238  0.82528448  1  -0.013163  0.004165  3.708799  0.005  -0.050024  0.001792  3.964577  0.002  -0.048844  0.001128  3.985089  0.002  -0.000922  -0.050359  0.002482  3.95096  0.003
C  C86  1  0.65117822  0.51792338  0.32528542  1  -0.013123  0.004197  3.708665  0.006  -0.050026  0.001787  3.964437  0.002  -0.048848  0.001118  3.984951  0.002  -0.000941  -0.050351  0.0025  3.95084  0.003
C  C87  1  0.15117882  0.98207757  0.17471420  1  -0.013211  0.004153  3.708739  0.005  -0.050077  0.001768  3.964526  0.002  -0.048898  0.001108  3.985041  0.002  -0.001004  -0.050405  0.002474  3.950913  0.003
C  C88  1  0.19603901  0.46254915  0.68934121  1  -0.016977  0.00178  3.74492  0.002  -0.045719  -0.001478  4.015783  -0.002  -0.043872  -0.001013  4.037005  -0.002  -0.010881  -0.047976  -0.001899  4.002193  -0.003
C  C89  1  0.69603865  0.03744840  0.81065835  1  -0.017086  -0.001849  3.744946  -0.002  -0.045841  0.001511  4.015831  0.002  -0.043996  0.001034  4.037054  0.002  -0.01091  -0.0481  0.001936  4.002233  0.003
C  C90  1  0.80396040  0.53744761  0.31065876  1  -0.017104  -0.0019  3.744898  -0.002  -0.045858  0.001449  4.015818  0.002  -0.044012  0.000988  4.037037  0.002  -0.010922  -0.048128  0.001882  4.002217  0.003
C  C91  1  0.30396076  0.96255261  0.18934043  1  -0.017094  -0.001852  3.745082  -0.002  -0.04583  0.001493  4.015964  0.002  -0.043984  0.001018  4.037185  0.002  -0.010868  -0.048079  0.00193  4.002372  0.003
C  C92  1  0.71159559  0.40888532  0.74564236  1  0.218749  0.001944  3.650046  0.003  0.15923  -0.002993  3.930349  -0.004  0.175032  -0.002392  3.943014  -0.003  0.13963  0.148153  -0.003579  3.921862  -0.004
C  C93  1  0.21159614  0.09111759  0.75435712  1  0.218579  -0.002054  3.650093  -0.003  0.159089  0.002976  3.930415  0.004  0.174889  0.002376  3.943081  0.003  0.139565  0.148013  0.003562  3.92193  0.004
C  C94  1  0.28840267  0.59111570  0.25435800  1  0.218643  -0.001974  3.650003  -0.003  0.159154  0.003064  3.930331  0.004  0.174944  0.002437  3.943001  0.003  0.13959  0.148079  0.003635  3.92184  0.005
C  C95  1  0.78840212  0.90888344  0.24564376  1  0.218528  -0.001988  3.650024  -0.003  0.159052  0.003062  3.930352  0.004  0.174851  0.002437  3.943016  0.003  0.139521  0.147978  0.003638  3.921868  0.005
C  C96  1  0.61036244  0.60876321  0.80575551  1  -0.021689  -0.003059  3.688128  -0.004  -0.058703  -0.000942  3.95257  -0.001  -0.058268  -0.00044  3.971238  -0.001  -0.00145  -0.058752  -0.001397  3.940041  -0.002
C  C97  1  0.11036364  0.89123853  0.69424492  1  -0.021693  0.002929  3.688092  0.004  -0.058699  0.000918  3.95254  0.001  -0.058264  0.000428  3.971205  0.001  -0.001415  -0.058742  0.001381  3.940005  0.002
C  C98  1  0.38963697  0.39123891  0.19424652  1  -0.02173  0.002868  3.688001  0.004  -0.058727  0.000919  3.952449  0.001  -0.058299  0.000367  3.97112  0.001  -0.001434  -0.058777  0.001487  3.939927  0.002
C  C99  1  0.88963808  0.10876144  0.30575639  1  -0.021699  0.0029  3.688178  0.004  -0.058699  0.000935  3.95261  0.001  -0.058265  0.000374  3.971279  0.001  -0.001444  -0.058742  0.001496  3.940077  0.002
C  C100  1  0.69769717  0.63945117  0.75036727  1  0.011688  0.000959  3.712267  0.001  -0.018463  -0.001941  3.979288  -0.003  -0.015275  -0.001477  4.000096  -0.002  0.000351  -0.021063  -0.002406  3.965395  -0.003
C  C101  1  0.19769876  0.86054969  0.74963235  1  0.0117  -0.001027  3.712124  -0.001  -0.018457  0.001928  3.979154  0.003  -0.015262  0.001467  3.999966  0.002  0.000364  -0.02106  0.002393  3.965266  0.003
C  C102  1  0.30230109  0.36054987  0.24963361  1  0.011712  -0.000994  3.712347  -0.001  -0.018436  0.001972  3.979354  0.003  -0.015239  0.001481  4.000165  0.002  0.000363  -0.021038  0.002439  3.965464  0.003
C  C103  1  0.80230181  0.13945028  0.25036843  1  0.011727  -0.001013  3.712204  -0.001  -0.018424  0.001974  3.979235  0.003  -0.015229  0.001483  4.000046  0.002  0.000395  -0.021025  0.002441  3.965348  0.003
N  N104  1  0.53755740  0.96244034  0.37113105  1  0.494106  -1.9e-05  3.910367  0.0  0.520828  -7.5e-05  4.211779  0.0  0.541458  -5.7e-05  4.221751  0.0  0.053637  0.507046  -5.6e-05  4.204981  0.0
N  N105  1  0.03755806  0.53755822  0.12886811  1  0.494011  -0.000101  3.910589  0.0  0.520725  8.7e-05  4.21201  0.0  0.541358  6.3e-05  4.221976  0.0  0.053517  0.506943  6.6e-05  4.2052  0.0
N  N106  1  0.46244317  0.03755428  0.62886821  1  0.494142  -5.8e-05  3.910668  0.0  0.52086  8.3e-05  4.212072  0.0  0.541494  5.9e-05  4.22204  0.0  0.053613  0.507077  8.5e-05  4.205267  0.0
N  N107  1  0.96244251  0.46244493  0.87113138  1  0.494219  -3e-05  3.910722  0.0  0.520889  7.6e-05  4.212125  0.0  0.541522  6.6e-05  4.222094  0.0  0.053597  0.507105  3e-05  4.205324  0.0
N  N108  1  0.10797280  0.50948743  0.63765849  1  -0.396658  -0.048416  3.36458  -0.069  -0.347752  -0.033664  3.68359  -0.04  -0.379971  -0.026608  3.700041  -0.03  -0.375407  -0.32326  -0.04005  3.671428  -0.048
N  N109  1  0.60797120  0.99051004  0.86234157  1  -0.396601  0.046855  3.364637  0.069  -0.347686  0.03342  3.683577  0.04  -0.379908  0.026383  3.700039  0.03  -0.375384  -0.323206  0.039842  3.671416  0.048
N  N110  1  0.89202891  0.49050935  0.36234253  1  -0.396621  0.04685  3.364608  0.069  -0.347705  0.033392  3.683569  0.04  -0.379912  0.026361  3.700015  0.03  -0.375412  -0.323209  0.039824  3.6714  0.048
N  N111  1  0.39202706  0.00949205  0.13765889  1  -0.396617  0.046842  3.364726  0.069  -0.347735  0.033394  3.683696  0.04  -0.379944  0.026362  3.700144  0.03  -0.375415  -0.323241  0.039817  3.671528  0.048
N  N112  1  0.35237794  0.54075554  0.61392275  1  -0.273204  -0.002326  3.449773  -0.004  -0.202041  -0.002583  3.676592  -0.004  -0.217906  -0.00188  3.69113  -0.003  -0.372482  -0.19124  -0.003225  3.666817  -0.005
N  N113  1  0.85237479  0.95924354  0.88607686  1  -0.273153  0.002263  3.449997  0.004  -0.201926  0.002544  3.676742  0.004  -0.217793  0.001844  3.691281  0.003  -0.372454  -0.191128  0.003213  3.666968  0.005
N  N114  1  0.64762147  0.45924019  0.38607923  1  -0.273206  0.002248  3.449843  0.004  -0.202002  0.002545  3.676635  0.004  -0.217867  0.001848  3.69117  0.003  -0.372482  -0.191201  0.003185  3.66686  0.005
N  N115  1  0.14762347  0.04075640  0.11392129  1  -0.273172  0.002257  3.449864  0.004  -0.201948  0.002524  3.676617  0.004  -0.217812  0.001826  3.691153  0.003  -0.372458  -0.191149  0.00319  3.666849  0.005
N  N116  1  0.76028969  0.51370843  0.71311358  1  -0.399603  -0.044073  3.348707  -0.062  -0.352929  -0.030559  3.677966  -0.035  -0.383269  -0.024144  3.689647  -0.025  -0.37135  -0.330078  -0.036304  3.669566  -0.042
N  N117  1  0.26029131  0.98629471  0.78688662  1  -0.399567  0.042652  3.348607  0.062  -0.352897  0.030336  3.677806  0.035  -0.383231  0.023943  3.689484  0.025  -0.371362  -0.330061  0.03613  3.669409  0.042
N  N118  1  0.23970741  0.48629261  0.28688730  1  -0.399603  0.042646  3.348845  0.062  -0.352943  0.030345  3.678056  0.035  -0.383258  0.023945  3.68972  0.025  -0.371372  -0.330085  0.036151  3.669638  0.042
N  N119  1  0.73970695  0.01370951  0.21311350  1  -0.399498  0.042657  3.348672  0.062  -0.352862  0.030356  3.677904  0.035  -0.383179  0.023952  3.689561  0.025  -0.37132  -0.330014  0.036158  3.669506  0.042
N  N120  1  0.62092728  0.46310082  0.80193733  1  -0.297697  -0.002365  3.463408  -0.004  -0.228177  -0.002654  3.69516  -0.004  -0.244519  -0.002067  3.709818  -0.003  -0.382095  -0.217373  -0.0032  3.685846  -0.005
N  N121  1  0.12092944  0.03689977  0.69806320  1  -0.29766  0.002278  3.463507  0.004  -0.228149  0.002619  3.695255  0.004  -0.244487  0.002041  3.70991  0.003  -0.382096  -0.217348  0.003182  3.685944  0.005
N  N122  1  0.37906982  0.53690021  0.19806302  1  -0.297578  0.002328  3.463286  0.004  -0.228112  0.002657  3.695084  0.004  -0.244438  0.002027  3.709743  0.003  -0.382089  -0.217309  0.003303  3.685774  0.005
N  N123  1  0.87907227  0.96309914  0.30193801  1  -0.297775  0.002343  3.46341  0.004  -0.228247  0.002672  3.695135  0.004  -0.244587  0.002035  3.709794  0.003  -0.382101  -0.217444  0.003304  3.685822  0.005
O  O124  1  0.85420604  0.67224136  0.58727418  1  -0.631957  -0.056071  2.071504  -0.09  -0.591755  -0.04014  2.353773  -0.06  -0.634485  -0.030667  2.341289  -0.045  -0.325941  -0.557813  -0.049469  2.360304  -0.074
O  O125  1  0.35419869  0.82775984  0.91272404  1  -0.63202  0.054165  2.071606  0.09  -0.591764  0.039798  2.353811  0.06  -0.634494  0.030348  2.341338  0.045  -0.325976  -0.55783  0.049205  2.360343  0.074
O  O126  1  0.14580375  0.32775648  0.41272641  1  -0.631926  0.054264  2.071731  0.09  -0.591696  0.03988  2.353895  0.06  -0.634409  0.030429  2.341417  0.045  -0.325915  -0.557751  0.04928  2.360416  0.074
O  O127  1  0.64579841  0.17224224  0.08727483  1  -0.631943  0.054195  2.071641  0.09  -0.591736  0.039834  2.35383  0.06  -0.634452  0.030372  2.34135  0.045  -0.325966  -0.557787  0.049264  2.360357  0.074
O  O128  1  0.61413127  0.61068970  0.54636516  1  -0.590706  -0.002619  1.9723  -0.005  -0.553678  -0.004344  2.204433  -0.007  -0.577578  -0.003031  2.195315  -0.005  -0.303215  -0.536405  -0.004958  2.210343  -0.008
O  O129  1  0.11413405  0.88931312  0.95363589  1  -0.590659  0.002492  1.972483  0.005  -0.553581  0.004254  2.204623  0.007  -0.57748  0.002952  2.195511  0.005  -0.303096  -0.536306  0.004888  2.210538  0.008
O  O130  1  0.38586930  0.38931029  0.45363773  1  -0.590658  0.002534  1.972462  0.005  -0.553615  0.004314  2.204549  0.007  -0.577514  0.003006  2.19543  0.005  -0.303132  -0.536339  0.004938  2.210458  0.008
O  O131  1  0.88586882  0.11068896  0.04636298  1  -0.590663  0.002495  1.972557  0.005  -0.553637  0.004259  2.204657  0.007  -0.577533  0.002956  2.195543  0.005  -0.303157  -0.53636  0.004897  2.210571  0.008
O  O132  1  0.82168239  0.32718622  0.55483384  1  -0.605284  -0.0537  2.079679  -0.084  -0.564533  -0.038466  2.360033  -0.055  -0.606494  -0.029068  2.347353  -0.04  -0.314717  -0.532093  -0.047434  2.367957  -0.069
O  O133  1  0.32168793  0.17281484  0.94516836  1  -0.605452  0.051918  2.079862  0.084  -0.564617  0.038085  2.360144  0.055  -0.606576  0.028723  2.347466  0.04  -0.314744  -0.532189  0.047134  2.368072  0.069
O  O134  1  0.17831933  0.67280629  0.44516680  1  -0.605265  0.052015  2.079648  0.084  -0.564484  0.038223  2.359947  0.055  -0.60643  0.028842  2.347271  0.04  -0.314654  -0.532034  0.047264  2.367856  0.069
O  O135  1  0.67831609  0.82718939  0.05483228  1  -0.605298  0.05196  2.07964  0.084  -0.564473  0.038119  2.359935  0.055  -0.606422  0.02874  2.347249  0.04  -0.314624  -0.532033  0.047197  2.367857  0.069
O  O136  1  0.93354916  0.20344716  0.63029277  1  -0.613115  -0.005487  1.953118  -0.008  -0.572499  -0.007879  2.181453  -0.012  -0.599154  -0.006022  2.17377  -0.009  -0.308592  -0.552525  -0.010434  2.18586  -0.016
O  O137  1  0.43355027  0.29655093  0.86970732  1  -0.61309  0.005305  1.953113  0.008  -0.572465  0.007829  2.181511  0.012  -0.599119  0.00598  2.173826  0.009  -0.308539  -0.552494  0.010386  2.185923  0.016
O  O138  1  0.06644679  0.79655068  0.36970835  1  -0.613095  0.005536  1.953135  0.009  -0.572457  0.007983  2.181491  0.012  -0.599109  0.006063  2.173805  0.009  -0.308537  -0.552486  0.010652  2.185901  0.016
O  O139  1  0.56644799  0.70344794  0.13029074  1  -0.61293  0.005536  1.95319  0.009  -0.572313  0.007996  2.181584  0.012  -0.59896  0.006075  2.173899  0.009  -0.308474  -0.552343  0.010666  2.185996  0.016
O  O140  1  0.52183050  0.07944561  0.35252963  1  -0.34427  -0.000291  1.763184  0.0  -0.325222  -0.000184  1.971834  0.0  -0.336859  -0.000169  1.971281  0.0  -0.11509  -0.317324  -0.00023  1.972217  0.0
O  O141  1  0.02183234  0.42055494  0.14746997  1  -0.344203  3.4e-05  1.763294  0.0  -0.32516  -9.5e-05  1.971972  0.0  -0.336801  -9.4e-05  1.971418  0.0  -0.11504  -0.317264  -9.3e-05  1.97235  0.0
O  O142  1  0.47816891  0.92055010  0.64747129  1  -0.344284  0.000117  1.763378  0.0  -0.325242  -2.7e-05  1.972039  0.0  -0.336882  -3.9e-05  1.971485  0.0  -0.115086  -0.317345  1.6e-05  1.972418  0.0
O  O143  1  0.97816822  0.57945031  0.85252761  1  -0.344362  0.000205  1.763347  0.0  -0.325318  0.00012  1.972031  0.0  -0.336958  0.000116  1.971478  0.0  -0.115113  -0.317421  0.000123  1.972413  0.0
O  O144  1  0.47677527  0.84972385  0.33979523  1  -0.380174  -0.000253  1.765477  0.0  -0.361591  -7.8e-05  1.982353  0.0  -0.375673  -5.3e-05  1.980738  0.0  -0.130743  -0.35211  -5.3e-05  1.983469  0.0
O  O145  1  0.97677708  0.65027569  0.16020454  1  -0.380154  0.000186  1.765489  0.0  -0.361575  4e-06  1.982362  0.0  -0.375659  -3.8e-05  1.980745  0.0  -0.130714  -0.352092  -1.7e-05  1.983475  0.0
O  O146  1  0.52322299  0.15027291  0.66020474  1  -0.380226  0.000278  1.765577  0.0  -0.361664  0.000113  1.982483  0.0  -0.375748  6.3e-05  1.980864  0.0  -0.13076  -0.352184  0.000126  1.983599  0.0
O  O147  1  0.02322464  0.34972852  0.83979453  1  -0.380156  0.000155  1.765543  0.0  -0.361586  -3.2e-05  1.982451  0.0  -0.375669  -5.1e-05  1.980832  0.0  -0.130701  -0.352102  -9.3e-05  1.983563  0.0
