# generated using pymatgen
data_MnH16C16(NO)6
_symmetry_space_group_name_H-M   'P 1'
_cell_length_a   6.93521752
_cell_length_b   7.90566622
_cell_length_c   16.10781004
_cell_angle_alpha   90.31998164
_cell_angle_beta   90.00032474
_cell_angle_gamma   89.99982512
_symmetry_Int_Tables_number   1
_chemical_formula_structural   MnH16C16(NO)6
_chemical_formula_sum   'Mn2 H32 C32 N12 O12'
_cell_volume   883.13742182
_cell_formula_units_Z   2
loop_
 _symmetry_equiv_pos_site_id
 _symmetry_equiv_pos_as_xyz
  1  'x, y, z'
loop_
 _atom_site_type_symbol
 _atom_site_label
 _atom_site_symmetry_multiplicity
 _atom_site_fract_x
 _atom_site_fract_y
 _atom_site_fract_z
 _atom_site_occupancy
 _atom_site_hle17_ddec_charge
 _atom_site_hle17_ddec_spin_density
 _atom_site_hle17_ddec_sum_bond_order
 _atom_site_hle17_magmom
 _atom_site_hse06_10hf_ddec_charge
 _atom_site_hse06_10hf_ddec_spin_density
 _atom_site_hse06_10hf_ddec_sum_bond_order
 _atom_site_hse06_10hf_magmom
 _atom_site_hse06_ddec_charge
 _atom_site_hse06_ddec_spin_density
 _atom_site_hse06_ddec_sum_bond_order
 _atom_site_hse06_magmom
 _atom_site_pbe_cm5_charge
 _atom_site_pbe_ddec_charge
 _atom_site_pbe_ddec_spin_density
 _atom_site_pbe_ddec_sum_bond_order
 _atom_site_pbe_magmom
Mn  Mn0  1  0.50000114  0.49999889  0.50000007  1  1.264828  -4.795992  1.693086  -4.694  1.113569  -4.71876  2.179834  -4.56  1.169438  -4.76171  2.10739  -4.617  0.590703  1.070212  -4.673643  2.232875  -4.504
Mn  Mn1  1  0.00000186  0.00000000  0.50000057  1  1.264839  4.795935  1.693321  4.694  1.113597  4.718699  2.180084  4.56  1.169459  4.761659  2.107637  4.617  0.590621  1.07027  4.673568  2.233115  4.503
H  H2  1  0.68938692  0.63541716  0.35236362  1  0.397197  -0.000278  0.911093  -0.002  0.355642  -0.000904  0.993346  -0.002  0.366583  -0.000618  0.977453  -0.002  0.291707  0.347809  -0.001174  1.004682  -0.003
H  H3  1  0.18938395  0.86458157  0.64763776  1  0.39718  0.000278  0.911103  0.002  0.355627  0.000904  0.993366  0.002  0.366567  0.000618  0.977474  0.002  0.291696  0.347793  0.001175  1.004703  0.003
H  H4  1  0.31061681  0.36458315  0.64763777  1  0.397182  -0.000278  0.911111  -0.002  0.355632  -0.000904  0.993361  -0.002  0.366573  -0.000618  0.977467  -0.002  0.2917  0.347798  -0.001174  1.004697  -0.003
H  H5  1  0.81061833  0.13541494  0.35236301  1  0.397184  0.000278  0.911093  0.002  0.355639  0.000904  0.993349  0.002  0.366578  0.000618  0.977457  0.002  0.291708  0.347805  0.001175  1.004686  0.003
H  H6  1  0.66223307  0.75713771  0.43178210  1  0.416012  -0.000804  0.889274  0.0  0.382708  -0.001551  0.960128  -0.001  0.394356  -0.001348  0.943195  -0.001  0.294604  0.374496  -0.001712  0.972015  -0.001
H  H7  1  0.16222805  0.74285982  0.56821860  1  0.416042  0.000803  0.889174  0.0  0.382737  0.001551  0.960069  0.001  0.394384  0.001347  0.943136  0.001  0.294626  0.374522  0.001713  0.971961  0.001
H  H8  1  0.33776922  0.24286259  0.56821868  1  0.416042  -0.000805  0.889219  0.0  0.382708  -0.00155  0.960119  -0.001  0.394354  -0.001347  0.943189  -0.001  0.294592  0.374498  -0.001712  0.972003  -0.001
H  H9  1  0.83777280  0.25713543  0.43178217  1  0.416085  0.000804  0.889188  0.0  0.382746  0.001551  0.960073  0.001  0.394391  0.001347  0.943142  0.001  0.294608  0.37453  0.001712  0.971967  0.001
H  H10  1  0.77571763  0.00356807  0.66571469  1  0.130776  -0.000149  0.927577  0.0  0.141673  -0.000167  0.990728  0.0  0.144476  -0.000186  0.989181  0.0  0.129453  0.139625  -0.000138  0.991942  0.0
H  H11  1  0.27572158  0.49642503  0.33428289  1  0.130793  0.00015  0.927491  0.0  0.14168  0.000167  0.990663  0.0  0.144484  0.000185  0.989113  0.0  0.129463  0.139633  0.000139  0.991874  0.0
H  H12  1  0.22427601  0.99643602  0.33428485  1  0.130808  -0.000156  0.927522  0.0  0.141696  -0.000167  0.990699  0.0  0.1445  -0.000186  0.98915  0.0  0.129489  0.139651  -0.000138  0.99191  0.0
H  H13  1  0.72428503  0.50357021  0.66571725  1  0.130744  0.000142  0.927532  0.0  0.141633  0.000168  0.9907  0.0  0.144435  0.000186  0.989155  0.0  0.129441  0.139589  0.000138  0.991912  0.0
H  H14  1  0.54533376  0.07773514  0.63723166  1  0.132303  0.000149  0.931853  0.0  0.143039  -3e-05  0.995507  0.0  0.146263  3.9e-05  0.99289  0.0  0.127176  0.140457  -9.1e-05  0.997746  0.0
H  H15  1  0.04533403  0.42226742  0.36276848  1  0.132325  -0.000154  0.931857  0.0  0.143054  3.1e-05  0.995511  0.0  0.14628  -3.9e-05  0.992892  0.0  0.127192  0.140469  9.2e-05  0.997748  0.0
H  H16  1  0.45465843  0.92226641  0.36276539  1  0.132305  0.000146  0.931881  0.0  0.143048  -3e-05  0.995522  0.0  0.146272  3.9e-05  0.992906  0.0  0.127194  0.140462  -9.1e-05  0.997762  0.0
H  H17  1  0.95466826  0.57773416  0.63723354  1  0.132335  -0.000154  0.931807  0.0  0.143073  3.1e-05  0.995451  0.0  0.14631  -4e-05  0.99282  0.0  0.127186  0.140486  9.2e-05  0.997694  0.0
H  H18  1  0.95364924  0.82821418  0.76816253  1  0.116937  -8.6e-05  0.959006  0.0  0.121958  -8e-05  1.027418  0.0  0.125349  -0.0001  1.025415  0.0  0.107508  0.119364  -5.8e-05  1.029223  0.0
H  H19  1  0.45364435  0.67178766  0.23183701  1  0.11697  8.6e-05  0.959022  0.0  0.121993  8.1e-05  1.027424  0.0  0.125389  9.9e-05  1.025406  0.0  0.107519  0.119401  5.8e-05  1.029225  0.0
H  H20  1  0.04634152  0.17178737  0.23183390  1  0.116956  -8.8e-05  0.958923  0.0  0.121973  -8.1e-05  1.027352  0.0  0.12536  -9.9e-05  1.025361  0.0  0.107515  0.119377  -5.8e-05  1.029156  0.0
H  H21  1  0.54636371  0.32821265  0.76816438  1  0.117062  8.3e-05  0.958951  0.0  0.122085  8e-05  1.027346  0.0  0.125474  0.0001  1.025347  0.0  0.107547  0.119494  5.8e-05  1.029146  0.0
H  H22  1  0.02690510  0.67813364  0.89727204  1  0.091961  2e-06  0.957013  0.0  0.09834  1e-06  1.025986  0.0  0.101294  1e-06  1.024183  0.0  0.099169  0.096225  1e-06  1.027279  0.0
H  H23  1  0.52690265  0.82186803  0.10272957  1  0.091945  4e-06  0.957045  0.0  0.098337  -1e-06  1.026003  0.0  0.101292  -1e-06  1.024197  0.0  0.099161  0.096219  -1e-06  1.027295  0.0
H  H24  1  0.97308854  0.32187044  0.10272563  1  0.091914  -1e-06  0.957113  0.0  0.098316  1e-06  1.02606  0.0  0.101268  1e-06  1.024257  0.0  0.099151  0.096199  1e-06  1.027354  0.0
H  H25  1  0.47309820  0.17813481  0.89727183  1  0.091949  3e-06  0.957042  0.0  0.098363  -1e-06  1.025951  0.0  0.10132  -1e-06  1.024143  0.0  0.099175  0.096241  -1e-06  1.027248  0.0
H  H26  1  0.76839959  0.57785975  0.99143666  1  0.087565  2e-06  0.954557  0.0  0.100875  -0.0  1.011766  0.0  0.103246  -0.0  1.011518  0.0  0.098972  0.099154  -1e-06  1.012097  0.0
H  H27  1  0.26839517  0.92214129  0.00856243  1  0.087576  -2e-06  0.954552  0.0  0.100857  0.0  1.011796  0.0  0.103228  0.0  1.011549  0.0  0.09897  0.099129  1e-06  1.012131  0.0
H  H28  1  0.23159694  0.42213927  0.00856162  1  0.087565  0.0  0.954535  0.0  0.100842  -0.0  1.011786  0.0  0.10321  -0.0  1.011542  0.0  0.098965  0.099117  -1e-06  1.01212  0.0
H  H29  1  0.73160856  0.07786029  0.99144020  1  0.087585  -2e-06  0.954511  0.0  0.10087  0.0  1.01175  0.0  0.10324  0.0  1.011502  0.0  0.098962  0.099145  1e-06  1.012079  0.0
H  H30  1  0.42072885  0.62446889  0.95728403  1  0.102739  -3e-06  0.965168  0.0  0.114564  -1e-06  1.024755  0.0  0.117017  -1e-06  1.023874  0.0  0.105189  0.112779  -1e-06  1.025492  0.0
H  H31  1  0.92072686  0.87553175  0.04271420  1  0.102733  2e-06  0.965234  0.0  0.11457  1e-06  1.024812  0.0  0.117019  1e-06  1.023929  0.0  0.105188  0.112788  1e-06  1.025552  0.0
H  H32  1  0.57926623  0.37553012  0.04271178  1  0.102689  -1e-06  0.965198  0.0  0.114488  -1e-06  1.024819  0.0  0.116935  -1e-06  1.023935  0.0  0.105175  0.112708  -1e-06  1.025552  0.0
H  H33  1  0.07927687  0.12446729  0.95728844  1  0.102729  1e-06  0.965206  0.0  0.114565  1e-06  1.024788  0.0  0.117014  1e-06  1.023905  0.0  0.105178  0.112789  1e-06  1.025525  0.0
C  C34  1  0.62646716  0.84321597  0.57816935  1  0.725075  0.002179  3.798598  0.002  0.668754  0.002868  4.105867  0.003  0.704431  0.001745  4.097672  0.002  0.236685  0.643612  0.004549  4.110845  0.004
C  C35  1  0.12649079  0.65676396  0.42183433  1  0.724799  -0.002191  3.798429  -0.002  0.668523  -0.002857  4.10564  -0.003  0.704195  -0.001739  4.097452  -0.002  0.236537  0.643357  -0.004531  4.110637  -0.004
C  C36  1  0.37353369  0.15678307  0.42183080  1  0.725081  0.002183  3.798565  0.002  0.668778  0.002868  4.105796  0.003  0.704456  0.001746  4.097601  0.002  0.236706  0.643631  0.004549  4.110781  0.004
C  C37  1  0.87351726  0.34323509  0.57816706  1  0.724674  -0.002191  3.798621  -0.002  0.668418  -0.002856  4.105785  -0.003  0.70409  -0.001737  4.097597  -0.002  0.236453  0.643251  -0.00453  4.110788  -0.004
C  C38  1  0.62734700  0.96320737  0.65278565  1  -0.193295  -0.001698  3.641808  -0.002  -0.256681  -0.001556  3.895558  -0.001  -0.258587  -0.001328  3.901312  -0.001  -0.047639  -0.255204  -0.001817  3.892111  -0.002
C  C39  1  0.12734701  0.53679277  0.34721310  1  -0.193358  0.001714  3.64181  0.002  -0.256715  0.001554  3.895512  0.001  -0.258619  0.001329  3.901266  0.001  -0.047601  -0.255223  0.001817  3.89205  0.002
C  C40  1  0.37264808  0.03679418  0.34721264  1  -0.193359  -0.001681  3.641719  -0.002  -0.256713  -0.001556  3.895501  -0.001  -0.258618  -0.001329  3.90125  -0.001  -0.047672  -0.255229  -0.001818  3.892054  -0.002
C  C41  1  0.87265816  0.46320501  0.65278829  1  -0.193301  0.001725  3.641926  0.002  -0.256773  0.001554  3.895588  0.001  -0.258686  0.001329  3.901336  0.001  -0.047627  -0.255274  0.001817  3.892107  0.002
C  C42  1  0.64187549  0.81011285  0.78979469  1  0.095243  9.4e-05  3.795903  0.0  0.080832  0.000115  4.040414  0.0  0.085767  0.000106  4.062922  0.0  0.104577  0.07766  0.000135  4.025236  0.0
C  C43  1  0.14186592  0.68988472  0.21020347  1  0.09514  -9.3e-05  3.796136  0.0  0.080842  -0.000115  4.040538  0.0  0.085779  -0.000105  4.063046  0.0  0.10461  0.07767  -0.000135  4.025363  0.0
C  C44  1  0.35811527  0.18988871  0.21020298  1  0.095143  0.0001  3.795777  0.0  0.080782  0.000115  4.040281  0.0  0.085715  0.000105  4.06279  0.0  0.10461  0.077618  0.000135  4.025097  0.0
C  C45  1  0.85813925  0.31011685  0.78979792  1  0.095304  -0.000112  3.795941  0.0  0.080833  -0.000114  4.040473  0.0  0.085767  -0.000107  4.062981  0.0  0.104616  0.077662  -0.000135  4.025303  0.0
C  C46  1  0.83723795  0.78438207  0.80787210  1  -0.139199  -5.6e-05  3.736828  0.0  -0.160372  5e-06  4.000523  0.0  -0.164563  -2.9e-05  4.020532  0.0  -0.092172  -0.157658  3.6e-05  3.987304  0.0
C  C47  1  0.33723670  0.71561753  0.19212716  1  -0.139329  7e-05  3.736844  0.0  -0.16053  -6e-06  4.000529  0.0  -0.164719  3.1e-05  4.020539  0.0  -0.092223  -0.157812  -3.6e-05  3.987297  0.0
C  C48  1  0.16275858  0.21562327  0.19212496  1  -0.139265  -6.2e-05  3.736928  0.0  -0.160442  6e-06  4.000625  0.0  -0.164633  -3.1e-05  4.020627  0.0  -0.092224  -0.157726  3.6e-05  3.987398  0.0
C  C49  1  0.66276847  0.28438278  0.80787485  1  -0.139612  8.9e-05  3.736922  0.0  -0.160801  -5e-06  4.000665  0.0  -0.164994  2.9e-05  4.020672  0.0  -0.092334  -0.158089  -3.6e-05  3.987444  0.0
C  C50  1  0.87645725  0.69962484  0.88106984  1  -0.050932  0.000101  3.764426  0.0  -0.072148  0.000156  4.028681  0.0  -0.072104  0.000126  4.049997  0.0  -0.088568  -0.071948  0.000219  4.014119  0.0
C  C51  1  0.37645041  0.80037593  0.11892951  1  -0.050876  -0.000128  3.764551  0.0  -0.072091  -0.000154  4.028791  0.0  -0.07205  -0.000127  4.050113  0.0  -0.088566  -0.071888  -0.000219  4.014213  0.0
C  C52  1  0.12353639  0.30037799  0.11892907  1  -0.050892  0.000115  3.764689  0.0  -0.072117  0.000154  4.0289  0.0  -0.072073  0.000128  4.050214  0.0  -0.088543  -0.071918  0.000219  4.014333  0.0
C  C53  1  0.62355476  0.19962565  0.88107374  1  -0.050803  -0.000136  3.764672  0.0  -0.071997  -0.000155  4.028848  0.0  -0.071955  -0.000127  4.050169  0.0  -0.088517  -0.071787  -0.000219  4.014276  0.0
C  C54  1  0.72810043  0.64291369  0.93451878  1  -0.088001  -4e-05  3.785495  0.0  -0.103674  -2.6e-05  4.040533  0.0  -0.108063  -4.2e-05  4.064456  0.0  -0.096594  -0.100756  -1.8e-05  4.024265  0.0
C  C55  1  0.22810133  0.85708746  0.06547960  1  -0.088024  6.1e-05  3.785468  0.0  -0.103679  2.6e-05  4.040512  0.0  -0.108071  4.2e-05  4.064437  0.0  -0.096636  -0.100751  1.8e-05  4.024231  0.0
C  C56  1  0.27189754  0.35708660  0.06547889  1  -0.087971  -5.1e-05  3.7855  0.0  -0.103627  -2.7e-05  4.040541  0.0  -0.108015  -4.2e-05  4.064464  0.0  -0.096607  -0.100705  -1.8e-05  4.024265  0.0
C  C57  1  0.77190096  0.14291538  0.93452180  1  -0.087982  6.7e-05  3.785526  0.0  -0.103654  2.7e-05  4.040581  0.0  -0.108042  4.1e-05  4.064507  0.0  -0.096628  -0.100724  1.8e-05  4.0243  0.0
C  C58  1  0.53482442  0.66810106  0.91629092  1  -0.116885  7.8e-05  3.732725  0.0  -0.133615  0.000114  3.974738  0.0  -0.134366  9.6e-05  3.995536  0.0  -0.083803  -0.132863  0.000173  3.960542  0.0
C  C59  1  0.03481556  0.83189932  0.08370699  1  -0.116965  -0.000101  3.732603  0.0  -0.133694  -0.000115  3.974618  0.0  -0.13444  -9.5e-05  3.995418  0.0  -0.083768  -0.132938  -0.000172  3.960425  0.0
C  C60  1  0.46516922  0.33189671  0.08370799  1  -0.116889  9.2e-05  3.732913  0.0  -0.133615  0.000115  3.974929  0.0  -0.134349  9.5e-05  3.995707  0.0  -0.083767  -0.132865  0.000173  3.960737  0.0
C  C61  1  0.96518673  0.16810479  0.91629565  1  -0.117047  -0.000108  3.732585  0.0  -0.133752  -0.000115  3.974682  0.0  -0.134485  -9.5e-05  3.995452  0.0  -0.083738  -0.133007  -0.000172  3.960495  0.0
C  C62  1  0.49173501  0.75334501  0.84227940  1  0.099849  -2.7e-05  3.84351  0.0  0.10306  -2.2e-05  4.096987  0.0  0.10175  -3.4e-05  4.119524  0.0  0.088959  0.103716  -1.9e-05  4.081843  0.0
C  C63  1  0.99173355  0.74665292  0.15771961  1  0.100067  4.1e-05  3.843498  0.0  0.103212  2e-05  4.097011  0.0  0.101902  3.8e-05  4.119547  0.0  0.088977  0.103858  1.9e-05  4.08188  0.0
C  C64  1  0.50826007  0.24665526  0.15771640  1  0.099975  -4.2e-05  3.843421  0.0  0.103232  -2.1e-05  4.096799  0.0  0.101924  -3.4e-05  4.119335  0.0  0.08895  0.103878  -1.9e-05  4.081666  0.0
C  C65  1  0.00827306  0.25334992  0.84228365  1  0.100254  5.3e-05  3.843219  0.0  0.103301  2.2e-05  4.096947  0.0  0.101992  3.3e-05  4.119488  0.0  0.089022  0.103953  1.9e-05  4.081813  0.0
N  N66  1  0.54754768  0.88850606  0.72641652  1  0.026382  0.00023  3.563588  0.0  0.102261  7.7e-05  3.790636  0.0  0.089997  9.8e-05  3.816657  0.0  -0.135675  0.110257  4.4e-05  3.77309  0.0
N  N67  1  0.04755077  0.61149301  0.27358018  1  0.026584  -0.000222  3.563507  0.0  0.102357  -6.8e-05  3.790614  0.0  0.090089  -0.000117  3.816642  0.0  -0.135649  0.110345  -4.3e-05  3.773074  0.0
N  N68  1  0.45244596  0.11149677  0.27358302  1  0.026555  0.000212  3.563555  0.0  0.102264  7.3e-05  3.790789  0.0  0.090003  0.000106  3.816809  0.0  -0.135674  0.110255  4.4e-05  3.773248  0.0
N  N69  1  0.95245440  0.38850603  0.72642184  1  0.026382  -0.000231  3.563533  0.0  0.102545  -7.4e-05  3.790264  0.0  0.090285  -9.9e-05  3.816279  0.0  -0.135652  0.110533  -4.3e-05  3.772728  0.0
N  N70  1  0.35364758  0.87789487  0.73806081  1  -0.090055  9.4e-05  2.962501  0.0  -0.074855  0.000345  3.247407  0.0  -0.071297  0.000221  3.254173  0.0  -0.069786  -0.07714  0.000496  3.243081  0.0
N  N71  1  0.85364796  0.62210215  0.26193725  1  -0.090074  -0.000107  2.962475  0.0  -0.074847  -0.000345  3.247399  0.0  -0.07129  -0.000217  3.254167  0.0  -0.069788  -0.07713  -0.000495  3.243072  0.0
N  N72  1  0.64634606  0.12210542  0.26193686  1  -0.090046  0.000101  2.962419  0.0  -0.0748  0.000346  3.247364  0.0  -0.07124  0.000218  3.254128  0.0  -0.069793  -0.077082  0.000496  3.243039  0.0
N  N73  1  0.14635722  0.37789689  0.73806414  1  -0.089944  -7.2e-05  2.962086  0.0  -0.074888  -0.000348  3.246998  0.0  -0.071333  -0.000216  3.253762  0.0  -0.069792  -0.077165  -0.000495  3.242662  0.0
N  N74  1  0.31788290  0.79822893  0.80718440  1  -0.219473  0.000141  2.941575  0.0  -0.213708  0.000278  3.233751  0.0  -0.216448  0.000228  3.243373  0.0  -0.190522  -0.211486  0.000383  3.227309  0.0
N  N75  1  0.81788063  0.70176946  0.19281481  1  -0.219585  -0.000146  2.9416  0.0  -0.213818  -0.000281  3.233793  0.0  -0.216558  -0.000217  3.243416  0.0  -0.190563  -0.211595  -0.000383  3.227356  0.0
N  N76  1  0.68211074  0.20176756  0.19281264  1  -0.219586  0.000154  2.941555  0.0  -0.213835  0.000279  3.233712  0.0  -0.216575  0.000223  3.243331  0.0  -0.190549  -0.211609  0.000383  3.227275  0.0
N  N77  1  0.18212454  0.29823339  0.80718783  1  -0.219674  -0.000167  2.941327  0.0  -0.213846  -0.000276  3.233577  0.0  -0.216587  -0.00023  3.243199  0.0  -0.190534  -0.211618  -0.000383  3.227128  0.0
O  O78  1  0.54342609  0.70197200  0.58593955  1  -0.646139  -0.027447  2.0498  -0.014  -0.580637  -0.030244  2.312257  -0.012  -0.610375  -0.028469  2.298987  -0.011  -0.302461  -0.558913  -0.03177  2.320943  -0.014
O  O79  1  0.04343037  0.79804732  0.41405592  1  -0.646236  0.027463  2.048971  0.014  -0.580695  0.030251  2.311279  0.012  -0.61044  0.028476  2.298013  0.011  -0.302445  -0.558959  0.031778  2.319969  0.014
O  O80  1  0.45657620  0.29802704  0.41406060  1  -0.646144  -0.02745  2.049811  -0.014  -0.580665  -0.030247  2.312279  -0.012  -0.610403  -0.02847  2.299006  -0.011  -0.302462  -0.558933  -0.031772  2.320966  -0.014
O  O81  1  0.95657769  0.20195173  0.58594547  1  -0.646141  0.027461  2.049025  0.014  -0.580623  0.030248  2.311347  0.012  -0.610365  0.028474  2.298076  0.011  -0.302397  -0.558884  0.031773  2.32004  0.014
O  O82  1  0.70836024  0.89627888  0.51225676  1  -0.671978  0.026097  2.055901  0.013  -0.597572  0.03166  2.309142  0.015  -0.628965  0.029247  2.295346  0.013  -0.302435  -0.574807  0.033794  2.318238  0.016
O  O83  1  0.20835321  0.60372735  0.48773723  1  -0.671664  -0.026082  2.056451  -0.013  -0.597269  -0.031651  2.30965  -0.015  -0.628657  -0.029236  2.295862  -0.013  -0.302334  -0.57446  -0.033782  2.318699  -0.016
O  O84  1  0.29164350  0.10372015  0.48774277  1  -0.671982  0.026093  2.055874  0.013  -0.597567  0.03166  2.309102  0.015  -0.628957  0.029246  2.295306  0.013  -0.30245  -0.574805  0.033793  2.318203  0.016
O  O85  1  0.79165052  0.39626916  0.51226353  1  -0.671652  -0.026083  2.056438  -0.013  -0.597253  -0.031651  2.309618  -0.015  -0.628639  -0.029237  2.295831  -0.013  -0.302285  -0.574467  -0.033785  2.318718  -0.016
O  O86  1  0.59886801  0.66626301  0.39805663  1  -0.838481  -0.029699  1.912498  -0.018  -0.777226  -0.038723  2.12922  -0.023  -0.800474  -0.035119  2.092508  -0.02  -0.569695  -0.759515  -0.041969  2.154639  -0.025
O  O87  1  0.09886167  0.83373849  0.60194640  1  -0.838496  0.029699  1.912462  0.018  -0.777244  0.038726  2.129212  0.023  -0.800499  0.035123  2.092524  0.02  -0.569688  -0.759533  0.041972  2.154627  0.025
O  O88  1  0.40113572  0.33373603  0.60194414  1  -0.838508  -0.0297  1.912472  -0.018  -0.777216  -0.038723  2.129234  -0.023  -0.800465  -0.03512  2.092528  -0.02  -0.569681  -0.759509  -0.041971  2.154655  -0.025
O  O89  1  0.90113917  0.16625928  0.39805375  1  -0.83852  0.029699  1.912507  0.018  -0.777234  0.038724  2.129216  0.023  -0.800499  0.035122  2.092554  0.02  -0.569669  -0.759518  0.041969  2.154635  0.025
