# generated using pymatgen
data_Cu2H8C16N4O9
_symmetry_space_group_name_H-M   'P 1'
_cell_length_a   8.52922077
_cell_length_b   9.15904095
_cell_length_c   15.24758750
_cell_angle_alpha   107.49607790
_cell_angle_beta   109.67838076
_cell_angle_gamma   89.90640108
_symmetry_Int_Tables_number   1
_chemical_formula_structural   Cu2H8C16N4O9
_chemical_formula_sum   'Cu4 H16 C32 N8 O18'
_cell_volume   1063.08230891
_cell_formula_units_Z   2
loop_
 _symmetry_equiv_pos_site_id
 _symmetry_equiv_pos_as_xyz
  1  'x, y, z'
loop_
 _atom_site_type_symbol
 _atom_site_label
 _atom_site_symmetry_multiplicity
 _atom_site_fract_x
 _atom_site_fract_y
 _atom_site_fract_z
 _atom_site_occupancy
 _atom_site_hle17_ddec_charge
 _atom_site_hle17_ddec_spin_density
 _atom_site_hle17_ddec_sum_bond_order
 _atom_site_hle17_magmom
 _atom_site_hse06_10hf_bader_charge
 _atom_site_hse06_10hf_bader_spin_density
 _atom_site_hse06_10hf_ddec_charge
 _atom_site_hse06_10hf_ddec_spin_density
 _atom_site_hse06_10hf_ddec_sum_bond_order
 _atom_site_hse06_10hf_magmom
 _atom_site_pbe_cm5_charge
 _atom_site_pbe_ddec_charge
 _atom_site_pbe_ddec_spin_density
 _atom_site_pbe_ddec_sum_bond_order
 _atom_site_pbe_magmom
Cu  Cu0  1  0.92727754  0.79809341  0.57311650  1  0.898548  0.653934  1.786472  0.479  1.172483  0.641277  0.896023  0.795794  2.169117  0.638  0.723244  0.833354  0.637895  2.216458  0.502
Cu  Cu1  1  0.57259022  0.22469136  0.42683212  1  0.899215  0.653562  1.786062  0.479  1.174297  0.64165  0.897178  0.795485  2.167972  0.638  0.723308  0.834784  0.640603  2.215009  0.505
Cu  Cu2  1  0.07272408  0.20192689  0.42688850  1  0.898444  -0.654028  1.786808  -0.479  1.172462  -0.64131  0.895878  -0.79581  2.16947  -0.638  0.723248  0.833209  -0.637906  2.216859  -0.502
Cu  Cu3  1  0.42740779  0.77533005  0.57317249  1  0.899413  -0.653563  1.785705  -0.479  1.174351  -0.641652  0.897356  -0.795493  2.167776  -0.638  0.72338  0.834917  -0.640663  2.2148  -0.505
H  H4  1  0.80428825  0.01467853  0.88459058  1  0.114585  0.000333  0.932224  0.0  0.10823  0.000789  0.124939  0.000398  0.989206  0.0  0.112516  0.122612  0.000427  0.989806  0.0
H  H5  1  0.69672943  0.12988095  0.11554729  1  0.113217  0.000334  0.933542  0.0  0.091431  0.000792  0.123943  0.000398  0.990224  0.0  0.111972  0.121619  0.000425  0.990813  0.0
H  H6  1  0.19573720  0.98530895  0.11542564  1  0.114585  -0.000332  0.932395  0.0  0.108056  -0.000789  0.124905  -0.000399  0.989434  0.0  0.112551  0.122582  -0.000427  0.990031  0.0
H  H7  1  0.30327249  0.87011640  0.88445632  1  0.113133  -0.000333  0.93362  0.0  0.091394  -0.000791  0.123834  -0.000397  0.990343  0.0  0.111938  0.121504  -0.000424  0.990937  0.0
H  H8  1  0.87831441  0.02267041  0.74021052  1  0.104601  0.000753  0.914669  0.001  0.149513  0.001618  0.114782  0.00072  0.968648  0.001  0.12896  0.11189  0.000755  0.971273  0.001
H  H9  1  0.62244503  0.28243558  0.25986595  1  0.10392  0.000756  0.914478  0.001  0.121353  0.001636  0.114281  0.000719  0.968189  0.001  0.128986  0.111401  0.000755  0.970834  0.001
H  H10  1  0.12169563  0.97732380  0.25980503  1  0.104483  -0.000753  0.914378  -0.001  0.14952  -0.001616  0.114678  -0.000719  0.968386  -0.001  0.128925  0.111793  -0.000753  0.971011  -0.001
H  H11  1  0.37754739  0.71755924  0.74012975  1  0.10384  -0.000755  0.914474  -0.001  0.121417  -0.001635  0.114235  -0.000719  0.968186  -0.001  0.128986  0.111342  -0.000755  0.970836  -0.001
H  H12  1  0.98090703  0.56816029  0.68022573  1  0.095468  0.000655  0.922184  0.001  0.115179  0.001512  0.107739  0.000656  0.974909  0.001  0.129415  0.105404  0.000687  0.977314  0.001
H  H13  1  0.52068886  0.88794982  0.31980788  1  0.09391  0.000658  0.924081  0.001  0.126136  0.0015  0.106107  0.000654  0.976842  0.001  0.128594  0.103811  0.000687  0.979258  0.001
H  H14  1  0.01909244  0.43185192  0.31977683  1  0.09555  -0.000655  0.922064  -0.001  0.115161  -0.001508  0.107798  -0.000654  0.974787  -0.001  0.129396  0.105464  -0.000685  0.977194  -0.001
H  H15  1  0.47929220  0.11203894  0.68017636  1  0.093909  -0.000657  0.923845  -0.001  0.126577  -0.001499  0.106054  -0.000654  0.976687  -0.001  0.128574  0.103751  -0.000687  0.979109  -0.001
H  H16  1  0.91182597  0.53991397  0.82108922  1  0.130098  0.000329  0.916943  0.0  0.149734  0.000747  0.141076  0.000389  0.969503  0.0  0.124441  0.138012  0.000416  0.971783  0.0
H  H17  1  0.58984822  0.71878959  0.17895061  1  0.13009  0.000326  0.917425  0.0  0.124769  0.000762  0.14057  0.00039  0.970412  0.0  0.124516  0.137508  0.000419  0.9727  0.0
H  H18  1  0.08817585  0.46006934  0.17889942  1  0.130162  -0.000327  0.91699  0.0  0.149769  -0.000747  0.141173  -0.000389  0.969523  0.0  0.124453  0.138111  -0.000416  0.971799  0.0
H  H19  1  0.41013797  0.28120853  0.82104071  1  0.130111  -0.000326  0.917391  0.0  0.124731  -0.000761  0.140607  -0.000389  0.970353  0.0  0.124519  0.137539  -0.000419  0.972647  0.0
C  C20  1  0.85048436  0.77484942  0.86336313  1  0.033822  -0.005694  3.80658  -0.006  -0.022621  -0.003337  0.045669  -0.002142  4.047245  -0.002  0.010723  0.043236  -0.001769  4.034725  -0.002
C  C21  1  0.65053159  0.91134842  0.13659651  1  0.035494  -0.005793  3.80691  -0.006  -0.009129  -0.00342  0.047267  -0.002194  4.047331  -0.002  0.010704  0.044858  -0.001837  4.034795  -0.002
C  C22  1  0.14952227  0.22513867  0.13663371  1  0.033802  0.005717  3.807261  0.006  -0.022635  0.003338  0.045801  0.002142  4.047754  0.002  0.010812  0.043391  0.001771  4.035258  0.002
C  C23  1  0.34946774  0.08863849  0.86340221  1  0.035379  0.005789  3.807496  0.006  -0.009435  0.00342  0.04703  0.002194  4.048149  0.002  0.010706  0.044618  0.001838  4.035626  0.002
C  C24  1  0.84465782  0.91372934  0.84181058  1  -0.135881  0.007209  3.691078  0.008  0.010577  0.004812  -0.165564  0.003106  3.95328  0.004  -0.081764  -0.161449  0.002709  3.941169  0.003
C  C25  1  0.65621788  0.07180008  0.15824286  1  -0.13353  0.007281  3.690027  0.008  0.045463  0.004811  -0.163694  0.003126  3.952222  0.004  -0.080751  -0.159598  0.002742  3.940143  0.003
C  C26  1  0.15538515  0.08627413  0.15819361  1  -0.135996  -0.007232  3.691341  -0.008  0.011737  -0.004808  -0.165721  -0.003104  3.953562  -0.004  -0.081986  -0.161611  -0.002707  3.941475  -0.003
C  C27  1  0.34375082  0.92819358  0.84176319  1  -0.133208  -0.007277  3.689873  -0.008  0.046097  -0.004809  -0.163298  -0.003125  3.952157  -0.004  -0.080668  -0.159207  -0.002741  3.940076  -0.003
C  C28  1  0.88543846  0.91929312  0.76196194  1  0.147812  -0.005328  3.667882  -0.006  0.505774  -0.001852  0.118196  -0.000594  3.9327  -0.001  0.055963  0.111451  0.000127  3.923794  0.0
C  C29  1  0.61549696  0.15730177  0.23813481  1  0.147865  -0.005402  3.665645  -0.006  0.508246  -0.001899  0.118154  -0.000623  3.930142  -0.001  0.05599  0.11141  9.1e-05  3.921372  0.0
C  C30  1  0.11460214  0.08071484  0.23803873  1  0.148136  0.005353  3.666398  0.006  0.50453  0.001849  0.118511  0.000592  3.931233  0.001  0.056028  0.111763  -0.000128  3.922351  0.0
C  C31  1  0.38449457  0.84271388  0.76187165  1  0.147902  0.005401  3.665237  0.006  0.507786  0.001898  0.118124  0.000622  3.929864  0.001  0.055908  0.111376  -9.2e-05  3.921089  0.0
C  C32  1  0.94290704  0.66471268  0.72773649  1  0.147438  -0.005487  3.670825  -0.006  0.579578  -0.002152  0.118954  -0.000857  3.928022  -0.002  0.059729  0.111118  -0.00016  3.920036  -0.001
C  C33  1  0.55843203  0.93694203  0.27228772  1  0.148778  -0.005587  3.671991  -0.006  0.539612  -0.002119  0.120273  -0.0009  3.928641  -0.002  0.060233  0.112433  -0.000215  3.920796  -0.001
C  C34  1  0.05707804  0.33528882  0.27225263  1  0.147158  0.005517  3.669907  0.006  0.579437  0.002154  0.118769  0.000858  3.927028  0.002  0.059714  0.110929  0.000162  3.919064  0.001
C  C35  1  0.44157243  0.06305311  0.72771920  1  0.148714  0.005585  3.67164  0.006  0.53918  0.002119  0.120254  0.000899  3.928305  0.002  0.060191  0.112403  0.000214  3.920463  0.001
C  C36  1  0.90458250  0.64905465  0.80606045  1  -0.107273  0.006953  3.656066  0.007  -0.03181  0.004655  -0.128678  0.002958  3.898548  0.004  -0.062313  -0.126302  0.002585  3.889861  0.003
C  C37  1  0.59663526  0.84292267  0.19386894  1  -0.10876  0.007069  3.659317  0.007  0.032318  0.004664  -0.129704  0.003011  3.901596  0.004  -0.063289  -0.127366  0.00265  3.892993  0.003
C  C38  1  0.09540293  0.35092365  0.19391410  1  -0.107257  -0.006982  3.656275  -0.007  -0.03223  -0.004655  -0.128821  -0.002958  3.898768  -0.004  -0.06238  -0.126439  -0.002584  3.890088  -0.003
C  C39  1  0.40335666  0.15708156  0.80613951  1  -0.108774  -0.007067  3.65936  -0.007  0.032543  -0.004665  -0.129669  -0.003012  3.901622  -0.004  -0.063311  -0.127334  -0.002651  3.893024  -0.003
C  C40  1  0.79662528  0.75594573  0.94022332  1  0.337627  0.000526  3.709938  0.001  1.055594  -2e-06  0.306845  1e-05  3.988256  0.0  0.221792  0.296781  -7e-05  3.983025  0.0
C  C41  1  0.70433927  0.81554326  0.05965226  1  0.336208  0.000573  3.710573  0.001  1.044566  2.3e-05  0.30567  2.5e-05  3.988287  0.0  0.221372  0.295586  -5.7e-05  3.983064  0.0
C  C42  1  0.20337716  0.24406999  0.05978166  1  0.337427  -0.000536  3.709963  -0.001  1.055589  -2e-06  0.306611  -1.2e-05  3.988222  0.0  0.221669  0.296474  7.1e-05  3.983077  0.0
C  C43  1  0.29567063  0.18444589  0.94033873  1  0.336308  -0.000566  3.710006  -0.001  1.044016  -2.2e-05  0.305729  -2.4e-05  3.987847  0.0  0.221361  0.295611  5.7e-05  3.982667  0.0
C  C44  1  0.90324262  0.47904012  0.48201272  1  0.527368  -0.004899  3.900461  -0.008  1.607469  -0.002987  0.495852  -0.000851  4.196821  -0.003  0.199888  0.472172  -0.000813  4.201077  -0.003
C  C45  1  0.59675920  0.99695363  0.51810976  1  0.527147  -0.00489  3.902372  -0.008  1.594497  -0.002994  0.495806  -0.00084  4.198705  -0.003  0.19982  0.472162  -0.000802  4.203056  -0.003
C  C46  1  0.09677299  0.52097366  0.51800458  1  0.527395  0.004896  3.900451  0.008  1.63504  0.002985  0.495819  0.000849  4.196925  0.003  0.199862  0.472128  0.00081  4.201186  0.003
C  C47  1  0.40322623  0.00304457  0.48188671  1  0.527222  0.004887  3.902411  0.008  1.621112  0.002993  0.495876  0.000839  4.198759  0.003  0.199823  0.472245  0.000799  4.203107  0.003
C  C48  1  0.03863354  0.05735157  0.55197194  1  0.535821  0.000564  3.91156  0.001  1.649583  0.000298  0.498063  0.000248  4.21892  0.0  0.199085  0.47116  0.000157  4.224216  0.0
C  C49  1  0.46129478  0.50539218  0.44799632  1  0.538892  0.00061  3.909186  0.001  1.664136  0.000308  0.501028  0.00028  4.216927  0.0  0.200736  0.4741  0.000193  4.222479  0.0
C  C50  1  0.96137691  0.94266635  0.44802423  1  0.535382  -0.000565  3.912112  -0.001  1.627565  -0.0003  0.497822  -0.000248  4.219282  0.0  0.198872  0.470931  -0.000156  4.224569  0.0
C  C51  1  0.53868920  0.49461748  0.55199997  1  0.538884  -0.000605  3.909201  -0.001  1.637314  -0.000306  0.501058  -0.000277  4.216894  0.0  0.200797  0.474127  -0.000193  4.222449  0.0
N  N52  1  0.93074353  0.79633846  0.70482529  1  -0.291586  0.056874  3.313849  0.072  -1.241869  0.066356  -0.248276  0.043922  3.612849  0.059  -0.34061  -0.232232  0.040909  3.603097  0.053
N  N53  1  0.57045451  0.09149960  0.29529156  1  -0.291567  0.057072  3.311788  0.072  -1.254366  0.066344  -0.248059  0.043988  3.610159  0.059  -0.340297  -0.23228  0.041089  3.600646  0.053
N  N54  1  0.06927432  0.20366630  0.29519865  1  -0.291542  -0.0569  3.312277  -0.072  -1.240896  -0.066363  -0.248192  -0.043925  3.611168  -0.059  -0.340489  -0.232157  -0.040902  3.601468  -0.053
N  N55  1  0.42955040  0.90849062  0.70469749  1  -0.291622  -0.057052  3.311494  -0.072  -1.254086  -0.06634  -0.248082  -0.043982  3.609921  -0.059  -0.340278  -0.232302  -0.041079  3.600391  -0.053
N  N56  1  0.77991312  0.62918350  0.96122942  1  -0.245482  -0.001817  2.870292  -0.002  -0.672992  -0.00111  -0.233308  -0.000677  3.143518  -0.001  -0.216281  -0.229752  -0.000547  3.13907  -0.001
N  N57  1  0.72067856  0.66761318  0.03825266  1  -0.246374  -0.001864  2.871234  -0.002  -0.683471  -0.001143  -0.234106  -0.000696  3.144105  -0.001  -0.2162  -0.230533  -0.000571  3.139658  -0.001
N  N58  1  0.22008370  0.37081938  0.03876646  1  -0.245255  0.001829  2.870651  0.002  -0.672952  0.001115  -0.23307  0.00068  3.143855  0.001  -0.216184  -0.229499  0.000548  3.139433  0.001
N  N59  1  0.27930637  0.33237255  0.96175071  1  -0.246324  0.00186  2.871657  0.002  -0.683795  0.001142  -0.234037  0.000696  3.144562  0.001  -0.216116  -0.230454  0.000572  3.140124  0.001
O  O60  1  0.75074262  0.87973628  0.00012167  1  -0.268801  -0.000319  2.298463  -0.001  -1.079823  -0.000197  -0.200837  -0.000119  2.516812  0.0  -0.103126  -0.18944  -0.000114  2.515063  0.0
O  O61  1  0.24927637  0.12023395  0.99989438  1  -0.269003  0.00032  2.297589  0.001  -1.079357  0.000198  -0.200963  0.00012  2.515864  0.0  -0.103221  -0.189535  0.000115  2.514142  0.0
O  O62  1  0.81623983  0.58580132  0.50854331  1  -0.534448  0.074875  2.127168  0.101  -1.134232  0.078073  -0.509393  0.049543  2.397096  0.073  -0.305075  -0.480432  0.049498  2.400247  0.07
O  O63  1  0.68369957  0.07681751  0.49151400  1  -0.53341  0.07487  2.128076  0.101  -1.127512  0.078103  -0.509162  0.049579  2.398822  0.073  -0.305032  -0.480581  0.049775  2.402188  0.071
O  O64  1  0.18374157  0.41420015  0.49144585  1  -0.534275  -0.074876  2.127134  -0.101  -1.134106  -0.078089  -0.509313  -0.049554  2.397228  -0.073  -0.305071  -0.480357  -0.049502  2.400399  -0.07
O  O65  1  0.31629867  0.92319945  0.50849773  1  -0.533524  -0.074853  2.128303  -0.101  -1.127666  -0.078101  -0.50922  -0.049577  2.399011  -0.073  -0.305061  -0.480638  -0.04976  2.40236  -0.071
O  O66  1  0.84403013  0.34297069  0.42991992  1  -0.597217  0.011157  2.111647  0.015  -1.190855  0.008816  -0.582971  0.005387  2.387295  0.008  -0.305137  -0.559553  0.007826  2.394139  0.011
O  O67  1  0.65606827  0.91311731  0.57041155  1  -0.597726  0.0112  2.114464  0.015  -1.182962  0.008892  -0.583341  0.005434  2.390083  0.008  -0.305352  -0.56018  0.007972  2.397013  0.011
O  O68  1  0.15597440  0.65704635  0.57009352  1  -0.597294  -0.01115  2.11184  -0.015  -1.191236  -0.008816  -0.582989  -0.005387  2.387507  -0.008  -0.305099  -0.559568  -0.007825  2.394329  -0.011
O  O69  1  0.34395021  0.08690783  0.42959904  1  -0.597771  -0.011195  2.114525  -0.015  -1.182739  -0.008892  -0.58341  -0.005434  2.390161  -0.008  -0.305375  -0.560267  -0.007966  2.397113  -0.011
O  O70  1  0.03897115  0.01260670  0.62323764  1  -0.525059  0.056883  2.064913  0.076  -1.137887  0.069988  -0.513374  0.044518  2.336765  0.065  -0.302478  -0.47858  0.040963  2.338889  0.058
O  O71  1  0.46092243  0.38935558  0.37669459  1  -0.526235  0.057085  2.064176  0.076  -1.145275  0.070146  -0.514883  0.044701  2.336225  0.065  -0.303218  -0.480443  0.041345  2.338629  0.058
O  O72  1  0.96101507  0.98735915  0.37674470  1  -0.524881  -0.056889  2.065214  -0.076  -1.137946  -0.070004  -0.513328  -0.04453  2.336987  -0.065  -0.302362  -0.47854  -0.040978  2.339127  -0.058
O  O73  1  0.53906990  0.61065073  0.62330247  1  -0.526288  -0.05709  2.064221  -0.076  -1.145092  -0.070142  -0.51494  -0.044701  2.336327  -0.065  -0.303237  -0.480489  -0.041338  2.338703  -0.058
O  O74  1  0.09864059  0.18905407  0.56045594  1  -0.50133  -0.059296  2.031434  -0.079  -1.126675  -0.070491  -0.485555  -0.044987  2.281776  -0.065  -0.299805  -0.452928  -0.040797  2.284753  -0.057
O  O75  1  0.40143564  0.62886154  0.43953875  1  -0.503273  -0.059385  2.029181  -0.079  -1.131434  -0.070686  -0.487498  -0.045023  2.279262  -0.066  -0.30124  -0.455141  -0.041008  2.282401  -0.058
O  O76  1  0.90136892  0.81094763  0.43953195  1  -0.501191  0.059369  2.031162  0.079  -1.126789  0.070558  -0.485498  0.045029  2.281418  0.065  -0.299657  -0.452856  0.040831  2.284366  0.057
O  O77  1  0.59854422  0.37114209  0.56044463  1  -0.503105  0.059364  2.029264  0.079  -1.132047  0.070674  -0.487384  0.045016  2.279382  0.066  -0.301236  -0.455025  0.041011  2.282523  0.058
