# generated using pymatgen
data_HoH7(C3O4)2
_symmetry_space_group_name_H-M   'P 1'
_cell_length_a   9.47268458
_cell_length_b   14.44886347
_cell_length_c   14.52050384
_cell_angle_alpha   89.99996992
_cell_angle_beta   91.48217015
_cell_angle_gamma   90.00001368
_symmetry_Int_Tables_number   1
_chemical_formula_structural   HoH7(C3O4)2
_chemical_formula_sum   'Ho8 H56 C48 O64'
_cell_volume   1986.74953651
_cell_formula_units_Z   8
loop_
 _symmetry_equiv_pos_site_id
 _symmetry_equiv_pos_as_xyz
  1  'x, y, z'
loop_
 _atom_site_type_symbol
 _atom_site_label
 _atom_site_symmetry_multiplicity
 _atom_site_fract_x
 _atom_site_fract_y
 _atom_site_fract_z
 _atom_site_occupancy
 _atom_site_pbe_bader_charge
 _atom_site_pbe_bader_spin_density
 _atom_site_pbe_cm5_charge
 _atom_site_pbe_ddec_charge
 _atom_site_pbe_ddec_spin_density
 _atom_site_pbe_ddec_sum_bond_order
 _atom_site_pbe_magmom
Ho  Ho0  1  0.48370564  0.16483439  0.25524905  1  2.170442  0  1.495164  2.051766  0  2.068424  0
Ho  Ho1  1  0.01628838  0.66483769  0.24475277  1  2.170422  0  1.495155  2.051824  0  2.068307  0
Ho  Ho2  1  0.51628962  0.83516588  0.74474591  1  2.170474  0  1.49519  2.051826  0  2.0683  0
Ho  Ho3  1  0.98370059  0.33516603  0.75524830  1  2.170448  0  1.495147  2.051826  0  2.068363  0
Ho  Ho4  1  0.69653555  0.35189415  0.09220802  1  2.194574  0  1.513169  2.104442  0  2.0626  0
Ho  Ho5  1  0.80347357  0.85189395  0.40779936  1  2.194599  0  1.51314  2.1044  0  2.062624  0
Ho  Ho6  1  0.30347771  0.64810335  0.90779408  1  2.194629  0  1.513173  2.104372  0  2.062663  0
Ho  Ho7  1  0.19652810  0.14810839  0.59220671  1  2.194531  0  1.513172  2.104411  0  2.062639  0
H  H8  1  0.00425439  0.19965302  0.20124677  1  0.105721  0  0.119092  0.14204  0  0.991896  0
H  H9  1  0.49573749  0.69965776  0.29874811  1  0.105824  0  0.11908  0.142012  0  0.991966  0
H  H10  1  0.99574724  0.80034794  0.79875172  1  0.105763  0  0.119103  0.142073  0  0.991889  0
H  H11  1  0.50425886  0.30034251  0.70125099  1  0.105821  0  0.119099  0.142015  0  0.991968  0
H  H12  1  0.95667692  0.15621779  0.40639405  1  0.128772  0  0.117049  0.123254  0  1.037424  0
H  H13  1  0.54332151  0.65621772  0.09360364  1  0.128773  0  0.117051  0.123214  0  1.037473  0
H  H14  1  0.04332364  0.84378247  0.59360373  1  0.128718  0  0.117056  0.123241  0  1.037451  0
H  H15  1  0.45667907  0.34378047  0.90639691  1  0.128742  0  0.117062  0.123234  0  1.037449  0
H  H16  1  0.35358864  0.86637679  0.12597994  1  0.096432  0  0.113556  0.131228  0  0.989108  0
H  H17  1  0.14640543  0.36637544  0.37401971  1  0.096307  0  0.113589  0.131262  0  0.989129  0
H  H18  1  0.64640985  0.13361933  0.87402402  1  0.096347  0  0.113562  0.131243  0  0.989042  0
H  H19  1  0.85359519  0.63362829  0.62598703  1  0.096061  0  0.113541  0.131202  0  0.989222  0
H  H20  1  0.63019166  0.93727099  0.04277431  1  0.118744  0  0.115092  0.135994  0  0.974883  0
H  H21  1  0.86980687  0.43727656  0.45722324  1  0.118597  0  0.115105  0.135992  0  0.974877  0
H  H22  1  0.36980364  0.06272512  0.95722547  1  0.118645  0  0.115084  0.136  0  0.974882  0
H  H23  1  0.13018947  0.56272925  0.54277449  1  0.118776  0  0.115109  0.136032  0  0.97488  0
H  H24  1  0.19086713  0.39316307  0.19542021  1  0.142242  0  0.117889  0.143127  0  1.01336  0
H  H25  1  0.30913436  0.89316085  0.30458159  1  0.142307  0  0.117879  0.143086  0  1.013446  0
H  H26  1  0.80913559  0.60683789  0.80458449  1  0.142327  0  0.117858  0.143031  0  1.013422  0
H  H27  1  0.69086621  0.10683734  0.69541688  1  0.142304  0  0.117868  0.143051  0  1.013379  0
H  H28  1  0.19079242  0.30010182  0.00281112  1  0.105047  0  0.121  0.146332  0  0.973082  0
H  H29  1  0.30920270  0.80010158  0.49719134  1  0.104946  0  0.121005  0.146341  0  0.973132  0
H  H30  1  0.80920395  0.69990122  0.99719143  1  0.104943  0  0.121004  0.146364  0  0.97312  0
H  H31  1  0.69079682  0.19989869  0.50280850  1  0.104962  0  0.121  0.146335  0  0.973098  0
H  H32  1  0.50352235  0.00909062  0.38581551  1  0.662997  0  0.30501  0.407791  0  0.919502  0
H  H33  1  0.99647922  0.50909061  0.11418505  1  0.663009  0  0.305005  0.407787  0  0.919512  0
H  H34  1  0.49647718  0.99090896  0.61418571  1  0.663002  0  0.305006  0.407774  0  0.919531  0
H  H35  1  0.00352348  0.49091035  0.88581621  1  0.663007  0  0.304996  0.407781  0  0.919514  0
H  H36  1  0.37747073  0.07862064  0.41219408  1  0.648471  0  0.299549  0.383605  0  0.964265  0
H  H37  1  0.12253065  0.57861989  0.08780719  1  0.648462  0  0.29956  0.38362  0  0.964265  0
H  H38  1  0.62253197  0.92138171  0.58780787  1  0.648499  0  0.299546  0.383595  0  0.964305  0
H  H39  1  0.87747205  0.42137968  0.91219338  1  0.648514  0  0.299566  0.383596  0  0.964305  0
H  H40  1  0.47483262  0.26958445  0.43578784  1  0.66419  0  0.298533  0.408879  0  0.91983  0
H  H41  1  0.02517197  0.76958162  0.06421063  1  0.664232  0  0.298524  0.408816  0  0.919904  0
H  H42  1  0.52517006  0.73041720  0.56421135  1  0.664168  0  0.29852  0.408842  0  0.919882  0
H  H43  1  0.97483072  0.23041518  0.93578926  1  0.664183  0  0.29853  0.408875  0  0.919828  0
H  H44  1  0.43276299  0.33239218  0.34947584  1  0.622242  0  0.326659  0.411348  0  0.877052  0
H  H45  1  0.06723846  0.83238931  0.15052393  1  0.622267  0  0.32666  0.411349  0  0.87704  0
H  H46  1  0.56723653  0.66760878  0.65052400  1  0.622258  0  0.32668  0.411352  0  0.877075  0
H  H47  1  0.93276317  0.16760680  0.84947525  1  0.622237  0  0.326652  0.411346  0  0.877051  0
H  H48  1  0.73079902  0.55987521  0.11162341  1  0.659905  0  0.305917  0.415832  0  0.912046  0
H  H49  1  0.76920256  0.05987664  0.38837644  1  0.659273  0  0.305908  0.415861  0  0.912024  0
H  H50  1  0.26920155  0.44012298  0.88837576  1  0.659889  0  0.305901  0.415857  0  0.91203  0
H  H51  1  0.23080330  0.94012501  0.61162349  1  0.659906  0  0.305909  0.415816  0  0.912064  0
H  H52  1  0.64713056  0.53869363  0.01734705  1  0.666217  0  0.302265  0.406539  0  0.925506  0
H  H53  1  0.85287102  0.03869364  0.48265350  1  0.666201  0  0.302254  0.406541  0  0.925508  0
H  H54  1  0.35286896  0.46130595  0.98265279  1  0.666214  0  0.302256  0.406546  0  0.925501  0
H  H55  1  0.14713273  0.96130663  0.51734709  1  0.666225  0  0.302269  0.406517  0  0.925532  0
H  H56  1  0.65439057  0.38600335  0.29338424  1  0.63846  0  0.317769  0.411446  0  0.892285  0
H  H57  1  0.84561113  0.88600326  0.20661544  1  0.628441  0  0.317805  0.411429  0  0.892296  0
H  H58  1  0.34561213  0.61399554  0.70661633  1  0.628455  0  0.317781  0.411423  0  0.892308  0
H  H59  1  0.15439155  0.11399562  0.79338238  1  0.62845  0  0.317814  0.411476  0  0.892247  0
H  H60  1  0.77888796  0.45739375  0.27066966  1  0.660255  0  0.300636  0.415926  0  0.910958  0
H  H61  1  0.72111690  0.95739364  0.22932728  1  0.660168  0  0.300713  0.416071  0  0.910758  0
H  H62  1  0.22111577  0.54260582  0.72932886  1  0.660183  0  0.300629  0.415868  0  0.911028  0
H  H63  1  0.27888577  0.04260455  0.77067054  1  0.66016  0  0.30067  0.415965  0  0.910894  0
C  C64  1  0.79152661  0.18869165  0.25993364  1  1.483175  0  0.226905  0.672143  0  4.133533  0
C  C65  1  0.70846867  0.68869499  0.24006467  1  1.483489  0  0.226846  0.67191  0  4.133919  0
C  C66  1  0.20847712  0.81130654  0.74006419  1  1.481984  0  0.226828  0.671895  0  4.133397  0
C  C67  1  0.29152873  0.31130666  0.75993445  1  1.48346  0  0.226827  0.671999  0  4.133749  0
C  C68  1  0.94771637  0.18633023  0.26427727  1  0.065646  0  -0.069754  -0.170491  0  3.832891  0
C  C69  1  0.55228102  0.68633147  0.23572108  1  0.065528  0  -0.069732  -0.170449  0  3.833045  0
C  C70  1  0.05228737  0.81367211  0.73572263  1  0.065735  0  -0.069775  -0.170483  0  3.832863  0
C  C71  1  0.44771850  0.31366810  0.76427807  1  0.065562  0  -0.069717  -0.170444  0  3.832903  0
C  C72  1  0.01591057  0.16851559  0.34445925  1  -0.04521  0  -0.062612  -0.151038  0  3.855547  0
C  C73  1  0.48408976  0.66851417  0.15553783  1  -0.045248  0  -0.062647  -0.150967  0  3.855575  0
C  C74  1  0.98409317  0.83148537  0.65553927  1  -0.045065  0  -0.062638  -0.151045  0  3.85565  0
C  C75  1  0.51591081  0.33148333  0.84446133  1  -0.045236  0  -0.062663  -0.151045  0  3.855491  0
C  C76  1  0.17129264  0.15889062  0.35692149  1  1.559589  0  0.240848  0.690655  0  4.107002  0
C  C77  1  0.32870664  0.65888987  0.14307696  1  1.559812  0  0.240754  0.690441  0  4.107251  0
C  C78  1  0.82871111  0.84111242  0.64307910  1  1.559528  0  0.240819  0.690679  0  4.107226  0
C  C79  1  0.67129183  0.34110901  0.85692355  1  1.559537  0  0.240952  0.690778  0  4.106963  0
C  C80  1  0.46662477  0.98660838  0.18426893  1  1.509288  0  0.189463  0.6068  0  4.236176  0
C  C81  1  0.03337883  0.48660843  0.31572872  1  1.509316  0  0.189506  0.606956  0  4.236183  0
C  C82  1  0.53337583  0.01338981  0.81573367  1  1.509345  0  0.18951  0.606972  0  4.23614  0
C  C83  1  0.96662701  0.51339322  0.68426983  1  1.509258  0  0.189572  0.607019  0  4.236268  0
C  C84  1  0.44999271  0.90718139  0.12110783  1  -0.0379  0  -0.073928  -0.157814  0  3.884085  0
C  C85  1  0.05000454  0.40718141  0.37889116  1  -0.037848  0  -0.07396  -0.157926  0  3.88409  0
C  C86  1  0.55000472  0.09281542  0.87889474  1  -0.038131  0  -0.073887  -0.157804  0  3.884117  0
C  C87  1  0.94999606  0.59282232  0.62111214  1  -0.037662  0  -0.073884  -0.157821  0  3.884292  0
C  C88  1  0.53674893  0.89418109  0.05075061  1  -0.056677  0  -0.075735  -0.174668  0  3.85905  0
C  C89  1  0.96324644  0.39418390  0.44924966  1  -0.056539  0  -0.075756  -0.17462  0  3.859038  0
C  C90  1  0.46324744  0.10581503  0.94925125  1  -0.056347  0  -0.075763  -0.174702  0  3.859126  0
C  C91  1  0.03674887  0.60581982  0.55075080  1  -0.056576  0  -0.07578  -0.174743  0  3.859243  0
C  C92  1  0.50093083  0.82974255  0.97387213  1  1.595919  0  0.227858  0.682234  0  4.160669  0
C  C93  1  0.99906363  0.32974560  0.52612558  1  1.595947  0  0.227779  0.682157  0  4.160855  0
C  C94  1  0.49906552  0.17025495  0.02612766  1  1.595975  0  0.227875  0.682249  0  4.160582  0
C  C95  1  0.00092850  0.67025605  0.47387415  1  1.595925  0  0.227846  0.682232  0  4.16066  0
C  C96  1  0.38964174  0.36051140  0.12885978  1  1.586209  0  0.228835  0.670096  0  4.154875  0
C  C97  1  0.11035867  0.86050981  0.37114066  1  1.58622  0  0.228824  0.670047  0  4.154884  0
C  C98  1  0.61035884  0.63949025  0.87114008  1  1.586196  0  0.228867  0.670291  0  4.154809  0
C  C99  1  0.88964085  0.13948838  0.62885918  1  1.586124  0  0.228867  0.670125  0  4.154832  0
C  C100  1  0.23392215  0.36429507  0.13266718  1  -0.049555  0  -0.064166  -0.151396  0  3.837986  0
C  C101  1  0.26607827  0.86429143  0.36733394  1  -0.049476  0  -0.064212  -0.151376  0  3.83823  0
C  C102  1  0.76607739  0.63570658  0.86733542  1  -0.049463  0  -0.064172  -0.15127  0  3.838067  0
C  C103  1  0.73392230  0.13570607  0.63266385  1  -0.049473  0  -0.064252  -0.151377  0  3.838128  0
C  C104  1  0.14935203  0.33163923  0.06479002  1  -0.033319  0  -0.075455  -0.172765  0  3.86576  0
C  C105  1  0.35064417  0.83163695  0.43521312  1  -0.03344  0  -0.075369  -0.172688  0  3.865927  0
C  C106  1  0.85064646  0.66836381  0.93521325  1  -0.033458  0  -0.075452  -0.172914  0  3.865927  0
C  C107  1  0.64935536  0.16836193  0.56478741  1  -0.033439  0  -0.075379  -0.17273  0  3.865885  0
C  C108  1  0.99448647  0.33264145  0.07377934  1  1.513419  0  0.204937  0.615352  0  4.220171  0
C  C109  1  0.50551312  0.83263843  0.42622447  1  1.513963  0  0.20485  0.615244  0  4.220609  0
C  C110  1  0.00551625  0.66736089  0.92622468  1  1.513894  0  0.204972  0.615416  0  4.220357  0
C  C111  1  0.49448641  0.16736115  0.57377674  1  1.513858  0  0.204877  0.615297  0  4.220502  0
O  O112  1  0.72515153  0.22657907  0.19167298  1  -1.205325  0  -0.41668  -0.746382  0  2.393858  0
O  O113  1  0.77484376  0.72658239  0.30832601  1  -1.205324  0  -0.416639  -0.74628  0  2.393866  0
O  O114  1  0.27485114  0.77341981  0.80832415  1  -1.205321  0  -0.416632  -0.746242  0  2.393877  0
O  O115  1  0.22515471  0.27341857  0.69167451  1  -1.205355  0  -0.416636  -0.74631  0  2.393886  0
O  O116  1  0.71975367  0.15235244  0.32375842  1  -1.180574  0  -0.352908  -0.60634  0  2.266283  0
O  O117  1  0.78024372  0.65235513  0.17624132  1  -1.180808  0  -0.35286  -0.606206  0  2.266427  0
O  O118  1  0.28025005  0.84764713  0.67623803  1  -1.179435  0  -0.352866  -0.606244  0  2.266013  0
O  O119  1  0.21975581  0.34764583  0.82375921  1  -1.180755  0  -0.352859  -0.606264  0  2.266305  0
O  O120  1  0.25288148  0.18908333  0.29582270  1  -1.189486  0  -0.392177  -0.65377  0  2.254427  0
O  O121  1  0.24711884  0.68908185  0.20417369  1  -1.189645  0  -0.392141  -0.653689  0  2.254514  0
O  O122  1  0.74712224  0.81091625  0.70417375  1  -1.189568  0  -0.392202  -0.653777  0  2.254571  0
O  O123  1  0.75288067  0.31091565  0.79582478  1  -1.189444  0  -0.392288  -0.65391  0  2.254523  0
O  O124  1  0.21345224  0.11661115  0.43054981  1  -1.187214  0  -0.366947  -0.643866  0  2.286791  0
O  O125  1  0.28654808  0.61660836  0.06944868  1  -1.187297  0  -0.366879  -0.643752  0  2.28679  0
O  O126  1  0.78655151  0.88339535  0.56945078  1  -1.187289  0  -0.366859  -0.643855  0  2.286763  0
O  O127  1  0.71345249  0.38338913  0.93055048  1  -1.187231  0  -0.366945  -0.64382  0  2.286686  0
O  O128  1  0.35676048  0.02081752  0.21881093  1  -1.156107  0  -0.358638  -0.596247  0  2.183864  0
O  O129  1  0.14324194  0.52081945  0.28119177  1  -1.156208  0  -0.358678  -0.596341  0  2.183845  0
O  O130  1  0.64323800  0.97917859  0.78119165  1  -1.156121  0  -0.35867  -0.596334  0  2.183883  0
O  O131  1  0.85676181  0.47918220  0.71880882  1  -1.156052  0  -0.35877  -0.596413  0  2.183984  0
O  O132  1  0.58849449  0.02533970  0.19805327  1  -1.185219  0  -0.38004  -0.646226  0  2.241883  0
O  O133  1  0.91150704  0.52533820  0.30193970  1  -1.185193  0  -0.379985  -0.64623  0  2.242022  0
O  O134  1  0.41150502  0.97465918  0.80194381  1  -1.185242  0  -0.380064  -0.646314  0  2.241895  0
O  O135  1  0.08849562  0.47466138  0.69805605  1  -1.185236  0  -0.380016  -0.646231  0  2.241919  0
O  O136  1  0.40142483  0.77188124  0.98451732  1  -1.182402  0  -0.39922  -0.676386  0  2.340041  0
O  O137  1  0.09856940  0.27188354  0.51548117  1  -1.182209  0  -0.399162  -0.676315  0  2.340062  0
O  O138  1  0.59857365  0.22811556  0.01548457  1  -1.182273  0  -0.399181  -0.676324  0  2.339932  0
O  O139  1  0.90141955  0.72811604  0.48451645  1  -1.182418  0  -0.399225  -0.676373  0  2.339947  0
O  O140  1  0.57158987  0.83941323  0.90116072  1  -1.189037  0  -0.39484  -0.666223  0  2.293572  0
O  O141  1  0.92840143  0.33941692  0.59883832  1  -1.189076  0  -0.3948  -0.666233  0  2.293593  0
O  O142  1  0.42840332  0.16058496  0.09884040  1  -1.189086  0  -0.394865  -0.666266  0  2.293557  0
O  O143  1  0.07158542  0.66058473  0.40116134  1  -1.188964  0  -0.394845  -0.666199  0  2.293574  0
O  O144  1  0.46039937  0.32233537  0.19465659  1  -1.210555  0  -0.382314  -0.71202  0  2.352973  0
O  O145  1  0.03960102  0.82233519  0.30534317  1  -1.210575  0  -0.382323  -0.712005  0  2.352946  0
O  O146  1  0.53960226  0.67766213  0.80534259  1  -1.210546  0  -0.382355  -0.712163  0  2.353051  0
O  O147  1  0.96039956  0.17766369  0.69465737  1  -1.210574  0  -0.382351  -0.712052  0  2.352927  0
O  O148  1  0.45195422  0.39583807  0.06050275  1  -1.176058  0  -0.34127  -0.60662  0  2.261801  0
O  O149  1  0.04804304  0.89583713  0.43949761  1  -1.176075  0  -0.341291  -0.606585  0  2.261775  0
O  O150  1  0.54804319  0.60416288  0.93949705  1  -1.17608  0  -0.341295  -0.606661  0  2.261741  0
O  O151  1  0.95195755  0.10416245  0.56050362  1  -1.17597  0  -0.341276  -0.606604  0  2.261801  0
O  O152  1  0.91717827  0.27247617  0.03203316  1  -1.169472  0  -0.33469  -0.607283  0  2.214568  0
O  O153  1  0.58281920  0.77247590  0.46797272  1  -1.169458  0  -0.334651  -0.60726  0  2.214687  0
O  O154  1  0.08282129  0.72752617  0.96797150  1  -1.169406  0  -0.33467  -0.607241  0  2.214562  0
O  O155  1  0.41718033  0.22752575  0.53202919  1  -1.169384  0  -0.334648  -0.607265  0  2.214572  0
O  O156  1  0.93642534  0.39347251  0.12500435  1  -1.19095  0  -0.37264  -0.634283  0  2.263061  0
O  O157  1  0.56357006  0.89346953  0.37500144  1  -1.191451  0  -0.372581  -0.634219  0  2.263346  0
O  O158  1  0.06357422  0.60652914  0.87500169  1  -1.191469  0  -0.372611  -0.634288  0  2.263296  0
O  O159  1  0.43642630  0.10653074  0.62499904  1  -1.191451  0  -0.372563  -0.634206  0  2.263375  0
O  O160  1  0.47715270  0.07532143  0.39132161  1  -1.292373  0  -0.646344  -0.844658  0  2.114622  0
O  O161  1  0.02284867  0.57532066  0.10867829  1  -1.292343  0  -0.646358  -0.844712  0  2.114617  0
O  O162  1  0.52284893  0.92467884  0.60867688  1  -1.292358  0  -0.646375  -0.844686  0  2.114686  0
O  O163  1  0.97715192  0.42467892  0.89132363  1  -1.292417  0  -0.646358  -0.844684  0  2.114708  0
O  O164  1  0.50337665  0.28797276  0.37150452  1  -1.271813  0  -0.617698  -0.828264  0  2.02643  0
O  O165  1  0.99662605  0.78797137  0.12849316  1  -1.271872  0  -0.617703  -0.828241  0  2.026474  0
O  O166  1  0.49662603  0.71202819  0.62849398  1  -1.271814  0  -0.617715  -0.828242  0  2.026506  0
O  O167  1  0.00337769  0.21202682  0.87150536  1  -1.271798  0  -0.617676  -0.828265  0  2.026433  0
O  O168  1  0.70227263  0.50925809  0.06856741  1  -1.306859  0  -0.672977  -0.881142  0  2.12714  0
O  O169  1  0.79772893  0.00925950  0.43143177  1  -1.306185  0  -0.672953  -0.881179  0  2.12712  0
O  O170  1  0.29772689  0.49074080  0.93143243  1  -1.306823  0  -0.672958  -0.881174  0  2.127104  0
O  O171  1  0.20227586  0.99074215  0.56856676  1  -1.306869  0  -0.672973  -0.881097  0  2.127136  0
O  O172  1  0.69999002  0.41879971  0.24361702  1  -1.281905  0  -0.636192  -0.848994  0  2.051831  0
O  O173  1  0.80001378  0.91880306  0.25638129  1  -1.271783  0  -0.636285  -0.849091  0  2.051643  0
O  O174  1  0.30001267  0.58119917  0.75638286  1  -1.271835  0  -0.636188  -0.848876  0  2.051907  0
O  O175  1  0.19998888  0.08119721  0.74361515  1  -1.27178  0  -0.636261  -0.849033  0  2.051755  0
