# generated using pymatgen
data_PrH6C6(NO4)2
_symmetry_space_group_name_H-M   'P 1'
_cell_length_a   7.65330866
_cell_length_b   8.11591764
_cell_length_c   17.28382282
_cell_angle_alpha   89.99985520
_cell_angle_beta   90.00015146
_cell_angle_gamma   108.42490751
_symmetry_Int_Tables_number   1
_chemical_formula_structural   PrH6C6(NO4)2
_chemical_formula_sum   'Pr4 H24 C24 N8 O32'
_cell_volume   1018.52872937
_cell_formula_units_Z   4
loop_
 _symmetry_equiv_pos_site_id
 _symmetry_equiv_pos_as_xyz
  1  'x, y, z'
loop_
 _atom_site_type_symbol
 _atom_site_label
 _atom_site_symmetry_multiplicity
 _atom_site_fract_x
 _atom_site_fract_y
 _atom_site_fract_z
 _atom_site_occupancy
 _atom_site_hle17_bader_spin_density
 _atom_site_hle17_ddec_charge
 _atom_site_hle17_ddec_spin_density
 _atom_site_hle17_ddec_sum_bond_order
 _atom_site_hle17_magmom
 _atom_site_hse06_10hf_bader_spin_density
 _atom_site_hse06_10hf_ddec_charge
 _atom_site_hse06_10hf_ddec_spin_density
 _atom_site_hse06_10hf_ddec_sum_bond_order
 _atom_site_hse06_10hf_magmom
 _atom_site_hse06_bader_spin_density
 _atom_site_hse06_ddec_charge
 _atom_site_hse06_ddec_spin_density
 _atom_site_hse06_ddec_sum_bond_order
 _atom_site_hse06_magmom
 _atom_site_pbe_bader_spin_density
 _atom_site_pbe_cm5_charge
 _atom_site_pbe_ddec_charge
 _atom_site_pbe_ddec_spin_density
 _atom_site_pbe_ddec_sum_bond_order
 _atom_site_pbe_magmom
Pr  Pr0  1  0.31498905  0.76711602  0.58275507  1  0  2.27913  0  1.631509  0  0  2.103465  0  2.102455  0  0  2.194903  0  1.960555  0  0  1.472881  2.072163  0  2.136412  0
Pr  Pr1  1  0.68501829  0.73287823  0.08275596  1  0  2.279166  0  1.631531  0  0  2.103522  0  2.102469  0  0  2.194945  0  1.960577  0  0  1.472914  2.072226  0  2.136422  0
Pr  Pr2  1  0.68501434  0.23288073  0.41724303  1  0  2.27913  0  1.6315  0  0  2.103514  0  2.102388  0  0  2.194911  0  1.960547  0  0  1.472909  2.072215  0  2.136342  0
Pr  Pr3  1  0.31499285  0.26711830  0.91724444  1  0  2.279099  0  1.63153  0  0  2.10345  0  2.102489  0  0  2.194889  0  1.960575  0  0  1.47292  2.07215  0  2.136439  0
H  H4  1  0.16729345  0.03312517  0.60115412  1  0  0.415189  0  0.867836  0  0  0.393539  0  0.925795  0  0  0.402774  0  0.912281  0  0  0.305032  0.386744  0  0.935849  0
H  H5  1  0.83271053  0.46687385  0.10115839  1  0  0.415248  0  0.867681  0  0  0.393604  0  0.925685  0  0  0.402838  0  0.912172  0  0  0.305094  0.386823  0  0.935726  0
H  H6  1  0.83270382  0.96686914  0.39884397  1  0  0.41517  0  0.867771  0  0  0.393541  0  0.925766  0  0  0.402773  0  0.912255  0  0  0.305045  0.38676  0  0.935804  0
H  H7  1  0.16728700  0.53312832  0.89884375  1  0  0.415192  0  0.867745  0  0  0.393558  0  0.925744  0  0  0.402792  0  0.912232  0  0  0.305056  0.386777  0  0.935783  0
H  H8  1  0.24459374  0.09546056  0.51902936  1  0  0.437601  0  0.860421  0  0  0.407185  0  0.922826  0  0  0.418897  0  0.905771  0  0  0.299917  0.398916  0  0.934973  0
H  H9  1  0.75540598  0.40453891  0.01903187  1  0  0.437616  0  0.860405  0  0  0.407216  0  0.922781  0  0  0.418925  0  0.905731  0  0  0.299947  0.398946  0  0.934928  0
H  H10  1  0.75540473  0.90454421  0.48096989  1  0  0.437606  0  0.860422  0  0  0.407193  0  0.922823  0  0  0.418904  0  0.905769  0  0  0.299921  0.398923  0  0.93497  0
H  H11  1  0.24459353  0.59545796  0.98096911  1  0  0.437603  0  0.860427  0  0  0.407187  0  0.922831  0  0  0.418898  0  0.905778  0  0  0.299918  0.398917  0  0.93498  0
H  H12  1  0.82687238  0.88366113  0.64499616  1  0  0.310285  0  0.829564  0  0  0.297238  0  0.87662  0  0  0.304102  0  0.871895  0  0  0.362756  0.292395  0  0.879991  0
H  H13  1  0.17313032  0.61634089  0.14499601  1  0  0.310284  0  0.829601  0  0  0.297231  0  0.876646  0  0  0.304092  0  0.871927  0  0  0.362762  0.292388  0  0.880017  0
H  H14  1  0.17312018  0.11633463  0.35500599  1  0  0.310301  0  0.829616  0  0  0.297248  0  0.87664  0  0  0.304111  0  0.871911  0  0  0.36274  0.292407  0  0.880009  0
H  H15  1  0.82686837  0.38365732  0.85500671  1  0  0.310182  0  0.829693  0  0  0.297273  0  0.876636  0  0  0.304136  0  0.871906  0  0  0.36275  0.292431  0  0.880007  0
H  H16  1  0.95191854  0.89675507  0.78218925  1  0  0.140409  0  0.962407  0  0  0.147199  0  1.024301  0  0  0.152392  0  1.018591  0  0  0.135965  0.143475  0  1.028172  0
H  H17  1  0.04809243  0.60324224  0.28218898  1  0  0.140437  0  0.96246  0  0  0.147213  0  1.02437  0  0  0.1524  0  1.018661  0  0  0.135992  0.143487  0  1.028235  0
H  H18  1  0.04808416  0.10324695  0.21781173  1  0  0.140428  0  0.962418  0  0  0.147213  0  1.024312  0  0  0.152411  0  1.018603  0  0  0.135977  0.143491  0  1.028191  0
H  H19  1  0.95191247  0.39674791  0.71781490  1  0  0.140418  0  0.962403  0  0  0.147187  0  1.024319  0  0  0.152376  0  1.01861  0  0  0.13594  0.14346  0  1.028187  0
H  H20  1  0.90700976  0.50617896  0.58178298  1  0  0.442774  0  0.853883  0  0  0.412135  0  0.91673  0  0  0.423498  0  0.90036  0  0  0.301198  0.404173  0  0.928295  0
H  H21  1  0.09298864  0.99381950  0.08177998  1  0  0.442776  0  0.853883  0  0  0.412136  0  0.91673  0  0  0.4235  0  0.900359  0  0  0.301213  0.404175  0  0.928295  0
H  H22  1  0.09298022  0.49381688  0.41821858  1  0  0.442796  0  0.853848  0  0  0.412158  0  0.91669  0  0  0.42352  0  0.90032  0  0  0.30122  0.404197  0  0.928255  0
H  H23  1  0.90701888  0.00618501  0.91821985  1  0  0.442795  0  0.853854  0  0  0.41215  0  0.91671  0  0  0.423513  0  0.900339  0  0  0.301211  0.40419  0  0.928273  0
H  H24  1  0.92508828  0.65915230  0.52536656  1  0  0.439828  0  0.833776  0  0  0.413928  0  0.899781  0  0  0.42379  0  0.885304  0  0  0.314818  0.406835  0  0.91037  0
H  H25  1  0.07490880  0.84083985  0.02536546  1  0  0.439873  0  0.833725  0  0  0.413992  0  0.899676  0  0  0.423853  0  0.8852  0  0  0.314886  0.4069  0  0.91026  0
H  H26  1  0.07490782  0.34084598  0.47463558  1  0  0.439814  0  0.83381  0  0  0.413928  0  0.899777  0  0  0.423789  0  0.885301  0  0  0.314848  0.406835  0  0.910362  0
H  H27  1  0.92509282  0.15915564  0.97463553  1  0  0.439835  0  0.833767  0  0  0.41395  0  0.899742  0  0  0.423812  0  0.885265  0  0  0.314869  0.406857  0  0.91033  0
C  C28  1  0.81085066  0.82564612  0.76538043  1  0  0.075129  0  3.564721  0  0  0.014866  0  3.832149  0  0  0.026095  0  3.840931  0  0  0.048727  0.008083  0  3.825283  0
C  C29  1  0.18914859  0.67435160  0.26537966  1  0  0.075065  0  3.564732  0  0  0.014818  0  3.83218  0  0  0.026054  0  3.840956  0  0  0.048692  0.008033  0  3.825307  0
C  C30  1  0.18915165  0.17434410  0.23462171  1  0  0.075137  0  3.564793  0  0  0.014828  0  3.832212  0  0  0.026045  0  3.840999  0  0  0.048669  0.008035  0  3.825348  0
C  C31  1  0.81085139  0.32564656  0.73462364  1  0  0.075074  0  3.564523  0  0  0.014933  0  3.832023  0  0  0.026162  0  3.8408  0  0  0.048727  0.00815  0  3.825154  0
C  C32  1  0.66141902  0.71929936  0.80729417  1  0  -0.184651  0  3.718885  0  0  -0.172819  0  3.978239  0  0  -0.185641  0  3.998653  0  0  -0.024714  -0.164402  0  3.963834  0
C  C33  1  0.33859357  0.78069125  0.30729402  1  0  -0.184496  0  3.718944  0  0  -0.172788  0  3.978418  0  0  -0.185609  0  3.998833  0  0  -0.024755  -0.16435  0  3.963986  0
C  C34  1  0.33858036  0.28069358  0.19270624  1  0  -0.184641  0  3.718856  0  0  -0.172846  0  3.978283  0  0  -0.185672  0  3.998703  0  0  -0.024744  -0.164412  0  3.963856  0
C  C35  1  0.66140886  0.21930291  0.69270812  1  0  -0.184644  0  3.718917  0  0  -0.172893  0  3.978392  0  0  -0.185717  0  3.99881  0  0  -0.024691  -0.164468  0  3.96397  0
C  C36  1  0.66722700  0.68302363  0.89118362  1  0  0.723637  0  3.899167  0  0  0.67261  0  4.195471  0  0  0.708389  0  4.188134  0  0  0.227069  0.648384  0  4.202311  0
C  C37  1  0.33278011  0.81697207  0.39118284  1  0  0.723533  0  3.899205  0  0  0.672565  0  4.195472  0  0  0.708342  0  4.188138  0  0  0.227086  0.648332  0  4.20231  0
C  C38  1  0.33276884  0.31696679  0.10881853  1  0  0.723664  0  3.899142  0  0  0.672626  0  4.195474  0  0  0.708406  0  4.188144  0  0  0.227102  0.648394  0  4.202313  0
C  C39  1  0.66722530  0.18303381  0.60881872  1  0  0.723782  0  3.898811  0  0  0.672718  0  4.195219  0  0  0.708496  0  4.187881  0  0  0.227141  0.648487  0  4.202063  0
C  C40  1  0.51503245  0.66528837  0.75222180  1  0  0.034009  0  3.71461  0  0  0.025062  0  3.978369  0  0  0.026946  0  3.997215  0  0  0.105518  0.023774  0  3.967066  0
C  C41  1  0.48497226  0.83470662  0.25222177  1  0  0.033945  0  3.714788  0  0  0.025034  0  3.978577  0  0  0.026919  0  3.997427  0  0  0.105532  0.023739  0  3.967263  0
C  C42  1  0.48496766  0.33471373  0.24777860  1  0  0.034073  0  3.714468  0  0  0.025135  0  3.978259  0  0  0.02702  0  3.997108  0  0  0.10557  0.023843  0  3.96695  0
C  C43  1  0.51503324  0.16528876  0.74777864  1  0  0.033941  0  3.714727  0  0  0.025024  0  3.978488  0  0  0.026902  0  3.997334  0  0  0.105516  0.023741  0  3.967166  0
C  C44  1  0.31591014  0.55732878  0.75449787  1  0  0.696253  0  3.883472  0  0  0.647463  0  4.18186  0  0  0.682524  0  4.171332  0  0  0.237862  0.623873  0  4.189756  0
C  C45  1  0.68409803  0.94267922  0.25449851  1  0  0.696076  0  3.883567  0  0  0.64726  0  4.182011  0  0  0.682318  0  4.171495  0  0  0.237833  0.623682  0  4.189882  0
C  C46  1  0.68409221  0.44267587  0.24549965  1  0  0.696234  0  3.883539  0  0  0.647416  0  4.181993  0  0  0.682475  0  4.171467  0  0  0.23782  0.623826  0  4.189887  0
C  C47  1  0.31589975  0.05733083  0.74550016  1  0  0.696188  0  3.883622  0  0  0.647411  0  4.182013  0  0  0.682495  0  4.171443  0  0  0.237866  0.623818  0  4.189909  0
C  C48  1  0.41296600  0.42269999  0.50991149  1  0  0.566968  0  3.907802  0  0  0.520195  0  4.208383  0  0  0.549829  0  4.203286  0  0  0.224561  0.499942  0  4.214159  0
C  C49  1  0.58702769  0.07730101  0.00991072  1  0  0.566864  0  3.907903  0  0  0.520158  0  4.208391  0  0  0.5498  0  4.203278  0  0  0.224566  0.499904  0  4.214167  0
C  C50  1  0.58703480  0.57729684  0.49008892  1  0  0.566973  0  3.907793  0  0  0.520256  0  4.20828  0  0  0.549906  0  4.203157  0  0  0.22457  0.500004  0  4.214056  0
C  C51  1  0.41296867  0.92270514  0.99008679  1  0  0.567005  0  3.907714  0  0  0.520208  0  4.208302  0  0  0.549854  0  4.203182  0  0  0.224533  0.499956  0  4.214079  0
N  N52  1  0.75134474  0.82942329  0.69223801  1  0  -0.09916  0  3.502008  0  0  -0.039184  0  3.752352  0  0  -0.050458  0  3.769568  0  0  -0.253196  -0.03176  0  3.741587  0
N  N53  1  0.24865771  0.67057724  0.19223731  1  0  -0.09923  0  3.502043  0  0  -0.039201  0  3.752327  0  0  -0.05047  0  3.769536  0  0  -0.253213  -0.031773  0  3.741562  0
N  N54  1  0.24865606  0.17057354  0.30776356  1  0  -0.099285  0  3.502077  0  0  -0.039193  0  3.752297  0  0  -0.050451  0  3.76949  0  0  -0.253159  -0.03177  0  3.741533  0
N  N55  1  0.75133545  0.32942375  0.80776483  1  0  -0.099019  0  3.501945  0  0  -0.039355  0  3.752498  0  0  -0.050612  0  3.769691  0  0  -0.253273  -0.031934  0  3.741734  0
N  N56  1  0.57318519  0.73717945  0.68296686  1  0  -0.319864  0  3.117062  0  0  -0.303242  0  3.404024  0  0  -0.31522  0  3.42156  0  0  -0.280428  -0.298493  0  3.392675  0
N  N57  1  0.42681886  0.76281845  0.18296511  1  0  -0.319811  0  3.117042  0  0  -0.303203  0  3.403978  0  0  -0.315183  0  3.421512  0  0  -0.280435  -0.298455  0  3.39263  0
N  N58  1  0.42681927  0.26282384  0.31703528  1  0  -0.319825  0  3.11696  0  0  -0.303246  0  3.403875  0  0  -0.315226  0  3.421406  0  0  -0.280422  -0.298495  0  3.392525  0
N  N59  1  0.57317936  0.23717845  0.81703530  1  0  -0.319849  0  3.116978  0  0  -0.303124  0  3.403977  0  0  -0.315109  0  3.421512  0  0  -0.280415  -0.298376  0  3.392623  0
O  O60  1  0.21718845  0.57751134  0.69843844  1  0  -0.675416  0  2.003378  0  0  -0.624969  0  2.244716  0  0  -0.654613  0  2.232252  0  0  -0.371483  -0.608035  0  2.251378  0
O  O61  1  0.78281321  0.92249051  0.19843807  1  0  -0.675361  0  2.003399  0  0  -0.624913  0  2.244744  0  0  -0.654557  0  2.232286  0  0  -0.371496  -0.607984  0  2.251405  0
O  O62  1  0.78281166  0.42249076  0.30155965  1  0  -0.675378  0  2.003418  0  0  -0.624933  0  2.244767  0  0  -0.654571  0  2.232304  0  0  -0.371439  -0.607998  0  2.251428  0
O  O63  1  0.21718138  0.07751438  0.80155887  1  0  -0.675336  0  2.003485  0  0  -0.624915  0  2.244825  0  0  -0.654568  0  2.232349  0  0  -0.371494  -0.607984  0  2.251491  0
O  O64  1  0.25445519  0.45217846  0.80987338  1  0  -0.729432  0  2.053947  0  0  -0.673833  0  2.299054  0  0  -0.703069  0  2.283393  0  0  -0.380786  -0.657172  0  2.307457  0
O  O65  1  0.74555039  0.04783940  0.30986994  1  0  -0.729297  0  2.05401  0  0  -0.673687  0  2.299106  0  0  -0.702918  0  2.28346  0  0  -0.380721  -0.657031  0  2.307501  0
O  O66  1  0.74555268  0.54782341  0.19012645  1  0  -0.729468  0  2.054044  0  0  -0.673863  0  2.299174  0  0  -0.703096  0  2.283514  0  0  -0.3808  -0.657203  0  2.30758  0
O  O67  1  0.25443838  0.95218534  0.69012411  1  0  -0.729366  0  2.05406  0  0  -0.673767  0  2.299166  0  0  -0.703014  0  2.283499  0  0  -0.380693  -0.657107  0  2.307566  0
O  O68  1  0.56559340  0.54040660  0.91901834  1  0  -0.76018  0  2.117859  0  0  -0.711226  0  2.387829  0  0  -0.742956  0  2.374686  0  0  -0.398893  -0.695028  0  2.396353  0
O  O69  1  0.43440927  0.95959437  0.41901752  1  0  -0.760119  0  2.117883  0  0  -0.711153  0  2.38777  0  0  -0.742886  0  2.374652  0  0  -0.39885  -0.694955  0  2.396299  0
O  O70  1  0.43440870  0.45959019  0.08098380  1  0  -0.760183  0  2.117648  0  0  -0.711227  0  2.38763  0  0  -0.74294  0  2.374445  0  0  -0.398873  -0.695025  0  2.396153  0
O  O71  1  0.56559131  0.04040903  0.58098463  1  0  -0.760191  0  2.117533  0  0  -0.711208  0  2.387515  0  0  -0.74294  0  2.374378  0  0  -0.398905  -0.695009  0  2.396042  0
O  O72  1  0.77713927  0.79798894  0.93440148  1  0  -0.712698  0  2.004573  0  0  -0.649193  0  2.2325  0  0  -0.679864  0  2.220723  0  0  -0.343527  -0.630904  0  2.239215  0
O  O73  1  0.22286921  0.70200261  0.43439956  1  0  -0.712701  0  2.004563  0  0  -0.64921  0  2.232472  0  0  -0.679874  0  2.220683  0  0  -0.343575  -0.630921  0  2.239191  0
O  O74  1  0.22286636  0.20201037  0.06559950  1  0  -0.712713  0  2.004663  0  0  -0.649199  0  2.232598  0  0  -0.679862  0  2.220802  0  0  -0.343556  -0.630911  0  2.239314  0
O  O75  1  0.77712396  0.29799838  0.56560085  1  0  -0.712783  0  2.004592  0  0  -0.649266  0  2.232562  0  0  -0.679922  0  2.22076  0  0  -0.343571  -0.630979  0  2.239282  0
O  O76  1  0.16206997  0.99299901  0.54739345  1  0  -0.865139  0  1.841324  0  0  -0.818846  0  2.025364  0  0  -0.841166  0  1.989759  0  0  -0.637463  -0.80623  0  2.047951  0
O  O77  1  0.83792181  0.50699977  0.04739769  1  0  -0.865187  0  1.841281  0  0  -0.818902  0  2.025364  0  0  -0.841223  0  1.989762  0  0  -0.637541  -0.806306  0  2.047923  0
O  O78  1  0.83792871  0.00699920  0.45260406  1  0  -0.8651  0  1.841297  0  0  -0.818835  0  2.025376  0  0  -0.841148  0  1.989772  0  0  -0.637457  -0.806235  0  2.047932  0
O  O79  1  0.16207300  0.49299855  0.95260445  1  0  -0.865122  0  1.841283  0  0  -0.818862  0  2.025404  0  0  -0.841183  0  1.989801  0  0  -0.637472  -0.806266  0  2.047962  0
O  O80  1  0.28573161  0.45354350  0.54762643  1  0  -0.649035  0  2.049725  0  0  -0.598897  0  2.28497  0  0  -0.625604  0  2.273405  0  0  -0.35021  -0.583767  0  2.291452  0
O  O81  1  0.71426660  0.04645853  0.04762296  1  0  -0.648963  0  2.049787  0  0  -0.598844  0  2.284996  0  0  -0.625551  0  2.273426  0  0  -0.350157  -0.583714  0  2.291478  0
O  O82  1  0.71426147  0.54646799  0.45237050  1  0  -0.648963  0  2.049881  0  0  -0.598847  0  2.285097  0  0  -0.625549  0  2.273521  0  0  -0.350134  -0.58372  0  2.29158  0
O  O83  1  0.28574619  0.95353532  0.95236588  1  0  -0.648995  0  2.049938  0  0  -0.598857  0  2.285187  0  0  -0.625562  0  2.273612  0  0  -0.350153  -0.583728  0  2.291667  0
O  O84  1  0.41110176  0.27431282  0.48570744  1  0  -0.673574  0  2.154624  0  0  -0.615651  0  2.394102  0  0  -0.645241  0  2.384791  0  0  -0.352731  -0.598319  0  2.399318  0
O  O85  1  0.58888825  0.22569171  0.98571039  1  0  -0.673575  0  2.154678  0  0  -0.615661  0  2.394109  0  0  -0.645262  0  2.384797  0  0  -0.35279  -0.598327  0  2.399322  0
O  O86  1  0.58888555  0.72569360  0.51429007  1  0  -0.673662  0  2.154467  0  0  -0.615711  0  2.39387  0  0  -0.645316  0  2.384555  0  0  -0.352792  -0.598376  0  2.399086  0
O  O87  1  0.41111691  0.77430631  0.01428713  1  0  -0.673653  0  2.154339  0  0  -0.615678  0  2.393765  0  0  -0.645281  0  2.384451  0  0  -0.352771  -0.598343  0  2.398981  0
O  O88  1  0.97272341  0.63334093  0.57508767  1  0  -0.892107  0  1.811794  0  0  -0.847097  0  2.009864  0  0  -0.870383  0  1.973763  0  0  -0.642901  -0.834722  0  2.032453  0
O  O89  1  0.02727591  0.86666015  0.07508416  1  0  -0.892141  0  1.811775  0  0  -0.847153  0  2.00984  0  0  -0.870436  0  1.973736  0  0  -0.642999  -0.834778  0  2.03243  0
O  O90  1  0.02727234  0.36665999  0.42491621  1  0  -0.892099  0  1.811837  0  0  -0.847108  0  2.009909  0  0  -0.870387  0  1.973812  0  0  -0.642981  -0.834734  0  2.0325  0
O  O91  1  0.97273066  0.13334176  0.92491683  1  0  -0.892124  0  1.811788  0  0  -0.847132  0  2.009878  0  0  -0.870416  0  1.973777  0  0  -0.643  -0.83476  0  2.032468  0
