# generated using pymatgen
data_CuH6C6N5
_symmetry_space_group_name_H-M   'P 1'
_cell_length_a   5.33431222
_cell_length_b   7.50918467
_cell_length_c   10.66334618
_cell_angle_alpha   89.99812480
_cell_angle_beta   89.99930534
_cell_angle_gamma   89.94328642
_symmetry_Int_Tables_number   1
_chemical_formula_structural   CuH6C6N5
_chemical_formula_sum   'Cu2 H12 C12 N10'
_cell_volume   427.13436286
_cell_formula_units_Z   2
loop_
 _symmetry_equiv_pos_site_id
 _symmetry_equiv_pos_as_xyz
  1  'x, y, z'
loop_
 _atom_site_type_symbol
 _atom_site_label
 _atom_site_symmetry_multiplicity
 _atom_site_fract_x
 _atom_site_fract_y
 _atom_site_fract_z
 _atom_site_occupancy
 _atom_site_hle17_bader_spin_density
 _atom_site_hle17_ddec_charge
 _atom_site_hle17_ddec_spin_density
 _atom_site_hle17_ddec_sum_bond_order
 _atom_site_hle17_magmom
 _atom_site_hse06_10hf_bader_spin_density
 _atom_site_hse06_10hf_ddec_charge
 _atom_site_hse06_10hf_ddec_spin_density
 _atom_site_hse06_10hf_ddec_sum_bond_order
 _atom_site_hse06_10hf_magmom
 _atom_site_hse06_bader_spin_density
 _atom_site_hse06_ddec_charge
 _atom_site_hse06_ddec_spin_density
 _atom_site_hse06_ddec_sum_bond_order
 _atom_site_hse06_magmom
 _atom_site_pbe_bader_spin_density
 _atom_site_pbe_cm5_charge
 _atom_site_pbe_ddec_charge
 _atom_site_pbe_ddec_spin_density
 _atom_site_pbe_ddec_sum_bond_order
 _atom_site_pbe_magmom
Cu  Cu0  1  0.36692138  0.74990753  0.75000788  1  0  0.674786  0  2.201116  0  0  0.5897  0  2.750139  0  0  0.575438  0  2.706134  0  0  0.647175  0.602853  0  2.776517  0
Cu  Cu1  1  0.63307074  0.25012227  0.24999575  1  0  0.674813  0  2.200769  0  0  0.589727  0  2.749846  0  0  0.575495  0  2.705786  0  0  0.647023  0.602837  0  2.776187  0
H  H2  1  0.57311990  0.75016037  0.97910972  1  0  0.149149  0  0.955506  0  0  0.161054  0  1.025604  0  0  0.164991  0  1.022216  0  0  0.107828  0.158128  0  1.028045  0
H  H3  1  0.57313733  0.75011123  0.52090553  1  0  0.149078  0  0.955402  0  0  0.161056  0  1.025457  0  0  0.16499  0  1.022068  0  0  0.107841  0.158135  0  1.027897  0
H  H4  1  0.42685908  0.24988674  0.02088359  1  0  0.149  0  0.955484  0  0  0.160972  0  1.02554  0  0  0.164902  0  1.022154  0  0  0.107807  0.158051  0  1.027977  0
H  H5  1  0.42676118  0.24979740  0.47911123  1  0  0.149284  0  0.955657  0  0  0.16108  0  1.025812  0  0  0.165011  0  1.022425  0  0  0.107845  0.158164  0  1.028247  0
H  H6  1  0.74263588  0.86928363  0.09747263  1  0  0.152936  0  0.936394  0  0  0.167606  0  0.999428  0  0  0.169543  0  0.998944  0  0  0.112693  0.166125  0  0.999831  0
H  H7  1  0.74268360  0.63073294  0.40254818  1  0  0.152798  0  0.936335  0  0  0.167492  0  0.999345  0  0  0.169417  0  0.998876  0  0  0.112644  0.166018  0  0.999741  0
H  H8  1  0.25735074  0.36926214  0.90255292  1  0  0.152778  0  0.936478  0  0  0.167469  0  0.999448  0  0  0.169395  0  0.99898  0  0  0.112647  0.165997  0  0.999844  0
H  H9  1  0.25733470  0.13072361  0.59744196  1  0  0.152947  0  0.936737  0  0  0.167614  0  0.999692  0  0  0.169551  0  0.999204  0  0  0.112729  0.166138  0  1.000099  0
H  H10  1  0.25737307  0.13078212  0.90252819  1  0  0.152821  0  0.936361  0  0  0.16751  0  0.999334  0  0  0.169446  0  0.998852  0  0  0.112672  0.166038  0  0.999728  0
H  H11  1  0.25735932  0.36911973  0.59742263  1  0  0.152908  0  0.936548  0  0  0.16767  0  0.999319  0  0  0.169589  0  0.998853  0  0  0.112779  0.166211  0  0.999702  0
H  H12  1  0.74263574  0.63078364  0.09745352  1  0  0.152878  0  0.936396  0  0  0.167596  0  0.999348  0  0  0.16952  0  0.998881  0  0  0.112739  0.166127  0  0.999735  0
H  H13  1  0.74266124  0.86924492  0.40252791  1  0  0.152852  0  0.936378  0  0  0.167563  0  0.999349  0  0  0.169498  0  0.99887  0  0  0.112657  0.166086  0  0.999745  0
C  C14  1  0.68381277  0.39973401  0.75000252  1  0  0.490256  0  3.984178  0  0  0.466927  0  4.253901  0  0  0.486826  0  4.268525  0  0  0.301599  0.453653  0  4.243492  0
C  C15  1  0.68378553  0.09964543  0.74999647  1  0  0.490932  0  3.982337  0  0  0.467399  0  4.252352  0  0  0.487294  0  4.266974  0  0  0.301794  0.454124  0  4.241945  0
C  C16  1  0.31624599  0.90036039  0.25000060  1  0  0.490941  0  3.982334  0  0  0.467409  0  4.252335  0  0  0.487311  0  4.266962  0  0  0.301937  0.454137  0  4.241918  0
C  C17  1  0.31618124  0.60028913  0.25000393  1  0  0.490451  0  3.984257  0  0  0.46718  0  4.253846  0  0  0.487083  0  4.268473  0  0  0.301892  0.453913  0  4.243429  0
C  C18  1  0.74278323  0.75004132  0.03779513  1  0  -0.377122  0  3.745241  0  0  -0.442824  0  3.971579  0  0  -0.447078  0  3.976023  0  0  -0.211927  -0.439548  0  3.968668  0
C  C19  1  0.74277807  0.74999385  0.46220037  1  0  -0.376749  0  3.74481  0  0  -0.442578  0  3.97117  0  0  -0.446826  0  3.975617  0  0  -0.211735  -0.439305  0  3.968256  0
C  C20  1  0.25719013  0.25001112  0.96221038  1  0  -0.376777  0  3.745593  0  0  -0.442488  0  3.971804  0  0  -0.446735  0  3.976246  0  0  -0.211809  -0.439219  0  3.968892  0
C  C21  1  0.25717856  0.24991877  0.53778169  1  0  -0.377369  0  3.74725  0  0  -0.44281  0  3.973135  0  0  -0.447062  0  3.977569  0  0  -0.211941  -0.439545  0  3.970231  0
C  C22  1  0.96094140  0.74986684  0.95810232  1  0  0.440848  0  3.6778  0  0  0.431539  0  3.953038  0  0  0.443075  0  3.968765  0  0  0.213699  0.42352  0  3.942791  0
C  C23  1  0.96096095  0.74984758  0.54188307  1  0  0.440774  0  3.677117  0  0  0.431459  0  3.9524  0  0  0.442992  0  3.968141  0  0  0.213687  0.423445  0  3.94215  0
C  C24  1  0.03905071  0.25016962  0.04190037  1  0  0.440774  0  3.678022  0  0  0.431398  0  3.953297  0  0  0.442942  0  3.969025  0  0  0.213557  0.423374  0  3.943047  0
C  C25  1  0.03909686  0.25011429  0.45813088  1  0  0.441134  0  3.678053  0  0  0.431742  0  3.953266  0  0  0.44328  0  3.968993  0  0  0.213657  0.42372  0  3.943022  0
N  N26  1  0.80563502  0.24959093  0.74999707  1  0  -0.470175  0  3.239528  0  0  -0.414543  0  3.486252  0  0  -0.437902  0  3.495131  0  0  -0.313353  -0.398251  0  3.479457  0
N  N27  1  0.19436086  0.75043754  0.24999906  1  0  -0.470259  0  3.239209  0  0  -0.414638  0  3.485956  0  0  -0.438009  0  3.494827  0  0  -0.313552  -0.398369  0  3.479168  0
N  N28  1  0.58356704  0.53961759  0.75000655  1  0  -0.611765  0  3.043887  0  0  -0.573291  0  3.368904  0  0  -0.583943  0  3.366639  0  0  -0.425909  -0.566759  0  3.369671  0
N  N29  1  0.58336087  0.95995498  0.74999869  1  0  -0.612416  0  3.043784  0  0  -0.573863  0  3.369066  0  0  -0.584519  0  3.366798  0  0  -0.425814  -0.567326  0  3.369834  0
N  N30  1  0.41668752  0.04004417  0.24999931  1  0  -0.612456  0  3.043854  0  0  -0.573899  0  3.369172  0  0  -0.584559  0  3.366892  0  0  -0.425936  -0.567353  0  3.369913  0
N  N31  1  0.41645506  0.46043617  0.24999614  1  0  -0.61187  0  3.044206  0  0  -0.573393  0  3.36918  0  0  -0.584045  0  3.366905  0  0  -0.42605  -0.566855  0  3.369922  0
N  N32  1  0.13590511  0.74986050  0.89267359  1  0  -0.499479  0  3.036435  0  0  -0.466118  0  3.357627  0  0  -0.471639  0  3.356294  0  0  -0.377765  -0.46348  0  3.358556  0
N  N33  1  0.13591194  0.74982294  0.60732882  1  0  -0.49958  0  3.035877  0  0  -0.466243  0  3.357138  0  0  -0.471753  0  3.355779  0  0  -0.37784  -0.46361  0  3.358082  0
N  N34  1  0.86406450  0.25018528  0.10732442  1  0  -0.499445  0  3.036375  0  0  -0.466093  0  3.357657  0  0  -0.471607  0  3.356293  0  0  -0.37764  -0.463447  0  3.358572  0
N  N35  1  0.86413648  0.25014692  0.39270388  1  0  -0.499674  0  3.035145  0  0  -0.466383  0  3.356419  0  0  -0.471909  0  3.355068  0  0  -0.37763  -0.463726  0  3.357326  0
