# generated using pymatgen
data_CuH7C10IN2
_symmetry_space_group_name_H-M   'P 1'
_cell_length_a   9.78367535
_cell_length_b   9.78368944
_cell_length_c   16.62443722
_cell_angle_alpha   96.05573290
_cell_angle_beta   96.05566086
_cell_angle_gamma   89.02407031
_symmetry_Int_Tables_number   1
_chemical_formula_structural   CuH7C10IN2
_chemical_formula_sum   'Cu4 H28 C40 I4 N8'
_cell_volume   1573.56049568
_cell_formula_units_Z   4
loop_
 _symmetry_equiv_pos_site_id
 _symmetry_equiv_pos_as_xyz
  1  'x, y, z'
loop_
 _atom_site_type_symbol
 _atom_site_label
 _atom_site_symmetry_multiplicity
 _atom_site_fract_x
 _atom_site_fract_y
 _atom_site_fract_z
 _atom_site_occupancy
 _atom_site_pbe_bader_charge
 _atom_site_pbe_bader_spin_density
 _atom_site_pbe_cm5_charge
 _atom_site_pbe_ddec_charge
 _atom_site_pbe_ddec_spin_density
 _atom_site_pbe_ddec_sum_bond_order
 _atom_site_pbe_magmom
Cu  Cu0  1  0.08917625  0.40992162  0.47895458  1  0.518536  0  0.357404  0.206735  0  2.625148  0
Cu  Cu1  1  0.59008469  0.91081362  0.02104552  1  0.518589  0  0.357428  0.206803  0  2.625081  0
Cu  Cu2  1  0.91080719  0.59009810  0.52105518  1  0.518732  0  0.357452  0.206806  0  2.625117  0
Cu  Cu3  1  0.40990418  0.08918760  0.97895082  1  0.518552  0  0.357407  0.20678  0  2.625035  0
H  H4  1  0.22548468  0.42968887  0.33240243  1  0.072279  0  0.101991  0.073989  0  1.048144  0
H  H5  1  0.02407628  0.14394140  0.14295206  1  0.087069  0  0.111348  0.115397  0  1.004923  0
H  H6  1  0.90008207  0.20427982  0.38632852  1  0.127174  0  0.096412  0.080235  0  1.064882  0
H  H7  1  0.24048327  0.11713884  0.11379668  1  0.112267  0  0.094352  0.075498  0  1.072299  0
H  H8  1  0.25702748  0.54330564  0.21492539  1  0.076692  0  0.108986  0.1105  0  0.992612  0
H  H9  1  0.42902073  0.57955782  0.11746878  1  0.099333  0  0.09438  0.100956  0  1.042422  0
H  H10  1  0.49804261  0.37895355  0.02295404  1  0.107312  0  0.100336  0.075305  0  1.040887  0
H  H11  1  0.57030913  0.77452061  0.16759685  1  0.07211  0  0.101987  0.074038  0  1.048155  0
H  H12  1  0.85605834  0.97592254  0.35705233  1  0.086977  0  0.111388  0.115417  0  1.004965  0
H  H13  1  0.79571128  0.09992556  0.11367260  1  0.126948  0  0.096368  0.080173  0  1.064893  0
H  H14  1  0.88286044  0.75951714  0.38620529  1  0.112252  0  0.09434  0.07548  0  1.072382  0
H  H15  1  0.45669179  0.74297785  0.28507268  1  0.076727  0  0.108963  0.110466  0  0.992591  0
H  H16  1  0.42043308  0.57098286  0.38253237  1  0.099355  0  0.094385  0.100945  0  1.042329  0
H  H17  1  0.62104746  0.50196554  0.47704970  1  0.107354  0  0.100308  0.075258  0  1.04096  0
H  H18  1  0.77451676  0.57030123  0.66759881  1  0.072075  0  0.10199  0.073993  0  1.048135  0
H  H19  1  0.97592507  0.85605385  0.85705069  1  0.087048  0  0.111357  0.115423  0  1.004839  0
H  H20  1  0.09991522  0.79571332  0.61367385  1  0.127048  0  0.096372  0.080128  0  1.064896  0
H  H21  1  0.75952226  0.88285024  0.88619572  1  0.112278  0  0.094384  0.075597  0  1.072513  0
H  H22  1  0.74298422  0.45668562  0.78507473  1  0.07672  0  0.108978  0.11047  0  0.992512  0
H  H23  1  0.57098480  0.42043441  0.88253524  1  0.099174  0  0.094332  0.100824  0  1.042184  0
H  H24  1  0.50196583  0.62104796  0.97705071  1  0.107088  0  0.100227  0.075031  0  1.040851  0
H  H25  1  0.42969105  0.22548181  0.83240505  1  0.072092  0  0.101958  0.073981  0  1.048171  0
H  H26  1  0.14395018  0.02407382  0.64294911  1  0.087263  0  0.111352  0.115429  0  1.004961  0
H  H27  1  0.20428573  0.90008092  0.88632756  1  0.127021  0  0.096395  0.080169  0  1.064803  0
H  H28  1  0.11715023  0.24047621  0.61380332  1  0.112275  0  0.09435  0.075544  0  1.072381  0
H  H29  1  0.54331870  0.25702264  0.71492732  1  0.076589  0  0.108975  0.110484  0  0.992455  0
H  H30  1  0.57956085  0.42902255  0.61746634  1  0.099373  0  0.094358  0.100923  0  1.042295  0
H  H31  1  0.37894871  0.49802959  0.52294431  1  0.107056  0  0.100293  0.075252  0  1.040981  0
C  C32  1  0.14769358  0.35245831  0.30991526  1  0.489928  0  0.039401  0.034323  0  3.894203  0
C  C33  1  0.13728966  0.29235160  0.22930969  1  -0.009145  0  -0.001859  0.039952  0  4.021076  0
C  C34  1  0.03512303  0.19350016  0.20513480  1  -0.018225  0  -0.06624  -0.135506  0  3.895096  0
C  C35  1  0.94851810  0.15763093  0.26124085  1  -0.000259  0  -0.001854  0.041627  0  4.019197  0
C  C36  1  0.96686092  0.22442717  0.34027068  1  0.458065  0  0.040749  0.037516  0  3.873247  0
C  C37  1  0.27731167  0.22243864  0.11604672  1  0.459456  0  0.039101  0.040093  0  3.878438  0
C  C38  1  0.23518924  0.32627920  0.17289113  1  -0.02909  0  -0.003883  0.032355  0  4.005974  0
C  C39  1  0.29033527  0.45794507  0.17373678  1  -0.021836  0  -0.070387  -0.088381  0  3.938784  0
C  C40  1  0.38556235  0.47823566  0.11950733  1  -0.043475  0  -0.088963  -0.118269  0  4.006502  0
C  C41  1  0.42197060  0.36866153  0.06540408  1  0.475916  0  0.034682  0.078987  0  3.917333  0
C  C42  1  0.64753946  0.85231221  0.19008404  1  0.490005  0  0.039409  0.034238  0  3.894402  0
C  C43  1  0.70765262  0.86271088  0.27068906  1  -0.009186  0  -0.001922  0.039853  0  4.021151  0
C  C44  1  0.80650285  0.96487981  0.29486824  1  -0.018334  0  -0.066185  -0.135381  0  3.894891  0
C  C45  1  0.84236486  0.05148421  0.23875659  1  0.037741  0  -0.001936  0.041625  0  4.019095  0
C  C46  1  0.77556957  0.03313799  0.15972723  1  0.45829  0  0.040756  0.037545  0  3.873047  0
C  C47  1  0.77756563  0.72269296  0.38395342  1  0.459208  0  0.039132  0.040126  0  3.878266  0
C  C48  1  0.67372068  0.76480702  0.32710589  1  -0.02914  0  -0.003873  0.032418  0  4.006047  0
C  C49  1  0.54205527  0.70966794  0.32626491  1  -0.021709  0  -0.070379  -0.088395  0  3.93891  0
C  C50  1  0.52176783  0.61443942  0.38049324  1  -0.043473  0  -0.088938  -0.11824  0  4.006529  0
C  C51  1  0.63133871  0.57803439  0.43459404  1  0.475927  0  0.034679  0.079019  0  3.917576  0
C  C52  1  0.85230256  0.64753994  0.69008375  1  0.490087  0  0.039356  0.034184  0  3.894288  0
C  C53  1  0.86270640  0.70765076  0.77069076  1  -0.009032  0  -0.001886  0.039998  0  4.020861  0
C  C54  1  0.96488533  0.80650338  0.79486466  1  -0.018398  0  -0.066172  -0.135462  0  3.894854  0
C  C55  1  0.05148528  0.84236432  0.73875661  1  3.3e-05  0  -0.001942  0.041617  0  4.019146  0
C  C56  1  0.03313322  0.77556796  0.65972862  1  0.458336  0  0.040812  0.037721  0  3.872734  0
C  C57  1  0.72269041  0.77757099  0.88395333  1  0.458979  0  0.039118  0.039999  0  3.878111  0
C  C58  1  0.76480604  0.67370978  0.82710727  1  -0.028854  0  -0.003945  0.032192  0  4.006026  0
C  C59  1  0.70965778  0.54205419  0.82626631  1  -0.02196  0  -0.070346  -0.08826  0  3.939091  0
C  C60  1  0.61444580  0.52177918  0.88049280  1  -0.042844  0  -0.088858  -0.118116  0  4.00671  0
C  C61  1  0.57803789  0.63133376  0.93458888  1  0.475727  0  0.034718  0.079222  0  3.917827  0
C  C62  1  0.35245547  0.14769527  0.80991484  1  0.49009  0  0.039403  0.034276  0  3.894293  0
C  C63  1  0.29235570  0.13729472  0.72930931  1  -0.009194  0  -0.001879  0.03999  0  4.021002  0
C  C64  1  0.19350243  0.03512370  0.70513224  1  -0.018404  0  -0.066266  -0.135566  0  3.895004  0
C  C65  1  0.15763417  0.94852332  0.76124195  1  0.037449  0  -0.00187  0.04155  0  4.01915  0
C  C66  1  0.22443165  0.96686236  0.84026860  1  0.458305  0  0.040761  0.037676  0  3.872915  0
C  C67  1  0.22243242  0.27731251  0.61604614  1  0.45915  0  0.039085  0.039932  0  3.878247  0
C  C68  1  0.32628458  0.23519751  0.67289405  1  -0.029124  0  -0.003936  0.032362  0  4.005886  0
C  C69  1  0.45794486  0.29033757  0.67373838  1  -0.021734  0  -0.070426  -0.088434  0  3.938902  0
C  C70  1  0.47822523  0.38555880  0.61950738  1  -0.043423  0  -0.088895  -0.118199  0  4.006562  0
C  C71  1  0.36865218  0.42196997  0.56540743  1  0.476385  0  0.034732  0.078998  0  3.917716  0
I  I72  1  0.86055686  0.32957878  0.54401178  1  -0.529169  0  -0.272036  -0.471487  0  1.595971  0
I  I73  1  0.67041454  0.13944311  0.95598370  1  -0.529083  0  -0.272048  -0.471514  0  1.595928  0
I  I74  1  0.13944555  0.67041233  0.45598236  1  -0.529053  0  -0.272045  -0.471498  0  1.596021  0
I  I75  1  0.32959087  0.86055423  0.04401762  1  -0.52911  0  -0.272037  -0.471495  0  1.596062  0
N  N76  1  0.06459748  0.31955442  0.36457583  1  -1.230583  0  -0.356184  -0.16163  0  3.669772  0
N  N77  1  0.36740527  0.24205339  0.06264524  1  -1.221186  0  -0.357683  -0.168202  0  3.652006  0
N  N78  1  0.68044115  0.93540081  0.13541930  1  -1.230641  0  -0.356209  -0.161642  0  3.669794  0
N  N79  1  0.75794669  0.63259592  0.43735803  1  -1.221055  0  -0.35767  -0.168234  0  3.651959  0
N  N80  1  0.93539164  0.68043447  0.63542159  1  -1.230808  0  -0.356254  -0.161663  0  3.669679  0
N  N81  1  0.63258268  0.75794374  0.93735742  1  -1.220985  0  -0.357676  -0.168181  0  3.651913  0
N  N82  1  0.31955689  0.06460464  0.86457785  1  -1.230631  0  -0.356147  -0.161639  0  3.669639  0
N  N83  1  0.24204826  0.36740949  0.56263893  1  -1.22129  0  -0.357622  -0.168026  0  3.651898  0
