# generated using pymatgen
data_CaH6C14(SO4)2
_symmetry_space_group_name_H-M   'P 1'
_cell_length_a   5.36237789
_cell_length_b   9.56218282
_cell_length_c   14.81404785
_cell_angle_alpha   101.86911709
_cell_angle_beta   90.00006721
_cell_angle_gamma   90.00068196
_symmetry_Int_Tables_number   1
_chemical_formula_structural   CaH6C14(SO4)2
_chemical_formula_sum   'Ca2 H12 C28 S4 O16'
_cell_volume   743.36529817
_cell_formula_units_Z   2
loop_
 _symmetry_equiv_pos_site_id
 _symmetry_equiv_pos_as_xyz
  1  'x, y, z'
loop_
 _atom_site_type_symbol
 _atom_site_label
 _atom_site_symmetry_multiplicity
 _atom_site_fract_x
 _atom_site_fract_y
 _atom_site_fract_z
 _atom_site_occupancy
 _atom_site_hle17_bader_spin_density
 _atom_site_hle17_ddec_charge
 _atom_site_hle17_ddec_spin_density
 _atom_site_hle17_ddec_sum_bond_order
 _atom_site_hle17_magmom
 _atom_site_hse06_10hf_bader_spin_density
 _atom_site_hse06_10hf_ddec_charge
 _atom_site_hse06_10hf_ddec_spin_density
 _atom_site_hse06_10hf_ddec_sum_bond_order
 _atom_site_hse06_10hf_magmom
 _atom_site_hse06_bader_spin_density
 _atom_site_hse06_ddec_charge
 _atom_site_hse06_ddec_spin_density
 _atom_site_hse06_ddec_sum_bond_order
 _atom_site_hse06_magmom
 _atom_site_pbe_bader_spin_density
 _atom_site_pbe_cm5_charge
 _atom_site_pbe_ddec_charge
 _atom_site_pbe_ddec_spin_density
 _atom_site_pbe_ddec_sum_bond_order
 _atom_site_pbe_magmom
Ca  Ca0  1  0.50000114  0.49999847  0.99999835  1  0  1.633926  0  1.081338  0  0  1.514833  0  1.434487  0  0  1.553271  0  1.389379  0  0  0.972689  1.485549  0  1.467135  0
Ca  Ca1  1  0.99999811  0.00000110  0.99999922  1  0  1.633924  0  1.081373  0  0  1.514818  0  1.434584  0  0  1.553246  0  1.389482  0  0  0.972689  1.485507  0  1.46723  0
H  H2  1  0.35787093  0.74909247  0.78588517  1  0  0.118466  0  0.928196  0  0  0.127111  0  0.987631  0  0  0.130904  0  0.985161  0  0  0.119971  0.124196  0  0.989709  0
H  H3  1  0.85784341  0.75090065  0.21411548  1  0  0.118481  0  0.928006  0  0  0.127131  0  0.98743  0  0  0.130919  0  0.984956  0  0  0.119935  0.12421  0  0.989505  0
H  H4  1  0.64212991  0.25091893  0.21411441  1  0  0.118448  0  0.928171  0  0  0.127145  0  0.987524  0  0  0.13094  0  0.985052  0  0  0.120004  0.124237  0  0.989596  0
H  H5  1  0.14213505  0.24909119  0.78588786  1  0  0.118418  0  0.928091  0  0  0.127088  0  0.987507  0  0  0.130877  0  0.985035  0  0  0.119967  0.124174  0  0.989586  0
H  H6  1  0.46091833  0.72581325  0.61818052  1  0  0.102741  0  0.954219  0  0  0.108994  0  1.020691  0  0  0.111863  0  1.020177  0  0  0.10748  0.106874  0  1.021266  0
H  H7  1  0.96087063  0.77419026  0.38182181  1  0  0.102619  0  0.9545  0  0  0.108904  0  1.020949  0  0  0.111791  0  1.020412  0  0  0.107428  0.106785  0  1.021518  0
H  H8  1  0.53911048  0.27419488  0.38181992  1  0  0.102606  0  0.954378  0  0  0.108876  0  1.020873  0  0  0.111751  0  1.020351  0  0  0.107389  0.106758  0  1.021444  0
H  H9  1  0.03909664  0.22581119  0.61818300  1  0  0.102674  0  0.954357  0  0  0.108942  0  1.020816  0  0  0.111786  0  1.020331  0  0  0.107437  0.106824  0  1.021393  0
H  H10  1  0.72613756  0.46878191  0.71018210  1  0  0.121817  0  0.937556  0  0  0.129367  0  0.999254  0  0  0.133739  0  0.996357  0  0  0.116851  0.126162  0  1.001441  0
H  H11  1  0.22612189  0.03121403  0.28981537  1  0  0.121761  0  0.93758  0  0  0.129361  0  0.999233  0  0  0.133681  0  0.996396  0  0  0.116852  0.126166  0  1.001401  0
H  H12  1  0.27388565  0.53121123  0.28981672  1  0  0.121762  0  0.937583  0  0  0.129356  0  0.999247  0  0  0.133676  0  0.996409  0  0  0.116852  0.126169  0  1.001407  0
H  H13  1  0.77386961  0.96879010  0.71017905  1  0  0.121787  0  0.937651  0  0  0.129366  0  0.999295  0  0  0.133735  0  0.996401  0  0  0.116863  0.126165  0  1.001477  0
C  C14  1  0.03957787  0.60767304  0.75707151  1  0  -0.109111  0  3.710984  0  0  -0.082086  0  3.956673  0  0  -0.089559  0  3.978455  0  0  -0.002021  -0.077348  0  3.942159  0
C  C15  1  0.53955134  0.89232859  0.24292546  1  0  -0.109263  0  3.711302  0  0  -0.082087  0  3.95675  0  0  -0.089556  0  3.978511  0  0  -0.002004  -0.077346  0  3.942222  0
C  C16  1  0.96043602  0.39233202  0.24292575  1  0  -0.109282  0  3.711252  0  0  -0.082135  0  3.956755  0  0  -0.089604  0  3.978517  0  0  -0.002047  -0.0774  0  3.942243  0
C  C17  1  0.46043084  0.10766893  0.75707200  1  0  -0.109065  0  3.710975  0  0  -0.08234  0  3.957063  0  0  -0.089812  0  3.978842  0  0  -0.002093  -0.077607  0  3.942555  0
C  C18  1  0.24595350  0.68200880  0.73254790  1  0  -0.028596  0  3.671046  0  0  -0.05547  0  3.921863  0  0  -0.053984  0  3.939724  0  0  -0.058871  -0.056224  0  3.909844  0
C  C19  1  0.74592730  0.81799064  0.26745971  1  0  -0.028825  0  3.671092  0  0  -0.055711  0  3.921876  0  0  -0.054214  0  3.939733  0  0  -0.058869  -0.056454  0  3.909835  0
C  C20  1  0.75405853  0.31800016  0.26745739  1  0  -0.028725  0  3.671099  0  0  -0.05563  0  3.921903  0  0  -0.054146  0  3.939767  0  0  -0.058898  -0.056389  0  3.90988  0
C  C21  1  0.25405488  0.18200650  0.73254512  1  0  -0.028612  0  3.670935  0  0  -0.055411  0  3.921835  0  0  -0.053917  0  3.93968  0  0  -0.058851  -0.056155  0  3.909811  0
C  C22  1  0.30212625  0.66968745  0.63974181  1  0  -0.037653  0  3.66174  0  0  -0.062681  0  3.918856  0  0  -0.064938  0  3.9381  0  0  -0.063958  -0.061206  0  3.905798  0
C  C23  1  0.80210396  0.83030828  0.36026258  1  0  -0.037331  0  3.661979  0  0  -0.062437  0  3.919093  0  0  -0.06471  0  3.938331  0  0  -0.063944  -0.060968  0  3.906034  0
C  C24  1  0.69788577  0.33031090  0.36026051  1  0  -0.037252  0  3.661583  0  0  -0.062385  0  3.918753  0  0  -0.064649  0  3.938001  0  0  -0.063901  -0.06091  0  3.905697  0
C  C25  1  0.19787823  0.16968900  0.63973957  1  0  -0.03751  0  3.661703  0  0  -0.062549  0  3.918781  0  0  -0.064788  0  3.938034  0  0  -0.063901  -0.061078  0  3.905732  0
C  C26  1  0.15421716  0.58524653  0.57169495  1  0  -0.006717  0  3.700187  0  0  -0.001963  0  3.9368  0  0  -0.003367  0  3.956388  0  0  0.004194  -0.00075  0  3.923505  0
C  C27  1  0.65418161  0.91475049  0.42830411  1  0  -0.006891  0  3.700056  0  0  -0.001986  0  3.93668  0  0  -0.003385  0  3.956279  0  0  0.004172  -0.000795  0  3.923387  0
C  C28  1  0.84581911  0.41474765  0.42830470  1  0  -0.00701  0  3.700119  0  0  -0.002112  0  3.936731  0  0  -0.003513  0  3.956328  0  0  0.004124  -0.000925  0  3.923433  0
C  C29  1  0.34579498  0.08525016  0.57169518  1  0  -0.006783  0  3.700235  0  0  -0.001981  0  3.936872  0  0  -0.003384  0  3.956455  0  0  0.004145  -0.000774  0  3.923582  0
C  C30  1  0.94569550  0.51271798  0.59716197  1  0  -0.041565  0  3.715306  0  0  -0.029736  0  3.952485  0  0  -0.036366  0  3.975743  0  0  -0.002825  -0.025393  0  3.93682  0
C  C31  1  0.44565920  0.98727915  0.40283667  1  0  -0.041508  0  3.715518  0  0  -0.029801  0  3.952746  0  0  -0.036436  0  3.975998  0  0  -0.00294  -0.025435  0  3.937074  0
C  C32  1  0.05434263  0.48727517  0.40283685  1  0  -0.04145  0  3.715554  0  0  -0.029739  0  3.952772  0  0  -0.036373  0  3.976024  0  0  -0.002882  -0.025371  0  3.937105  0
C  C33  1  0.55430807  0.01272578  0.59716327  1  0  -0.041466  0  3.715121  0  0  -0.029748  0  3.952472  0  0  -0.036376  0  3.975728  0  0  -0.00282  -0.02539  0  3.936805  0
C  C34  1  0.88884767  0.52416441  0.69068252  1  0  -0.058056  0  3.690451  0  0  -0.093436  0  3.938381  0  0  -0.09239  0  3.957801  0  0  -0.065499  -0.093731  0  3.925206  0
C  C35  1  0.38881866  0.97583432  0.30931834  1  0  -0.057936  0  3.690551  0  0  -0.093394  0  3.938502  0  0  -0.092303  0  3.957942  0  0  -0.065482  -0.093705  0  3.925303  0
C  C36  1  0.11118114  0.47583301  0.30931695  1  0  -0.057944  0  3.69051  0  0  -0.093394  0  3.938462  0  0  -0.0923  0  3.957897  0  0  -0.065481  -0.093706  0  3.925261  0
C  C37  1  0.61116539  0.02416937  0.69068479  1  0  -0.058127  0  3.690508  0  0  -0.093388  0  3.938542  0  0  -0.09234  0  3.957961  0  0  -0.065513  -0.093686  0  3.925365  0
C  C38  1  0.21806937  0.57568249  0.47317070  1  0  0.385937  0  3.730561  0  0  0.362441  0  4.000957  0  0  0.384526  0  4.002032  0  0  0.163379  0.347193  0  4.000289  0
C  C39  1  0.71806750  0.92430823  0.52683488  1  0  0.385854  0  3.730675  0  0  0.362146  0  4.001394  0  0  0.384222  0  4.002466  0  0  0.163262  0.346933  0  4.000699  0
C  C40  1  0.78194638  0.42430277  0.52683501  1  0  0.385948  0  3.730773  0  0  0.362276  0  4.001323  0  0  0.384357  0  4.002394  0  0  0.163328  0.347087  0  4.00059  0
C  C41  1  0.28193520  0.07568788  0.47316912  1  0  0.385925  0  3.730719  0  0  0.362443  0  4.001083  0  0  0.384529  0  4.002154  0  0  0.163409  0.347204  0  4.000407  0
S  S42  1  0.97393580  0.61857810  0.87579520  1  0  1.386452  0  5.633095  0  0  1.286618  0  6.150925  0  0  1.336994  0  6.123582  0  0  0.568008  1.25159  0  6.168774  0
S  S43  1  0.47392181  0.88141613  0.12420099  1  0  1.38655  0  5.633596  0  0  1.286686  0  6.151411  0  0  1.337064  0  6.124064  0  0  0.568012  1.251663  0  6.169257  0
S  S44  1  0.02607249  0.38142696  0.12420206  1  0  1.38663  0  5.633319  0  0  1.286731  0  6.151159  0  0  1.337105  0  6.123816  0  0  0.568035  1.251705  0  6.169012  0
S  S45  1  0.52606410  0.11857805  0.87579865  1  0  1.38647  0  5.633446  0  0  1.286709  0  6.151312  0  0  1.33709  0  6.123966  0  0  0.568008  1.251688  0  6.169155  0
O  O46  1  0.15078506  0.52251272  0.90837052  1  0  -0.733391  0  1.972306  0  0  -0.679062  0  2.236905  0  0  -0.702826  0  2.220342  0  0  -0.368548  -0.661821  0  2.247781  0
O  O47  1  0.65077718  0.97748427  0.09162853  1  0  -0.733354  0  1.972237  0  0  -0.679077  0  2.236891  0  0  -0.702848  0  2.220343  0  0  -0.368534  -0.661842  0  2.247766  0
O  O48  1  0.84922883  0.47749441  0.09162841  1  0  -0.733438  0  1.972313  0  0  -0.679042  0  2.236857  0  0  -0.702823  0  2.220336  0  0  -0.368497  -0.661796  0  2.247728  0
O  O49  1  0.34921619  0.02250143  0.90836847  1  0  -0.733428  0  1.972332  0  0  -0.679016  0  2.23684  0  0  -0.702786  0  2.220293  0  0  -0.368463  -0.661769  0  2.247708  0
O  O50  1  0.01111632  0.76836769  0.92053278  1  0  -0.74128  0  2.011354  0  0  -0.685301  0  2.281225  0  0  -0.708232  0  2.262802  0  0  -0.381079  -0.668707  0  2.293506  0
O  O51  1  0.51110157  0.73163573  0.07946714  1  0  -0.74124  0  2.011763  0  0  -0.685252  0  2.281594  0  0  -0.708188  0  2.263175  0  0  -0.381041  -0.66867  0  2.293873  0
O  O52  1  0.98886773  0.23163731  0.07946582  1  0  -0.741287  0  2.011304  0  0  -0.685328  0  2.28119  0  0  -0.70826  0  2.262774  0  0  -0.381113  -0.668738  0  2.293477  0
O  O53  1  0.48886196  0.26835935  0.92053602  1  0  -0.741216  0  2.011574  0  0  -0.685248  0  2.281396  0  0  -0.708182  0  2.262972  0  0  -0.381066  -0.668664  0  2.293687  0
O  O54  1  0.71461938  0.57079363  0.87963312  1  0  -0.732814  0  1.981727  0  0  -0.67782  0  2.242358  0  0  -0.700794  0  2.225852  0  0  -0.376698  -0.66134  0  2.253319  0
O  O55  1  0.21461383  0.92920399  0.12036338  1  0  -0.732834  0  1.981775  0  0  -0.677824  0  2.242415  0  0  -0.700791  0  2.225898  0  0  -0.376701  -0.66135  0  2.253377  0
O  O56  1  0.28538331  0.42919965  0.12036302  1  0  -0.732856  0  1.981909  0  0  -0.677856  0  2.242575  0  0  -0.700825  0  2.226059  0  0  -0.376681  -0.661378  0  2.253542  0
O  O57  1  0.78537768  0.07080194  0.87963806  1  0  -0.732872  0  1.981898  0  0  -0.677866  0  2.242513  0  0  -0.700839  0  2.226003  0  0  -0.376745  -0.661382  0  2.253472  0
O  O58  1  0.40197351  0.63830320  0.45011334  1  0  -0.443262  0  1.931713  0  0  -0.404426  0  2.147395  0  0  -0.42223  0  2.147151  0  0  -0.246728  -0.392307  0  2.147463  0
O  O59  1  0.90191626  0.86170655  0.54988449  1  0  -0.442948  0  1.932504  0  0  -0.404051  0  2.148311  0  0  -0.421854  0  2.148088  0  0  -0.2465  -0.391956  0  2.148374  0
O  O60  1  0.59808700  0.36169429  0.54988478  1  0  -0.44308  0  1.932418  0  0  -0.404172  0  2.148157  0  0  -0.421964  0  2.147905  0  0  -0.246564  -0.392081  0  2.148205  0
O  O61  1  0.09804541  0.13830703  0.45011475  1  0  -0.443222  0  1.931923  0  0  -0.404402  0  2.147612  0  0  -0.422211  0  2.147376  0  0  -0.246727  -0.392287  0  2.147678  0
