# generated using pymatgen
data_Zn2H25C37N8O3
_symmetry_space_group_name_H-M   'P 1'
_cell_length_a   20.02443160
_cell_length_b   19.68750842
_cell_length_c   19.63382735
_cell_angle_alpha   111.08105984
_cell_angle_beta   106.30536448
_cell_angle_gamma   111.25639420
_symmetry_Int_Tables_number   1
_chemical_formula_structural   Zn2H25C37N8O3
_chemical_formula_sum   'Zn4 H50 C74 N16 O6'
_cell_volume   5930.98783197
_cell_formula_units_Z   2
loop_
 _symmetry_equiv_pos_site_id
 _symmetry_equiv_pos_as_xyz
  1  'x, y, z'
loop_
 _atom_site_type_symbol
 _atom_site_label
 _atom_site_symmetry_multiplicity
 _atom_site_fract_x
 _atom_site_fract_y
 _atom_site_fract_z
 _atom_site_occupancy
 _atom_site_pbe_bader_charge
 _atom_site_pbe_bader_spin_density
 _atom_site_pbe_cm5_charge
 _atom_site_pbe_ddec_charge
 _atom_site_pbe_ddec_spin_density
 _atom_site_pbe_ddec_sum_bond_order
 _atom_site_pbe_magmom
Zn  Zn0  1  0.00201469  0.60979424  0.10267563  1  1.197181  0  0.755467  0.634206  0  2.452506  0
Zn  Zn1  1  0.00000382  0.38936710  0.88827574  1  1.204703  0  0.750359  0.659375  0  2.335328  0
Zn  Zn2  1  0.09377348  0.59832923  0.98633791  1  1.189342  0  0.746387  0.604394  0  2.489246  0
Zn  Zn3  1  0.90771966  0.40114299  0.00248146  1  1.189754  0  0.743602  0.610211  0  2.448672  0
H  H4  1  0.54786977  0.64951653  0.99394490  1  0.062501  0  0.09995  0.100783  0  0.993893  0
H  H5  1  0.21913468  0.19656441  0.06991948  1  0.053735  0  0.10158  0.102485  0  0.995948  0
H  H6  1  0.12694460  0.22632815  0.24611927  1  0.062919  0  0.105995  0.110033  0  0.987481  0
H  H7  1  0.22423640  0.07450776  0.07435119  1  0.065068  0  0.106293  0.109991  0  0.986632  0
H  H8  1  0.85285228  0.19206952  0.72127165  1  0.088862  0  0.122282  0.11156  0  0.987684  0
H  H9  1  0.13697024  0.63686722  0.26282424  1  0.11153  0  0.123485  0.11374  0  0.986254  0
H  H10  1  0.97806970  0.62337634  0.85591007  1  0.118996  0  0.123468  0.114151  0  0.988431  0
H  H11  1  0.83558450  0.36748784  0.12857024  1  0.090712  0  0.123259  0.113727  0  0.988188  0
H  H12  1  0.74348591  0.35739529  0.86380445  1  0.098112  0  0.120601  0.111334  0  0.99978  0
H  H13  1  0.26397118  0.64193151  0.96810577  1  0.080372  0  0.121866  0.113139  0  0.988855  0
H  H14  1  0.86169717  0.34835471  0.71835363  1  0.084183  0  0.120292  0.108823  0  1.005823  0
H  H15  1  0.45682213  0.35268252  0.80279160  1  0.048685  0  0.100606  0.102137  0  0.992581  0
H  H16  1  0.95200134  0.64204405  0.25879367  1  0.124781  0  0.123798  0.11443  0  0.992907  0
H  H17  1  0.86530845  0.63271445  0.99983488  1  0.124277  0  0.123298  0.115975  0  0.982794  0
H  H18  1  0.14922761  0.36907370  0.85844351  1  0.108932  0  0.12163  0.115624  0  0.98929  0
H  H19  1  0.74008707  0.20526096  0.88056447  1  0.104543  0  0.12288  0.113058  0  0.987109  0
H  H20  1  0.25012292  0.60871168  0.10367615  1  0.083875  0  0.121287  0.112639  0  1.004437  0
H  H21  1  0.16970671  0.79561426  0.02130846  1  0.097762  0  0.125774  0.117466  0  0.98007  0
H  H22  1  0.02453877  0.39887567  0.15488755  1  0.115084  0  0.124175  0.116198  0  0.98576  0
H  H23  1  0.55889525  0.59167103  0.84544968  1  0.064887  0  0.101162  0.103128  0  0.99099  0
H  H24  1  0.44574286  0.41075336  0.95127452  1  0.063119  0  0.099612  0.100244  0  0.99444  0
H  H25  1  0.07001091  0.87967599  0.21297771  1  0.625581  0  0.345158  0.379768  0  0.861263  0
H  H26  1  0.63199893  0.95029110  0.49993781  1  0.089144  0  0.103672  0.106242  0  0.991653  0
H  H27  1  0.15294694  0.30854999  0.00062716  1  0.616387  0  0.341461  0.374878  0  0.869424  0
H  H28  1  0.40419654  0.36734280  0.67256442  1  0.042189  0  0.0956  0.049164  0  0.972282  0
H  H29  1  0.44565022  0.47233192  0.68933992  1  0.009382  0  0.095997  0.049766  0  0.971294  0
H  H30  1  0.30381834  0.44132886  0.61357650  1  0.030735  0  0.093452  0.126875  0  0.992828  0
H  H31  1  0.32309686  0.36821162  0.54930690  1  0.042206  0  0.09296  0.12264  0  0.999044  0
H  H32  1  0.26283794  0.33630310  0.59613808  1  0.039446  0  0.090661  0.122172  0  0.997545  0
H  H33  1  0.55679079  0.52383447  0.10484361  1  0.048982  0  0.09521  0.049131  0  0.97283  0
H  H34  1  0.59497708  0.62945895  0.12369006  1  0.032361  0  0.094697  0.048109  0  0.973331  0
H  H35  1  0.73776356  0.66618010  0.20379480  1  0.02472  0  0.09047  0.120498  0  1.001384  0
H  H36  1  0.67559529  0.62820120  0.24663338  1  0.013164  0  0.091874  0.120946  0  0.99999  0
H  H37  1  0.37712747  0.78455637  0.50099223  1  0.07998  0  0.104799  0.108025  0  0.98989  0
H  H38  1  0.70056881  0.56053259  0.18415777  1  0.047794  0  0.093747  0.129564  0  0.993645  0
H  H39  1  0.78755220  0.66832261  0.44354876  1  0.031728  0  0.094709  0.051947  0  0.96577  0
H  H40  1  0.79105611  0.59465942  0.36067086  1  0.050709  0  0.094993  0.054243  0  1.023158  0
H  H41  1  0.91944906  0.71022726  0.38819370  1  0.026806  0  0.088094  0.119316  0  1.009215  0
H  H42  1  0.84289884  0.73752016  0.37184474  1  0.011863  0  0.090621  0.120673  0  1.009541  0
H  H43  1  0.92104912  0.78539989  0.47414676  1  0.006581  0  0.092008  0.126508  0  0.991965  0
H  H44  1  0.89704676  0.37675676  0.55160578  1  0.063041  0  0.095258  0.054583  0  0.984708  0
H  H45  1  0.86953554  0.31321788  0.44535674  1  0.015332  0  0.090899  0.044553  0  0.972497  0
H  H46  1  0.76343458  0.18678541  0.43715709  1  0.049126  0  0.09205  0.126583  0  0.992803  0
H  H47  1  0.86314889  0.22756542  0.51395745  1  0.039286  0  0.089958  0.11853  0  1.002926  0
H  H48  1  0.51315422  0.82351107  0.36900208  1  0.06115  0  0.103903  0.106991  0  0.990331  0
H  H49  1  0.79394724  0.25088852  0.54367759  1  0.030664  0  0.09068  0.123513  0  1.003795  0
H  H50  1  0.49591707  0.91126817  0.63206073  1  0.069557  0  0.104585  0.108259  0  0.99007  0
H  H51  1  0.87410209  0.62126814  0.59887575  1  0.098046  0  0.110537  0.131906  0  0.983158  0
H  H52  1  0.78438881  0.35855591  0.34371445  1  0.073174  0  0.109268  0.128669  0  0.98444  0
H  H53  1  0.13254380  0.10445185  0.25092643  1  0.063115  0  0.101876  0.102831  0  0.996342  0
C  C54  1  0.08114360  0.79637727  0.13868928  1  1.062942  0  0.189993  0.356324  0  4.118673  0
C  C55  1  0.56098918  0.52853786  0.97315781  1  0.59146  0  0.089743  0.217762  0  3.740278  0
C  C56  1  0.53325759  0.55156323  0.86879503  1  -0.052851  0  -0.083841  -0.153963  0  3.643635  0
C  C57  1  0.47152724  0.45070085  0.92784252  1  -0.060884  0  -0.083152  -0.152622  0  3.646431  0
C  C58  1  0.69605111  0.48933892  0.89240428  1  -0.447249  0  -0.064254  -0.115208  0  4.199022  0
C  C59  1  0.31029026  0.51104463  0.91387591  1  -0.295076  0  -0.067022  -0.120821  0  4.214099  0
C  C60  1  0.47639425  0.41843967  0.84513888  1  -0.030386  0  -0.084061  -0.15383  0  3.650338  0
C  C61  1  0.52834585  0.58380616  0.95153209  1  -0.060588  0  -0.083727  -0.153378  0  3.654477  0
C  C62  1  0.56645083  0.49581065  0.88943833  1  0.093374  0  0.000745  0.097268  0  3.81634  0
C  C63  1  0.43827395  0.50645979  0.90713457  1  0.117158  0  -0.001115  0.093688  0  3.825258  0
C  C64  1  0.63420157  0.49114577  0.88504296  1  0.10283  0  -0.064822  -0.124144  0  4.140509  0
C  C65  1  0.08918729  0.35737255  0.01718107  1  1.091911  0  0.194741  0.367664  0  4.087904  0
C  C66  1  0.37092557  0.51045794  0.91345267  1  -0.082809  0  -0.064912  -0.121293  0  4.150673  0
C  C67  1  0.50985499  0.84238220  0.42682859  1  -0.008612  0  -0.08702  -0.126941  0  3.97687  0
C  C68  1  0.49972453  0.89173340  0.57448114  1  0.008581  0  -0.087539  -0.129641  0  3.979525  0
C  C69  1  0.83736430  0.20918724  0.77118137  1  0.479422  0  0.016216  -0.049466  0  3.971292  0
C  C70  1  0.15202420  0.62471184  0.21237583  1  0.412317  0  0.020079  -0.038399  0  3.933218  0
C  C71  1  0.43635187  0.79542084  0.42555978  1  0.02817  0  -0.004075  0.137901  0  4.124153  0
C  C72  1  0.57221367  0.94043798  0.57519318  1  0.08738  0  -0.00535  0.137121  0  4.126787  0
C  C73  1  0.43332804  0.82074481  0.50123923  1  -0.068652  0  -0.087113  -0.126955  0  3.975217  0
C  C74  1  0.57618361  0.91341974  0.49998258  1  0.009823  0  -0.087798  -0.128034  0  3.97686  0
C  C75  1  0.36545327  0.72930666  0.35008070  1  -0.288914  0  -0.056965  -0.128521  0  4.150096  0
C  C76  1  0.76547055  0.16280098  0.77253726  1  0.052176  0  -0.032007  0.041336  0  4.213695  0
C  C77  1  0.63885903  0.01609014  0.64779779  1  0.022373  0  -0.055505  -0.124889  0  4.156615  0
C  C78  1  0.69697092  0.08381173  0.70760747  1  -0.374862  0  -0.059177  -0.107389  0  4.188655  0
C  C79  1  0.30165440  0.68035568  0.28520702  1  -0.066115  0  -0.054917  -0.098822  0  4.174058  0
C  C80  1  0.85348062  0.56311632  0.54291250  1  0.00549  0  -0.096151  -0.2285  0  3.957443  0
C  C81  1  0.80304028  0.41603684  0.39929530  1  0.052715  0  -0.095279  -0.227308  0  3.977345  0
C  C82  1  0.83286708  0.48684992  0.54346211  1  0.089745  0  -0.008941  0.060479  0  4.128297  0
C  C83  1  0.82900970  0.49352074  0.40036723  1  0.011185  0  -0.016675  0.04092  0  4.141928  0
C  C84  1  0.80487390  0.41212714  0.46883762  1  0.502661  0  0.075785  0.190379  0  4.07111  0
C  C85  1  0.85187959  0.56726117  0.47325698  1  0.501574  0  0.08063  0.197788  0  4.064692  0
C  C86  1  0.84540959  0.48513327  0.61716231  1  -0.04683  0  -0.051427  -0.104195  0  4.15214  0
C  C87  1  0.22660273  0.63708397  0.21397432  1  0.12569  0  -0.027265  0.042438  0  4.187891  0
C  C88  1  0.84010362  0.49769713  0.33380522  1  0.0846  0  -0.051033  -0.099904  0  4.176396  0
C  C89  1  0.85778984  0.50115962  0.27994221  1  -0.420814  0  -0.05381  -0.106913  0  4.161917  0
C  C90  1  0.86556876  0.48347374  0.68108980  1  -0.302606  0  -0.049586  -0.095686  0  4.15039  0
C  C91  1  0.14866535  0.19322495  0.20896158  1  -0.020674  0  -0.085892  -0.124197  0  3.970882  0
C  C92  1  0.20328335  0.10814695  0.11214949  1  -0.008852  0  -0.085993  -0.122696  0  3.969594  0
C  C93  1  0.95756870  0.55681003  0.83439954  1  0.409408  0  0.02094  -0.039855  0  3.926082  0
C  C94  1  0.86868154  0.43486650  0.15013542  1  0.429913  0  0.015524  -0.055644  0  3.972331  0
C  C95  1  0.16982297  0.21839573  0.15546113  1  0.055704  0  -0.005438  0.13794  0  4.126733  0
C  C96  1  0.17601918  0.07882098  0.16068291  1  0.097625  0  -0.007057  0.13402  0  4.131448  0
C  C97  1  0.20033874  0.17651245  0.10973321  1  -0.003557  0  -0.089365  -0.131245  0  3.984471  0
C  C98  1  0.90069520  0.48463746  0.75464749  1  0.152004  0  -0.026104  0.043544  0  4.186285  0
C  C99  1  0.15167844  0.12489319  0.21146029  1  -0.0313  0  -0.089484  -0.130675  0  3.986462  0
C  C100  1  0.15357242  0.27801727  0.14236750  1  -0.214841  0  -0.057916  -0.13809  0  4.146901  0
C  C101  1  0.16724089  0.00148360  0.15273370  1  -0.415807  0  -0.056504  -0.128087  0  4.158624  0
C  C102  1  0.15122055  0.92937822  0.13566341  1  -0.033726  0  -0.064205  -0.101212  0  4.238376  0
C  C103  1  0.12672546  0.31923780  0.12370837  1  -0.156557  0  -0.058451  -0.088506  0  4.222142  0
C  C104  1  0.78585674  0.42557729  0.90323352  1  0.419596  0  0.015372  -0.043435  0  3.91912  0
C  C105  1  0.22339623  0.57430312  0.94103570  1  0.420709  0  0.010999  -0.061655  0  3.980225  0
C  C106  1  0.89815359  0.41599018  0.76399090  1  0.444972  0  0.018594  -0.041926  0  3.928407  0
C  C107  1  0.92812383  0.57528033  0.21678492  1  0.39872  0  0.017753  -0.050822  0  3.959328  0
C  C108  1  0.84847229  0.56646756  0.97258145  1  0.395624  0  0.019132  -0.041875  0  3.930132  0
C  C109  1  0.88179652  0.50380413  0.21986227  1  0.138135  0  -0.031036  0.03966  0  4.220306  0
C  C110  1  0.16434129  0.43470048  0.88427208  1  0.444565  0  0.016543  -0.037656  0  3.959018  0
C  C111  1  0.77952354  0.21563052  0.85244064  1  0.434977  0  0.013874  -0.055859  0  3.9667  0
C  C112  1  0.21027208  0.61058773  0.13117422  1  0.437225  0  0.018827  -0.03521  0  3.909822  0
C  C113  1  0.13791272  0.78604369  0.05668092  1  0.464679  0  0.018453  -0.032028  0  3.99858  0
C  C114  1  0.04120707  0.38869837  0.10560637  1  0.448193  0  0.019399  -0.023647  0  3.959029  0
C  C115  1  0.12756670  0.84502219  0.11288632  1  0.183198  0  -0.048332  -0.099435  0  4.253394  0
C  C116  1  0.09092493  0.35628535  0.08944925  1  0.115121  0  -0.045786  -0.098267  0  4.234285  0
C  C117  1  0.39184155  0.41917350  0.67984282  1  0.432591  0  -0.067112  0.095458  0  3.94295  0
C  C118  1  0.31580182  0.38946334  0.60523962  1  -0.059749  0  -0.24262  -0.39475  0  3.992425  0
C  C119  1  0.60985536  0.57923653  0.11619650  1  0.413284  0  -0.067003  0.095428  0  3.940147  0
C  C120  1  0.77096720  0.49270966  0.91606988  1  0.132285  0  -0.026152  0.051127  0  4.18295  0
C  C121  1  0.68551229  0.61032467  0.19212543  1  -0.043012  0  -0.242998  -0.395193  0  3.986669  0
C  C122  1  0.82841084  0.65454876  0.42094327  1  0.405076  0  -0.069358  0.084699  0  3.924041  0
C  C123  1  0.88125746  0.72628120  0.41345738  1  0.005691  0  -0.244899  -0.393642  0  3.985938  0
C  C124  1  0.84683953  0.32083240  0.49122249  1  0.401809  0  -0.067425  0.094508  0  3.926403  0
C  C125  1  0.81484396  0.24174409  0.49681302  1  -0.064268  0  -0.244075  -0.394179  0  3.997685  0
C  C126  1  0.23862685  0.50758846  0.91319163  1  0.116023  0  -0.031569  0.043438  0  4.208908  0
C  C127  1  0.44364287  0.47374172  0.82366175  1  0.601718  0  0.089572  0.217637  0  3.749889  0
N  N128  1  0.06543268  0.71672492  0.10153758  1  -0.830673  0  -0.278808  -0.274487  0  3.468104  0
N  N129  1  0.94129424  0.55046126  0.15109817  1  -0.780806  0  -0.264811  -0.170009  0  3.547738  0
N  N130  1  0.90377190  0.54416390  0.99272421  1  -0.785816  0  -0.28736  -0.194368  0  3.6523  0
N  N131  1  0.11001930  0.45641911  0.89422772  1  -0.778925  0  -0.271408  -0.188507  0  3.54399  0
N  N132  1  0.85327540  0.28675378  0.89437295  1  -0.800498  0  -0.266567  -0.172989  0  3.542172  0
N  N133  1  0.13293517  0.58684737  0.08550109  1  -0.783118  0  -0.280696  -0.184817  0  3.622447  0
N  N134  1  0.10128635  0.71037618  0.05022718  1  -0.798843  0  -0.274108  -0.173049  0  3.56594  0
N  N135  1  0.01316050  0.40662867  0.04782765  1  -0.801668  0  -0.285859  -0.182173  0  3.641151  0
N  N136  1  0.04349531  0.38797584  0.99339168  1  -0.814725  0  -0.28687  -0.28687  0  3.536174  0
N  N137  1  0.88914030  0.28258272  0.84377107  1  -0.803449  0  -0.265555  -0.183342  0  3.545336  0
N  N138  1  0.09750801  0.59557166  0.13545024  1  -0.80514  0  -0.284766  -0.193454  0  3.670239  0
N  N139  1  0.98704460  0.53229012  0.88531611  1  -0.807849  0  -0.282222  -0.175782  0  3.652488  0
N  N140  1  0.90429327  0.46318910  0.10959620  1  -0.809215  0  -0.267705  -0.173054  0  3.546106  0
N  N141  1  0.86549015  0.45768684  0.95034501  1  -0.793851  0  -0.284146  -0.18943  0  3.627681  0
N  N142  1  0.14668341  0.54338963  0.92961105  1  -0.803389  0  -0.275648  -0.182837  0  3.55615  0
N  N143  1  0.95070490  0.44609914  0.84233313  1  -0.776182  0  -0.27636  -0.187064  0  3.630899  0
O  O144  1  0.05236200  0.81975526  0.19219722  1  -1.148567  0  -0.347208  -0.455662  0  2.239286  0
O  O145  1  0.12471525  0.33012099  0.97324624  1  -1.139079  0  -0.337802  -0.449561  0  2.275365  0
O  O146  1  0.37954734  0.44711637  0.75139022  1  -1.071662  0  -0.208287  -0.250287  0  2.503454  0
O  O147  1  0.62463129  0.55511364  0.04595922  1  -1.071206  0  -0.207973  -0.247458  0  2.489893  0
O  O148  1  0.88089567  0.64583082  0.48081719  1  -1.066903  0  -0.204355  -0.233741  0  2.496523  0
O  O149  1  0.78068727  0.33537895  0.46567943  1  -1.067423  0  -0.213385  -0.248699  0  2.481684  0
