# generated using pymatgen
data_MoH12C12N2O3
_symmetry_space_group_name_H-M   'P 1'
_cell_length_a   3.79204011
_cell_length_b   14.92649306
_cell_length_c   20.40000000
_cell_angle_alpha   90.00000000
_cell_angle_beta   95.27522117
_cell_angle_gamma   90.00000000
_symmetry_Int_Tables_number   1
_chemical_formula_structural   MoH12C12N2O3
_chemical_formula_sum   'Mo4 H48 C48 N8 O12'
_cell_volume   1149.78737517
_cell_formula_units_Z   4
loop_
 _symmetry_equiv_pos_site_id
 _symmetry_equiv_pos_as_xyz
  1  'x, y, z'
loop_
 _atom_site_type_symbol
 _atom_site_label
 _atom_site_symmetry_multiplicity
 _atom_site_fract_x
 _atom_site_fract_y
 _atom_site_fract_z
 _atom_site_occupancy
 _atom_site_hle17_bader_spin_density
 _atom_site_hle17_ddec_charge
 _atom_site_hle17_ddec_spin_density
 _atom_site_hle17_ddec_sum_bond_order
 _atom_site_hle17_magmom
 _atom_site_hse06_10hf_bader_spin_density
 _atom_site_hse06_10hf_ddec_charge
 _atom_site_hse06_10hf_ddec_spin_density
 _atom_site_hse06_10hf_ddec_sum_bond_order
 _atom_site_hse06_10hf_magmom
 _atom_site_hse06_bader_spin_density
 _atom_site_hse06_ddec_charge
 _atom_site_hse06_ddec_spin_density
 _atom_site_hse06_ddec_sum_bond_order
 _atom_site_hse06_magmom
 _atom_site_pbe_bader_charge
 _atom_site_pbe_bader_spin_density
 _atom_site_pbe_cm5_charge
 _atom_site_pbe_ddec_charge
 _atom_site_pbe_ddec_spin_density
 _atom_site_pbe_ddec_sum_bond_order
 _atom_site_pbe_magmom
Mo  Mo0  1  0.11851496  0.64645057  0.32829554  1  0  2.093566  0  4.251403  0  0  2.085306  0  4.804904  0  0  2.18822  0  4.771394  0  2.58295  0  1.532743  2.01048  0  4.834505  0
Mo  Mo1  1  0.88148527  0.14645235  0.17170397  1  0  2.0935  0  4.251503  0  0  2.085281  0  4.804898  0  0  2.188177  0  4.771399  0  2.583162  0  1.532716  2.01045  0  4.834508  0
Mo  Mo2  1  0.88149057  0.35355056  0.67170553  1  0  2.093534  0  4.251657  0  0  2.085336  0  4.805072  0  0  2.188248  0  4.771559  0  2.582983  0  1.532692  2.010505  0  4.834675  0
Mo  Mo3  1  0.11850436  0.85354945  0.82829732  1  0  2.093547  0  4.251395  0  0  2.085275  0  4.804922  0  0  2.188182  0  4.771409  0  2.583162  0  1.532723  2.010452  0  4.83452  0
H  H4  1  0.96623151  0.64488691  0.17202730  1  0  0.07652  0  0.953184  0  0  0.085631  0  1.018556  0  0  0.088498  0  1.015574  0  0.11589  0  0.116253  0.083541  0  1.020725  0
H  H5  1  0.03376872  0.14488735  0.32797319  1  0  0.076453  0  0.95308  0  0  0.085566  0  1.018471  0  0  0.088433  0  1.015489  0  0.116307  0  0.116202  0.083476  0  1.02064  0
H  H6  1  0.03377402  0.35511355  0.82797426  1  0  0.076486  0  0.953041  0  0  0.085595  0  1.018444  0  0  0.088461  0  1.015461  0  0.115919  0  0.116191  0.083504  0  1.020615  0
H  H7  1  0.96623415  0.85510508  0.67203127  1  0  0.076415  0  0.953215  0  0  0.085519  0  1.018617  0  0  0.088388  0  1.015633  0  0.116244  0  0.11622  0.083426  0  1.020793  0
H  H8  1  0.13643349  0.52807314  0.45812187  1  0  0.072593  0  0.966879  0  0  0.079689  0  1.038701  0  0  0.082039  0  1.036576  0  0.118346  0  0.116263  0.078028  0  1.040145  0
H  H9  1  0.86357999  0.02807625  0.04187787  1  0  0.072667  0  0.966798  0  0  0.079725  0  1.038671  0  0  0.082076  0  1.036546  0  0.11829  0  0.116263  0.078059  0  1.040121  0
H  H10  1  0.86357204  0.47192599  0.54187822  1  0  0.072587  0  0.966914  0  0  0.079698  0  1.038719  0  0  0.082055  0  1.036576  0  0.118315  0  0.11626  0.078036  0  1.040165  0
H  H11  1  0.13640965  0.97192689  0.95812342  1  0  0.072642  0  0.966829  0  0  0.079716  0  1.038693  0  0  0.082074  0  1.03655  0  0.118297  0  0.11626  0.078054  0  1.040137  0
H  H12  1  0.33438214  0.37622434  0.50237936  1  0  0.128693  0  0.942047  0  0  0.139947  0  0.998835  0  0  0.143976  0  0.996866  0  0.131866  0  0.11378  0.137007  0  1.000496  0
H  H13  1  0.66562338  0.87622792  0.99761975  1  0  0.12873  0  0.942026  0  0  0.140028  0  0.998754  0  0  0.14406  0  0.996781  0  0.131831  0  0.113802  0.137088  0  1.000419  0
H  H14  1  0.66562338  0.62377412  0.49761926  1  0  0.128753  0  0.941943  0  0  0.140045  0  0.998685  0  0  0.144078  0  0.996712  0  0.13218  0  0.113827  0.137103  0  1.000356  0
H  H15  1  0.33437420  0.12377522  0.00238168  1  0  0.128722  0  0.941948  0  0  0.140034  0  0.998672  0  0  0.144069  0  0.996695  0  0.132153  0  0.113812  0.137088  0  1.000343  0
H  H16  1  0.43630273  0.34018975  0.20590699  1  0  0.134488  0  0.971915  0  0  0.143242  0  1.0334  0  0  0.14774  0  1.030497  0  0.174301  0  0.112984  0.139994  0  1.035645  0
H  H17  1  0.56369485  0.84019200  0.29409150  1  0  0.134557  0  0.971844  0  0  0.143317  0  1.033305  0  0  0.147815  0  1.0304  0  0.174404  0  0.112985  0.14007  0  1.035548  0
H  H18  1  0.56370015  0.65981004  0.79409159  1  0  0.134488  0  0.971911  0  0  0.143253  0  1.033404  0  0  0.147754  0  1.030497  0  0.17444  0  0.112977  0.140006  0  1.03565  0
H  H19  1  0.43629478  0.15980646  0.70590636  1  0  0.134459  0  0.971792  0  0  0.143272  0  1.033215  0  0  0.147772  0  1.03031  0  0.174485  0  0.113006  0.140025  0  1.03546  0
H  H20  1  0.50848533  0.30232487  0.30344600  1  0  0.136639  0  0.947761  0  0  0.148887  0  1.004105  0  0  0.153324  0  1.0013  0  0.132339  0  0.113183  0.145639  0  1.006379  0
H  H21  1  0.49150431  0.80232845  0.19655236  1  0  0.136681  0  0.94778  0  0  0.148939  0  1.004089  0  0  0.153376  0  1.001282  0  0.132204  0  0.113204  0.145672  0  1.006387  0
H  H22  1  0.49152020  0.69767493  0.69655165  1  0  0.136664  0  0.947844  0  0  0.148927  0  1.004152  0  0  0.153364  0  1.001347  0  0.13239  0  0.113204  0.145682  0  1.006424  0
H  H23  1  0.50848268  0.19767403  0.80344791  1  0  0.13669  0  0.947808  0  0  0.148957  0  1.004115  0  0  0.153395  0  1.00131  0  0.132405  0  0.11321  0.14571  0  1.006388  0
H  H24  1  0.05625826  0.55036772  0.07280019  1  0  0.096233  0  0.954632  0  0  0.111344  0  1.010226  0  0  0.114215  0  1.010005  0  0.031414  0  0.102535  0.109178  0  1.010688  0
H  H25  1  0.94373933  0.05036816  0.42720026  1  0  0.096262  0  0.9546  0  0  0.111351  0  1.010217  0  0  0.114236  0  1.009979  0  0.031438  0  0.102552  0.109186  0  1.010677  0
H  H26  1  0.94375522  0.44963810  0.92720053  1  0  0.096321  0  0.954616  0  0  0.111394  0  1.010235  0  0  0.114297  0  1.009975  0  0.031489  0  0.102559  0.109229  0  1.010694  0
H  H27  1  0.05626620  0.94962226  0.57280131  1  0  0.096188  0  0.954676  0  0  0.111311  0  1.010253  0  0  0.114166  0  1.010049  0  0.031579  0  0.102503  0.109145  0  1.010714  0
H  H28  1  0.49607531  0.32107810  0.08992067  1  0  0.13737  0  0.962663  0  0  0.156228  0  1.024249  0  0  0.158968  0  1.022748  0  0.106962  0  0.100301  0.154156  0  1.025462  0
H  H29  1  0.50392228  0.82107833  0.41007635  1  0  0.137384  0  0.962686  0  0  0.156242  0  1.024267  0  0  0.158977  0  1.022774  0  0.107246  0  0.100294  0.154171  0  1.025479  0
H  H30  1  0.50394082  0.67892572  0.91007813  1  0  0.13742  0  0.96262  0  0  0.156239  0  1.024236  0  0  0.158974  0  1.022742  0  0.106878  0  0.100284  0.154168  0  1.025452  0
H  H31  1  0.49606471  0.17891544  0.58992098  1  0  0.137346  0  0.962712  0  0  0.156273  0  1.024197  0  0  0.159012  0  1.022699  0  0.107036  0  0.100315  0.1542  0  1.025411  0
H  H32  1  0.47124731  0.41873868  0.03872626  1  0  0.095673  0  0.954887  0  0  0.115263  0  1.021858  0  0  0.116461  0  1.021559  0  0.01155  0  0.085757  0.114427  0  1.02197  0
H  H33  1  0.52874498  0.91873824  0.46127361  1  0  0.095665  0  0.954779  0  0  0.115255  0  1.021775  0  0  0.116453  0  1.021474  0  0.011593  0  0.085724  0.114419  0  1.021887  0
H  H34  1  0.52876352  0.58126446  0.96127344  1  0  0.095685  0  0.954882  0  0  0.115266  0  1.021849  0  0  0.116465  0  1.021549  0  0.011678  0  0.085706  0.11443  0  1.021965  0
H  H35  1  0.47123936  0.08125418  0.53872563  1  0  0.095679  0  0.9549  0  0  0.115254  0  1.021891  0  0  0.116453  0  1.021593  0  0.011469  0  0.085774  0.114419  0  1.022003  0
H  H36  1  0.08701849  0.35422922  0.04891216  1  0  0.117819  0  0.950025  0  0  0.142054  0  1.00962  0  0  0.143019  0  1.009943  0  0.070144  0  0.097116  0.141331  0  1.009372  0
H  H37  1  0.91298174  0.85422610  0.45108686  1  0  0.117805  0  0.949962  0  0  0.142065  0  1.009539  0  0  0.14303  0  1.009862  0  0.070186  0  0.09712  0.141344  0  1.009288  0
H  H38  1  0.91299763  0.64577660  0.95108762  1  0  0.117901  0  0.950003  0  0  0.142114  0  1.009614  0  0  0.143079  0  1.009932  0  0.070107  0  0.097121  0.141399  0  1.009356  0
H  H39  1  0.08700525  0.14576431  0.54891292  1  0  0.117791  0  0.949995  0  0  0.142011  0  1.009655  0  0  0.142977  0  1.009976  0  0.070218  0  0.097068  0.141286  0  1.00941  0
H  H40  1  0.61178834  0.23859255  0.48527078  1  0  0.13355  0  0.958758  0  0  0.156098  0  1.014264  0  0  0.158494  0  1.012844  0  0.095462  0  0.098203  0.154301  0  1.015377  0
H  H41  1  0.38820130  0.73859680  0.01472806  1  0  0.133527  0  0.958806  0  0  0.156063  0  1.014326  0  0  0.15846  0  1.012907  0  0.095436  0  0.098193  0.154266  0  1.01544  0
H  H42  1  0.38821189  0.76140591  0.51472628  1  0  0.133544  0  0.958712  0  0  0.156088  0  1.014235  0  0  0.158486  0  1.012812  0  0.095419  0  0.098177  0.154292  0  1.015348  0
H  H43  1  0.61180158  0.26140568  0.98527101  1  0  0.133578  0  0.958743  0  0  0.156128  0  1.014237  0  0  0.158525  0  1.012818  0  0.09547  0  0.098223  0.154332  0  1.01535  0
H  H44  1  0.85529869  0.22975122  0.41498585  1  0  0.108923  0  0.975489  0  0  0.132258  0  1.035934  0  0  0.13273  0  1.037262  0  0.041098  0  0.093035  0.131927  0  1.034925  0
H  H45  1  0.14469889  0.72975614  0.08501509  1  0  0.108944  0  0.975451  0  0  0.132268  0  1.035911  0  0  0.132737  0  1.037231  0  0.041051  0  0.093006  0.131938  0  1.034901  0
H  H46  1  0.14469889  0.77024723  0.58501362  1  0  0.108849  0  0.975499  0  0  0.132192  0  1.035947  0  0  0.132662  0  1.037268  0  0.041051  0  0.092993  0.131862  0  1.034937  0
H  H47  1  0.85529869  0.27024566  0.91498389  1  0  0.108932  0  0.975479  0  0  0.132266  0  1.035925  0  0  0.132736  0  1.037247  0  0.041084  0  0.093007  0.131935  0  1.034917  0
H  H48  1  0.42693827  0.18371228  0.41173665  1  0  0.100923  0  0.97032  0  0  0.120604  0  1.038616  0  0  0.121427  0  1.03899  0  0.011801  0  0.089642  0.119978  0  1.038339  0
H  H49  1  0.57305666  0.68371653  0.08826228  1  0  0.100984  0  0.970368  0  0  0.120662  0  1.03864  0  0  0.121491  0  1.039006  0  0.01167  0  0.089652  0.120036  0  1.038362  0
H  H50  1  0.57306726  0.81628953  0.58826148  1  0  0.100916  0  0.970323  0  0  0.120595  0  1.038622  0  0  0.121418  0  1.038995  0  0.011999  0  0.089619  0.11997  0  1.038344  0
H  H51  1  0.42693827  0.31628662  0.91173813  1  0  0.100956  0  0.970284  0  0  0.120632  0  1.038576  0  0  0.121455  0  1.038949  0  0.011777  0  0.089649  0.120007  0  1.038299  0
C  C52  1  0.06302206  0.57619362  0.17653049  1  0  0.137579  0  3.739649  0  0  0.105299  0  4.004767  0  0  0.113842  0  4.020936  0  0.429248  0  0.044975  0.099757  0  3.993472  0
C  C53  1  0.93697552  0.07619405  0.32346947  1  0  0.137699  0  3.739535  0  0  0.105386  0  4.004664  0  0  0.113929  0  4.020836  0  0.428885  0  0.04509  0.099845  0  3.993366  0
C  C54  1  0.93698346  0.42380886  0.82346960  1  0  0.137571  0  3.739548  0  0  0.105277  0  4.004687  0  0  0.113821  0  4.020864  0  0.430255  0  0.045045  0.099735  0  3.993392  0
C  C55  1  0.06302206  0.92380038  0.67653343  1  0  0.137701  0  3.739621  0  0  0.105406  0  4.00475  0  0  0.11395  0  4.020914  0  0.428825  0  0.04505  0.099863  0  3.993453  0
C  C56  1  0.29970505  0.43459304  0.31857202  1  0  0.204007  0  3.725817  0  0  0.199813  0  3.973098  0  0  0.208289  0  3.989885  0  0.446017  0  0.125968  0.194172  0  3.961616  0
C  C57  1  0.70029254  0.93459729  0.18142745  1  0  0.204058  0  3.72593  0  0  0.199794  0  3.973243  0  0  0.208257  0  3.990028  0  0.445961  0  0.125879  0.194157  0  3.961757  0
C  C58  1  0.70029783  0.56540742  0.68142852  1  0  0.204126  0  3.72557  0  0  0.199878  0  3.972879  0  0  0.208345  0  3.989664  0  0.446043  0  0.125981  0.194237  0  3.9614  0
C  C59  1  0.29970240  0.06540585  0.81857295  1  0  0.203962  0  3.725945  0  0  0.199745  0  3.97323  0  0  0.208213  0  3.990013  0  0.445901  0  0.125877  0.194108  0  3.961752  0
C  C60  1  0.44512958  0.32825594  0.40630294  1  0  0.201442  0  3.732355  0  0  0.223024  0  3.96919  0  0  0.228404  0  3.991542  0  -0.020812  0  0.012504  0.21959  0  3.953822  0
C  C61  1  0.55486536  0.82826153  0.09369501  1  0  0.201548  0  3.73239  0  0  0.223168  0  3.969148  0  0  0.228547  0  3.991499  0  -0.020585  0  0.012551  0.219732  0  3.953774  0
C  C62  1  0.55487860  0.67174118  0.59369671  1  0  0.201679  0  3.732449  0  0  0.223233  0  3.969298  0  0  0.228613  0  3.99165  0  -0.020817  0  0.012577  0.219799  0  3.95393  0
C  C63  1  0.44512428  0.17174295  0.90630432  1  0  0.201567  0  3.732378  0  0  0.223137  0  3.969238  0  0  0.228517  0  3.991589  0  -0.020752  0  0.012548  0.219702  0  3.953868  0
C  C64  1  0.21534547  0.47494411  0.42596118  1  0  0.139061  0  3.728821  0  0  0.10653  0  3.992178  0  0  0.114895  0  4.009075  0  0.420127  0  0.047868  0.1011  0  3.980448  0
C  C65  1  0.78466271  0.97494636  0.07403847  1  0  0.138982  0  3.728848  0  0  0.106435  0  3.992211  0  0  0.114791  0  4.009095  0  0.420049  0  0.047818  0.101012  0  3.980485  0
C  C66  1  0.78465741  0.52505568  0.57403838  1  0  0.139006  0  3.729016  0  0  0.10647  0  3.992388  0  0  0.11483  0  4.009287  0  0.419998  0  0.047827  0.101041  0  3.98066  0
C  C67  1  0.21532693  0.02505612  0.92596135  1  0  0.138964  0  3.728939  0  0  0.106407  0  3.992321  0  0  0.114768  0  4.009209  0  0.420033  0  0.047771  0.100986  0  3.980592  0
C  C68  1  0.32891866  0.39169616  0.45003844  1  0  -0.176734  0  3.674208  0  0  -0.192794  0  3.917187  0  0  -0.201097  0  3.937483  0  0.027345  0  -0.081282  -0.187492  0  3.903698  0
C  C69  1  0.67108422  0.89169974  0.04995916  1  0  -0.176753  0  3.674226  0  0  -0.192843  0  3.917148  0  0  -0.201148  0  3.937441  0  0.027354  0  -0.081263  -0.187538  0  3.903657  0
C  C70  1  0.67109216  0.60830163  0.54995978  1  0  -0.176814  0  3.674225  0  0  -0.192885  0  3.917182  0  0  -0.201192  0  3.937479  0  0.027055  0  -0.081286  -0.187583  0  3.90369  0
C  C71  1  0.32890542  0.10830206  0.95004116  1  0  -0.176783  0  3.674129  0  0  -0.192866  0  3.917073  0  0  -0.201172  0  3.937366  0  0.027027  0  -0.081261  -0.187558  0  3.903575  0
C  C72  1  0.25526889  0.46265054  0.24883318  1  0  0.206122  0  3.71718  0  0  0.200163  0  3.965261  0  0  0.208802  0  3.981705  0  0.474366  0  0.127148  0.194384  0  3.954033  0
C  C73  1  0.74472869  0.96265278  0.25116628  1  0  0.20614  0  3.717156  0  0  0.20014  0  3.965285  0  0  0.208781  0  3.98173  0  0.474369  0  0.127126  0.194362  0  3.954056  0
C  C74  1  0.74473399  0.53735194  0.75116638  1  0  0.206169  0  3.717134  0  0  0.200317  0  3.965097  0  0  0.208957  0  3.981538  0  0.473943  0  0.127143  0.194538  0  3.953871  0
C  C75  1  0.25526094  0.03734635  0.74883403  1  0  0.206055  0  3.717277  0  0  0.200067  0  3.965434  0  0  0.208704  0  3.981881  0  0.474548  0  0.127068  0.194289  0  3.954203  0
C  C76  1  0.32585191  0.40685511  0.19656642  1  0  -0.169425  0  3.595639  0  0  -0.191856  0  3.830226  0  0  -0.198937  0  3.848487  0  -0.0078  0  -0.069326  -0.187387  0  3.818171  0
C  C77  1  0.67414568  0.90685601  0.30343109  1  0  -0.169535  0  3.595619  0  0  -0.191945  0  3.830203  0  0  -0.199024  0  3.848461  0  -0.007861  0  -0.069336  -0.187475  0  3.818148  0
C  C78  1  0.67414832  0.59314669  0.80343015  1  0  -0.169438  0  3.595404  0  0  -0.191901  0  3.830024  0  0  -0.19898  0  3.84828  0  -0.007667  0  -0.0693  -0.187433  0  3.81797  0
C  C79  1  0.32584396  0.09313976  0.69656825  1  0  -0.169359  0  3.595366  0  0  -0.191801  0  3.830017  0  0  -0.19888  0  3.848276  0  -0.007868  0  -0.069264  -0.187331  0  3.817963  0
C  C80  1  0.42421315  0.35020483  0.33927636  1  0  -0.183281  0  3.603013  0  0  -0.208042  0  3.843  0  0  -0.215261  0  3.861135  0  -0.01604  0  -0.074073  -0.203416  0  3.83097  0
C  C81  1  0.57578708  0.85020975  0.16072267  1  0  -0.183415  0  3.603165  0  0  -0.208164  0  3.84311  0  0  -0.215386  0  3.861256  0  -0.015841  0  -0.074077  -0.203525  0  3.831098  0
C  C82  1  0.57579503  0.64979563  0.66072329  1  0  -0.183521  0  3.603259  0  0  -0.208253  0  3.843219  0  0  -0.215473  0  3.861356  0  -0.016189  0  -0.074146  -0.203625  0  3.83118  0
C  C83  1  0.42421050  0.14979272  0.83927729  1  0  -0.183382  0  3.60318  0  0  -0.208148  0  3.843163  0  0  -0.215372  0  3.861306  0  -0.016035  0  -0.074079  -0.203521  0  3.831131  0
C  C84  1  0.25899772  0.43724202  0.13174397  1  0  0.207093  0  3.725756  0  0  0.230792  0  3.958537  0  0  0.236224  0  3.981193  0  0.009002  0  0.015738  0.227335  0  3.94295  0
C  C85  1  0.74100251  0.93724292  0.36825309  1  0  0.207143  0  3.725632  0  0  0.230813  0  3.958431  0  0  0.236241  0  3.981091  0  0.009017  0  0.015782  0.227355  0  3.942848  0
C  C86  1  0.74101575  0.56276447  0.86825430  1  0  0.207194  0  3.725145  0  0  0.23079  0  3.958077  0  0  0.236218  0  3.980741  0  0.008822  0  0.01579  0.227334  0  3.942491  0
C  C87  1  0.25898978  0.06275084  0.63174579  1  0  0.207062  0  3.725621  0  0  0.230623  0  3.958617  0  0  0.236057  0  3.981273  0  0.009882  0  0.015685  0.227165  0  3.943035  0
C  C88  1  0.11749270  0.52350073  0.12227219  1  0  -0.194061  0  3.732616  0  0  -0.213185  0  3.980892  0  0  -0.222074  0  4.003229  0  0.022391  0  -0.091218  -0.207397  0  3.965917  0
C  C89  1  0.88250753  0.02349983  0.37772683  1  0  -0.194156  0  3.732703  0  0  -0.213255  0  3.980997  0  0  -0.222154  0  4.003331  0  0.022316  0  -0.091304  -0.207468  0  3.966022  0
C  C90  1  0.88250753  0.47650376  0.87772732  1  0  -0.194192  0  3.732523  0  0  -0.213238  0  3.980852  0  0  -0.222153  0  4.003183  0  0.022383  0  -0.091298  -0.207451  0  3.965876  0
C  C91  1  0.11749006  0.97649193  0.62227459  1  0  -0.194038  0  3.732652  0  0  -0.213108  0  3.98093  0  0  -0.221984  0  4.003276  0  0.022067  0  -0.091194  -0.207319  0  3.965952  0
C  C92  1  0.33469200  0.37971277  0.07454495  1  0  -0.353538  0  3.704332  0  0  -0.433966  0  3.935622  0  0  -0.436911  0  3.943772  0  -0.094996  0  -0.238747  -0.431633  0  3.929782  0
C  C93  1  0.66530558  0.87971099  0.42545305  1  0  -0.353585  0  3.704094  0  0  -0.434026  0  3.935354  0  0  -0.436969  0  3.943507  0  -0.095305  0  -0.238748  -0.431692  0  3.929511  0
C  C94  1  0.66532147  0.62029239  0.92545479  1  0  -0.353731  0  3.704274  0  0  -0.434065  0  3.935575  0  0  -0.437006  0  3.943722  0  -0.094826  0  -0.238711  -0.43174  0  3.929737  0
C  C95  1  0.33468405  0.12028009  0.57454531  1  0  -0.353494  0  3.704149  0  0  -0.433911  0  3.935464  0  0  -0.436861  0  3.943624  0  -0.095737  0  -0.238739  -0.431575  0  3.929623  0
C  C96  1  0.59078452  0.24013209  0.43134564  1  0  -0.353555  0  3.697518  0  0  -0.434145  0  3.926782  0  0  -0.43666  0  3.934878  0  -0.045131  0  -0.239971  -0.432081  0  3.920982  0
C  C97  1  0.40920777  0.74013567  0.06865374  1  0  -0.35363  0  3.697616  0  0  -0.434242  0  3.92691  0  0  -0.436753  0  3.934994  0  -0.045037  0  -0.239944  -0.432177  0  3.921108  0
C  C98  1  0.40922101  0.75986636  0.56865445  1  0  -0.353509  0  3.697478  0  0  -0.434119  0  3.926792  0  0  -0.436627  0  3.934884  0  -0.04518  0  -0.239881  -0.432055  0  3.920989  0
C  C99  1  0.59078716  0.25986613  0.93134471  1  0  -0.353648  0  3.697518  0  0  -0.434255  0  3.926824  0  0  -0.436764  0  3.934911  0  -0.045084  0  -0.239982  -0.43219  0  3.921024  0
N  N100  1  0.20504086  0.49645017  0.36217576  1  0  -0.356966  0  3.273085  0  0  -0.311483  0  3.53443  0  0  -0.329832  0  3.554594  0  -1.244119  0  -0.333793  -0.298719  0  3.520661  0
N  N101  1  0.79496202  0.99645241  0.13782331  1  0  -0.356996  0  3.273146  0  0  -0.311388  0  3.534344  0  0  -0.329708  0  3.55448  0  -1.244169  0  -0.333728  -0.298639  0  3.520592  0
N  N102  1  0.79495937  0.50355231  0.63782327  1  0  -0.356904  0  3.272948  0  0  -0.311462  0  3.53433  0  0  -0.329794  0  3.554485  0  -1.244027  0  -0.333782  -0.298702  0  3.520567  0
N  N103  1  0.20503556  0.00354872  0.86217665  1  0  -0.356893  0  3.273145  0  0  -0.311329  0  3.534396  0  0  -0.329652  0  3.55453  0  -1.244107  0  -0.333693  -0.298582  0  3.520645  0
N  N104  1  0.13256164  0.54692351  0.23832580  1  0  -0.355447  0  3.268809  0  0  -0.31058  0  3.531428  0  0  -0.328776  0  3.551282  0  -1.234326  0  -0.332847  -0.297894  0  3.51784  0
N  N105  1  0.86743859  0.04692395  0.26167470  1  0  -0.355399  0  3.268782  0  0  -0.310483  0  3.531364  0  0  -0.328678  0  3.551217  0  -1.234321  0  -0.332817  -0.297796  0  3.517775  0
N  N106  1  0.86743859  0.45307896  0.76167421  1  0  -0.355464  0  3.268809  0  0  -0.310613  0  3.531389  0  0  -0.328812  0  3.551246  0  -1.235216  0  -0.332871  -0.297926  0  3.517801  0
N  N107  1  0.13255635  0.95307384  0.73832767  1  0  -0.355397  0  3.269009  0  0  -0.310504  0  3.531612  0  0  -0.3287  0  3.551471  0  -1.234429  0  -0.332845  -0.297815  0  3.51802  0
O  O108  1  0.64923028  0.62021802  0.32279547  1  0  -0.921938  0  1.884878  0  0  -0.927592  0  2.198719  0  0  -0.974411  0  2.199478  0  -1.012085  0  -0.601145  -0.892944  0  2.198444  0
O  O109  1  0.35076465  0.12022114  0.17720297  1  0  -0.921915  0  1.884916  0  0  -0.927598  0  2.198764  0  0  -0.974409  0  2.199528  0  -1.012232  0  -0.60115  -0.892948  0  2.198487  0
O  O110  1  0.35076730  0.37978378  0.67720645  1  0  -0.921923  0  1.885031  0  0  -0.927578  0  2.198827  0  0  -0.974398  0  2.199589  0  -1.012092  0  -0.601107  -0.892926  0  2.198544  0
O  O111  1  0.64922764  0.87977933  0.82279886  1  0  -0.921948  0  1.884918  0  0  -0.927609  0  2.198775  0  0  -0.974425  0  2.199538  0  -1.012241  0  -0.601149  -0.892964  0  2.198504  0
O  O112  1  0.13415328  0.73704051  0.27502555  1  0  -0.73202  0  1.457916  0  0  -0.73108  0  1.71538  0  0  -0.759816  0  1.707111  0  -0.888893  0  -0.54106  -0.71034  0  1.721914  0
O  O113  1  0.86584695  0.23704228  0.22497495  1  0  -0.73198  0  1.45795  0  0  -0.731054  0  1.715422  0  0  -0.759786  0  1.707154  0  -0.888915  0  -0.541013  -0.710313  0  1.721963  0
O  O114  1  0.86585224  0.26296063  0.72497602  1  0  -0.73202  0  1.457963  0  0  -0.731108  0  1.715438  0  0  -0.759848  0  1.707175  0  -0.888911  0  -0.541062  -0.710371  0  1.721978  0
O  O115  1  0.13414004  0.76295885  0.77502826  1  0  -0.731945  0  1.457898  0  0  -0.730995  0  1.715354  0  0  -0.759733  0  1.707092  0  -0.888954  0  -0.541012  -0.710258  0  1.721896  0
O  O116  1  0.19517852  0.68633335  0.40847436  1  0  -0.731346  0  1.432871  0  0  -0.727457  0  1.68185  0  0  -0.755806  0  1.672686  0  -0.888435  0  -0.542539  -0.707033  0  1.688976  0
O  O117  1  0.80482172  0.18633580  0.09152564  1  0  -0.731351  0  1.432821  0  0  -0.727497  0  1.681821  0  0  -0.755855  0  1.672683  0  -0.888471  0  -0.542577  -0.707064  0  1.688928  0
O  O118  1  0.80482172  0.31366644  0.59152662  1  0  -0.73135  0  1.432862  0  0  -0.727496  0  1.68184  0  0  -0.755839  0  1.672661  0  -0.8884  0  -0.542536  -0.707063  0  1.688948  0
O  O119  1  0.19517322  0.81366735  0.90847771  1  0  -0.731386  0  1.432811  0  0  -0.727491  0  1.68179  0  0  -0.755852  0  1.672646  0  -0.888491  0  -0.542549  -0.707065  0  1.688904  0
