# generated using pymatgen
data_Zn4H9C28S2Cl4O13F
_symmetry_space_group_name_H-M   'P 1'
_cell_length_a   18.38349322
_cell_length_b   19.64221086
_cell_length_c   32.68487522
_cell_angle_alpha   86.12924625
_cell_angle_beta   73.68780042
_cell_angle_gamma   62.07635265
_symmetry_Int_Tables_number   1
_chemical_formula_structural   Zn4H9C28S2Cl4O13F
_chemical_formula_sum   'Zn16 H36 C112 S8 Cl16 O52 F4'
_cell_volume   9979.80714680
_cell_formula_units_Z   4
loop_
 _symmetry_equiv_pos_site_id
 _symmetry_equiv_pos_as_xyz
  1  'x, y, z'
loop_
 _atom_site_type_symbol
 _atom_site_label
 _atom_site_symmetry_multiplicity
 _atom_site_fract_x
 _atom_site_fract_y
 _atom_site_fract_z
 _atom_site_occupancy
 _atom_site_pbe_bader_charge
 _atom_site_pbe_bader_spin_density
 _atom_site_pbe_cm5_charge
 _atom_site_pbe_ddec_charge
 _atom_site_pbe_ddec_spin_density
 _atom_site_pbe_ddec_sum_bond_order
 _atom_site_pbe_magmom
Zn  Zn0  1  0.87436445  0.54662878  0.51863175  1  1.310615  0  0.675422  0.973325  0  2.30188  0
Zn  Zn1  1  0.04720201  0.47743083  0.43933005  1  1.319915  0  0.677209  0.969734  0  2.400784  0
Zn  Zn2  1  0.05311736  0.40048660  0.52549265  1  1.318636  0  0.675007  0.966653  0  2.385513  0
Zn  Zn3  1  0.04039327  0.56938382  0.51573316  1  1.317516  0  0.673404  0.96771  0  2.363178  0
Zn  Zn4  1  0.62400439  0.18287528  0.73651226  1  1.318669  0  0.674137  0.968977  0  2.347268  0
Zn  Zn5  1  0.47751655  0.35098792  0.72634688  1  1.320128  0  0.675773  0.965451  0  2.375588  0
Zn  Zn6  1  0.44515654  0.26840872  0.81194896  1  1.314797  0  0.673905  0.967908  0  2.36599  0
Zn  Zn7  1  0.44880090  0.20236644  0.72454197  1  1.317833  0  0.673296  0.963963  0  2.37962  0
Zn  Zn8  1  0.46798370  0.75405039  0.31388334  1  1.301171  0  0.672324  0.963898  0  2.331966  0
Zn  Zn9  1  0.46635685  0.68376031  0.22705180  1  1.326547  0  0.679232  0.975339  0  2.384466  0
Zn  Zn10  1  0.62579312  0.70296798  0.22782188  1  1.316547  0  0.674299  0.963518  0  2.393189  0
Zn  Zn11  1  0.44568788  0.85131365  0.22974295  1  1.317289  0  0.67378  0.967873  0  2.36482  0
Zn  Zn12  1  0.02270664  0.90183473  0.02528547  1  1.31691  0  0.674551  0.966672  0  2.368181  0
Zn  Zn13  1  0.06600120  0.04600700  0.01506267  1  1.319927  0  0.673645  0.96672  0  2.316143  0
Zn  Zn14  1  0.87594920  0.06989575  0.02379882  1  1.322231  0  0.677584  0.973547  0  2.395609  0
Zn  Zn15  1  0.02285974  0.98871961  0.93880458  1  1.316512  0  0.673498  0.966563  0  2.376313  0
H  H16  1  0.79246693  0.95513038  0.66261217  1  0.113939  0  0.123097  0.149176  0  0.965843  0
H  H17  1  0.32393459  0.96705533  0.40916683  1  0.097068  0  0.121107  0.145963  0  0.97042  0
H  H18  1  0.56807815  0.44583252  0.62234342  1  0.050428  0  0.09837  0.111519  0  0.981826  0
H  H19  1  0.56684229  0.49754758  0.66541090  1  0.088517  0  0.102087  0.117378  0  0.972592  0
H  H20  1  0.65977199  0.54599705  0.61353984  1  0.082106  0  0.101753  0.114902  0  0.974955  0
H  H21  1  0.66195579  0.49375094  0.57036997  1  0.037272  0  0.099567  0.109948  0  0.978912  0
H  H22  1  0.36546353  0.65736130  0.42325259  1  0.049098  0  0.098628  0.108899  0  0.981266  0
H  H23  1  0.27880526  0.75066425  0.42277020  1  0.052492  0  0.099682  0.111092  0  0.977524  0
H  H24  1  0.17504624  0.71064884  0.47232080  1  0.083575  0  0.100204  0.112859  0  0.976588  0
H  H25  1  0.26191275  0.61770432  0.47336714  1  0.053734  0  0.09732  0.109243  0  0.9846  0
H  H26  1  0.55695042  0.75132417  0.42575725  1  0.052535  0  0.099746  0.110886  0  0.977782  0
H  H27  1  0.55647227  0.66097935  0.42466256  1  0.032338  0  0.098592  0.108703  0  0.98147  0
H  H28  1  0.65326788  0.61031507  0.47308554  1  0.082025  0  0.099385  0.111177  0  0.980333  0
H  H29  1  0.65387130  0.70048516  0.47433544  1  0.057445  0  0.101645  0.11446  0  0.974854  0
H  H30  1  0.33257013  0.20588364  0.63134305  1  0.056046  0  0.100133  0.111688  0  0.975264  0
H  H31  1  0.24286113  0.25026549  0.67725803  1  0.082838  0  0.099559  0.114019  0  0.980039  0
H  H32  1  0.14359508  0.30044292  0.62988704  1  0.078518  0  0.098463  0.112957  0  0.98213  0
H  H33  1  0.23332050  0.25599373  0.58401638  1  0.062505  0  0.100282  0.112796  0  0.97534  0
H  H34  1  0.17485104  0.66267302  0.96275380  1  0.125239  0  0.123556  0.150023  0  0.966553  0
H  H35  1  0.92944790  0.09919053  0.83322827  1  0.04065  0  0.099092  0.111566  0  0.979996  0
H  H36  1  0.93422853  0.00661861  0.83175758  1  0.075999  0  0.100708  0.114335  0  0.976182  0
H  H37  1  0.83837491  0.05229709  0.78294428  1  0.068138  0  0.10011  0.112763  0  0.975701  0
H  H38  1  0.83253142  0.14523698  0.78468540  1  0.061087  0  0.097412  0.109845  0  0.984486  0
H  H39  1  0.17359295  0.19719398  0.96847658  1  0.06811  0  0.099329  0.110009  0  0.978604  0
H  H40  1  0.26695907  0.10739036  0.96633277  1  0.047185  0  0.100567  0.113504  0  0.977832  0
H  H41  1  0.35846358  0.16042409  0.91725478  1  0.064926  0  0.097462  0.11093  0  0.985768  0
H  H42  1  0.26509143  0.24997472  0.91920041  1  0.067609  0  0.100997  0.114273  0  0.975439  0
H  H43  1  0.96122735  0.29183359  0.08731075  1  0.108626  0  0.120854  0.145107  0  0.970682  0
H  H44  1  0.26516787  0.00643946  0.06932541  1  0.063661  0  0.10028  0.111965  0  0.979112  0
H  H45  1  0.17242520  0.05588118  0.11325716  1  0.064605  0  0.099645  0.110208  0  0.978063  0
H  H46  1  0.26469833  0.01023206  0.16385880  1  0.088087  0  0.101177  0.114549  0  0.975316  0
H  H47  1  0.35779747  0.96243100  0.11978461  1  0.055881  0  0.098565  0.110837  0  0.983107  0
H  H48  1  0.92920668  0.74750197  0.08699221  1  0.076636  0  0.099671  0.111801  0  0.978038  0
H  H49  1  0.93118026  0.79406684  0.13130387  1  0.067847  0  0.099307  0.111901  0  0.979968  0
H  H50  1  0.83198442  0.74986680  0.18148920  1  0.066643  0  0.100049  0.114756  0  0.978644  0
H  H51  1  0.83136128  0.70195237  0.13729330  1  0.05192  0  0.10007  0.112175  0  0.975752  0
C  C52  1  0.87327579  0.56183586  0.42894268  1  1.574235  0  0.228671  0.623001  0  4.153595  0
C  C53  1  0.13341521  0.31032029  0.44332529  1  1.575055  0  0.2153  0.628656  0  4.213032  0
C  C54  1  0.88071563  0.41489903  0.56935378  1  1.567692  0  0.228612  0.623492  0  4.153541  0
C  C55  1  0.14338610  0.45375109  0.56585118  1  1.580393  0  0.228089  0.621672  0  4.150927  0
C  C56  1  0.86146814  0.68174440  0.56091405  1  1.588899  0  0.217408  0.633207  0  4.205515  0
C  C57  1  0.13335269  0.57191075  0.42953990  1  1.576694  0  0.228032  0.62444  0  4.152504  0
C  C58  1  0.66189579  0.30088608  0.68881795  1  1.607852  0  0.228894  0.623673  0  4.151811  0
C  C59  1  0.37356426  0.43772655  0.80997467  1  1.580244  0  0.216226  0.62916  0  4.219042  0
C  C60  1  0.61620326  0.18069125  0.82792100  1  1.588535  0  0.229639  0.625727  0  4.153952  0
C  C61  1  0.35137716  0.18251814  0.80947979  1  1.541638  0  0.22826  0.62123  0  4.155725  0
C  C62  1  0.61494748  0.06764542  0.68684726  1  1.605137  0  0.219664  0.611633  0  4.212546  0
C  C63  1  0.37387079  0.33766629  0.67664834  1  1.570472  0  0.226715  0.617289  0  4.158021  0
C  C64  1  0.36734748  0.67323040  0.31401980  1  1.57848  0  0.227764  0.623374  0  4.155681  0
C  C65  1  0.64489556  0.56949201  0.18437689  1  1.586512  0  0.21646  0.62861  0  4.218579  0
C  C66  1  0.64659666  0.67893999  0.31590210  1  1.569226  0  0.22785  0.621373  0  4.15847  0
C  C67  1  0.61374451  0.83869642  0.18160479  1  1.593565  0  0.22853  0.622185  0  4.154756  0
C  C68  1  0.37406532  0.92450651  0.31841559  1  1.599995  0  0.218097  0.609016  0  4.217335  0
C  C69  1  0.35823240  0.80897862  0.18335661  1  1.576787  0  0.227916  0.621623  0  4.152147  0
C  C70  1  0.13241653  0.91959936  0.07017043  1  1.561559  0  0.227844  0.624574  0  4.151779  0
C  C71  1  0.91180382  0.18222180  0.06119282  1  1.579652  0  0.218427  0.609198  0  4.215268  0
C  C72  1  0.84228884  0.94844063  0.06845442  1  1.579002  0  0.229435  0.623718  0  4.155605  0
C  C73  1  0.84192560  0.07666287  0.94114320  1  1.572018  0  0.229522  0.624956  0  4.150366  0
C  C74  1  0.11657682  0.81917133  0.93969451  1  1.591341  0  0.219159  0.610908  0  4.215129  0
C  C75  1  0.13305182  0.06315051  0.92422508  1  1.568459  0  0.228149  0.622774  0  4.15163  0
C  C76  1  0.72221084  0.80682284  0.59668835  1  0.604426  0  0.100497  0.249837  0  4.079706  0
C  C77  1  0.74846294  0.94217073  0.65253110  1  0.109103  0  -0.086102  -0.12988  0  3.956999  0
C  C78  1  0.80972491  0.75672985  0.58595781  1  -0.135619  0  -0.03726  -0.246152  0  3.973926  0
C  C79  1  0.66133325  0.99204608  0.66228442  1  -0.223767  0  -0.021968  -0.115063  0  3.969551  0
C  C80  1  0.77010326  0.87517753  0.62829140  1  -0.152769  0  -0.020317  0.00596  0  4.089616  0
C  C81  1  0.69841905  0.87504017  0.62056897  1  -0.173859  0  -0.031498  -0.133921  0  4.09499  0
C  C82  1  0.20173948  0.21777703  0.37606632  1  0.580787  0  0.103238  0.254913  0  4.080138  0
C  C83  1  0.30616695  0.01311568  0.38773808  1  -0.00814  0  -0.086986  -0.133796  0  3.95837  0
C  C84  1  0.18086781  0.23437920  0.41972291  1  -0.071519  0  -0.037129  -0.245184  0  3.979997  0
C  C85  1  0.32653250  0.99908009  0.34400378  1  -0.107801  0  -0.021072  -0.115007  0  3.973394  0
C  C86  1  0.26096384  0.09340421  0.39937060  1  -0.142375  0  -0.019713  0.009598  0  4.074539  0
C  C87  1  0.24765159  0.13799159  0.36394292  1  -0.163243  0  -0.031891  -0.137589  0  4.114569  0
C  C88  1  0.72373446  0.32481069  0.65989262  1  0.004268  0  -0.013501  -0.120342  0  3.93562  0
C  C89  1  0.83149249  0.38104280  0.60040529  1  -0.022673  0  -0.013426  -0.123353  0  3.926605  0
C  C90  1  0.69065701  0.39310115  0.63977462  1  0.031382  0  -0.004036  0.068933  0  3.906016  0
C  C91  1  0.86742441  0.31158677  0.62104618  1  0.099572  0  0.016315  0.06897  0  3.971865  0
C  C92  1  0.74210210  0.41973308  0.61129239  1  0.071629  0  -0.004639  0.068736  0  3.906179  0
C  C93  1  0.81468095  0.28431601  0.64999984  1  0.07021  0  0.015076  0.066331  0  3.984894  0
C  C94  1  0.60779362  0.46066742  0.63575993  1  -0.044621  0  -0.149768  -0.197825  0  3.874931  0
C  C95  1  0.66616410  0.49086116  0.60335993  1  -0.019811  0  -0.149543  -0.19671  0  3.87947  0
C  C96  1  0.30422913  0.64865744  0.34063442  1  0.030376  0  -0.014378  -0.127019  0  3.934073  0
C  C97  1  0.18629083  0.60145600  0.39811019  1  0.051641  0  -0.012183  -0.113992  0  3.948162  0
C  C98  1  0.28240081  0.65895971  0.38506051  1  -0.050578  0  -0.004984  0.068821  0  3.906076  0
C  C99  1  0.20430392  0.59274123  0.35307232  1  0.103988  0  0.015953  0.065954  0  3.988703  0
C  C100  1  0.22555061  0.63680309  0.41259779  1  0.047625  0  -0.006563  0.063861  0  3.911405  0
C  C101  1  0.26233823  0.61520505  0.32484678  1  0.10163  0  0.018116  0.070231  0  3.97938  0
C  C102  1  0.29907590  0.68844226  0.42134279  1  -0.002792  0  -0.148682  -0.193874  0  3.878343  0
C  C103  1  0.23434415  0.66331949  0.45258306  1  -0.051003  0  -0.150232  -0.198897  0  3.871757  0
C  C104  1  0.70930709  0.65009693  0.34181044  1  0.036337  0  -0.012933  -0.12296  0  3.933815  0
C  C105  1  0.82123327  0.59045886  0.39772084  1  0.145417  0  -0.013633  -0.121233  0  3.933879  0
C  C106  1  0.67859540  0.65756149  0.38629394  1  -0.066462  0  -0.006397  0.065357  0  3.907098  0
C  C107  1  0.85498719  0.58207561  0.35238754  1  0.098925  0  0.017426  0.066822  0  3.975299  0
C  C108  1  0.73197016  0.62928146  0.41297502  1  -0.0842  0  -0.004083  0.069456  0  3.905943  0
C  C109  1  0.80039164  0.61225069  0.32512137  1  0.139009  0  0.017419  0.07062  0  3.97251  0
C  C110  1  0.59721184  0.68837329  0.42318600  1  0.027544  0  -0.149545  -0.194541  0  3.884118  0
C  C111  1  0.65782762  0.65656750  0.45348707  1  -0.0435  0  -0.150767  -0.200204  0  3.881277  0
C  C112  1  0.31468473  0.37423155  0.64916806  1  -0.01227  0  -0.014098  -0.121913  0  3.936622  0
C  C113  1  0.20058386  0.43178289  0.59445586  1  0.065778  0  -0.012573  -0.12092  0  3.932787  0
C  C114  1  0.27719682  0.33321874  0.63836305  1  0.027659  0  -0.004709  0.068656  0  3.90502  0
C  C115  1  0.23616256  0.47598970  0.60563294  1  0.090093  0  0.01622  0.068041  0  3.981369  0
C  C116  1  0.22271008  0.36071898  0.61226017  1  -0.018707  0  -0.003511  0.071344  0  3.903984  0
C  C117  1  0.29187354  0.44789901  0.63236864  1  0.118562  0  0.015823  0.067037  0  3.983534  0
C  C118  1  0.27173988  0.25842580  0.64426179  1  -0.030393  0  -0.149465  -0.195241  0  3.875214  0
C  C119  1  0.20975690  0.28972048  0.61464416  1  -0.039164  0  -0.149869  -0.196404  0  3.875195  0
C  C120  1  0.30258485  0.58616128  0.82110230  1  0.509445  0  0.102009  0.252092  0  4.079159  0
C  C121  1  0.19322887  0.67174441  0.92902524  1  0.004332  0  -0.08644  -0.131671  0  3.956408  0
C  C122  1  0.32507032  0.51247551  0.83498611  1  -0.033632  0  -0.037642  -0.24571  0  3.980769  0
C  C123  1  0.16981938  0.74459548  0.91420246  1  -0.125149  0  -0.022135  -0.116298  0  3.974835  0
C  C124  1  0.24169298  0.61408371  0.89483724  1  -0.201459  0  -0.019174  0.008171  0  4.08088  0
C  C125  1  0.25461210  0.64479327  0.85474611  1  -0.148804  0  -0.031816  -0.135662  0  4.101625  0
C  C126  1  0.77894596  0.10352554  0.91549513  1  0.081498  0  -0.013972  -0.119795  0  3.942787  0
C  C127  1  0.66745154  0.15478345  0.85956339  1  0.023497  0  -0.014541  -0.124064  0  3.933661  0
C  C128  1  0.80990443  0.09660277  0.87111162  1  0.013043  0  -0.004362  0.069117  0  3.910768  0
C  C129  1  0.63387928  0.16095921  0.90485278  1  0.094889  0  0.016872  0.069758  0  3.979471  0
C  C130  1  0.75665781  0.12151064  0.84436323  1  -0.018002  0  -0.005494  0.065728  0  3.905055  0
C  C131  1  0.68835742  0.13638914  0.93212760  1  0.085123  0  0.015669  0.066451  0  3.990497  0
C  C132  1  0.89142155  0.06911089  0.83445623  1  -0.019452  0  -0.149986  -0.198388  0  3.872492  0
C  C133  1  0.83102077  0.09768675  0.80401021  1  -0.018935  0  -0.148122  -0.191718  0  3.871282  0
C  C134  1  0.18951191  0.08909750  0.89229085  1  0.049575  0  -0.014306  -0.120697  0  3.935286  0
C  C135  1  0.29564921  0.14968127  0.83552183  1  0.065729  0  -0.013716  -0.123302  0  3.931541  0
C  C136  1  0.22651316  0.12669003  0.90702718  1  0.002496  0  -0.004601  0.06766  0  3.904374  0
C  C137  1  0.25976391  0.11059817  0.81936358  1  0.129976  0  0.016693  0.06909  0  3.977871  0
C  C138  1  0.27676687  0.15598622  0.87994639  1  -0.050381  0  -0.003907  0.070253  0  3.903479  0
C  C139  1  0.20835720  0.08071023  0.84707187  1  0.093172  0  0.016211  0.067927  0  3.978419  0
C  C140  1  0.23420937  0.15381249  0.94719623  1  -0.004249  0  -0.149698  -0.197185  0  3.878904  0
C  C141  1  0.29141478  0.18692714  0.91643041  1  -0.03866  0  -0.149992  -0.196229  0  3.873741  0
C  C142  1  0.67525101  0.44301506  0.14934313  1  0.55948  0  0.102572  0.254756  0  4.083844  0
C  C143  1  0.89380071  0.30612599  0.09634852  1  0.080451  0  -0.087092  -0.132945  0  3.957645  0
C  C144  1  0.70032138  0.49415962  0.16030423  1  -0.073513  0  -0.036273  -0.243544  0  3.976474  0
C  C145  1  0.86510797  0.25779655  0.08571323  1  -0.151366  0  -0.021775  -0.120311  0  3.975934  0
C  C146  1  0.82394099  0.37439289  0.11969561  1  -0.185701  0  -0.01914  0.008721  0  4.067946  0
C  C147  1  0.74444465  0.37508340  0.12621196  1  -0.133704  0  -0.032512  -0.139392  0  4.128462  0
C  C148  1  0.18783542  0.88676266  0.09972449  1  0.008487  0  -0.014355  -0.125357  0  3.933553  0
C  C149  1  0.29728580  0.83371193  0.15663642  1  0.064982  0  -0.011155  -0.113472  0  3.939017  0
C  C150  1  0.22497535  0.92848854  0.11015817  1  0.057568  0  -0.006088  0.065922  0  3.905257  0
C  C151  1  0.25951816  0.79020465  0.14730964  1  0.119349  0  0.016351  0.06631  0  3.986766  0
C  C152  1  0.27656095  0.90354123  0.13773496  1  -0.062445  0  -0.003796  0.067661  0  3.908859  0
C  C153  1  0.20631048  0.81582507  0.11940163  1  0.100087  0  0.016545  0.069502  0  3.979071  0
C  C154  1  0.23284705  0.00205132  0.10242980  1  -0.027629  0  -0.149557  -0.195096  0  3.876824  0
C  C155  1  0.29107055  0.97383076  0.13395080  1  -0.042515  0  -0.149147  -0.197303  0  3.868948  0
C  C156  1  0.77865081  0.92481327  0.09535390  1  -0.050372  0  -0.013092  -0.120231  0  3.941055  0
C  C157  1  0.66516689  0.87197392  0.15205650  1  0.058792  0  -0.01412  -0.124009  0  3.93664  0
C  C158  1  0.80873125  0.85437508  0.11374727  1  0.016522  0  -0.004288  0.067975  0  3.908652  0
C  C159  1  0.63232798  0.94351592  0.13305176  1  0.129149  0  0.016627  0.069626  0  3.982708  0
C  C160  1  0.75445844  0.82947300  0.14118640  1  -0.051043  0  -0.004734  0.069064  0  3.9031  0
C  C161  1  0.68786166  0.96927589  0.10536363  1  0.176974  0  0.016411  0.067591  0  3.984356  0
C  C162  1  0.88960347  0.78338276  0.11708556  1  -0.046843  0  -0.149372  -0.195665  0  3.87279  0
C  C163  1  0.82795406  0.75518348  0.14843793  1  -0.005009  0  -0.147988  -0.194652  0  3.870402  0
S  S164  1  0.86434544  0.79328299  0.60559888  1  0.284806  0  0.085816  0.14181  0  2.763127  0
S  S165  1  0.60481540  0.95799780  0.64240736  1  0.293067  0  0.092723  0.15379  0  2.730506  0
S  S166  1  0.21822048  0.15053917  0.44659871  1  0.275212  0  0.083287  0.134438  0  2.725607  0
S  S167  1  0.29130552  0.08224570  0.31661323  1  0.300127  0  0.097681  0.16408  0  2.759955  0
S  S168  1  0.28754951  0.51460066  0.89035108  1  0.312361  0  0.086868  0.141344  0  2.740329  0
S  S169  1  0.20668764  0.74407923  0.85894146  1  0.340558  0  0.095674  0.159183  0  2.74074  0
S  S170  1  0.81140093  0.45804697  0.14196060  1  0.260162  0  0.082604  0.132999  0  2.714303  0
S  S171  1  0.75432790  0.29379575  0.10382449  1  0.325418  0  0.101561  0.173379  0  2.784695  0
Cl  Cl172  1  0.97661993  0.25782819  0.61258486  1  -0.150965  0  -0.008155  -0.055845  0  1.612185  0
Cl  Cl173  1  0.86408672  0.20124853  0.67437966  1  -0.165789  0  -0.011659  -0.062166  0  1.599121  0
Cl  Cl174  1  0.15164379  0.55792913  0.33167349  1  -0.164257  0  -0.006282  -0.054598  0  1.626518  0
Cl  Cl175  1  0.27977601  0.60006877  0.27101742  1  -0.151904  0  -0.002936  -0.043084  0  1.64419  0
Cl  Cl176  1  0.96364125  0.53256675  0.32830373  1  -0.150624  0  -0.002423  -0.043158  0  1.649038  0
Cl  Cl177  1  0.84927311  0.60171188  0.27101174  1  -0.163443  0  -0.006184  -0.053038  0  1.618495  0
Cl  Cl178  1  0.21169168  0.56649032  0.58774190  1  -0.159735  0  -0.009049  -0.058241  0  1.603301  0
Cl  Cl179  1  0.32934981  0.50705581  0.64479385  1  -0.160752  0  -0.006483  -0.053794  0  1.601513  0
Cl  Cl180  1  0.52550812  0.19651860  0.92867718  1  -0.164695  0  -0.007852  -0.056782  0  1.606379  0
Cl  Cl181  1  0.64212284  0.14386105  0.98629928  1  -0.161729  0  -0.008368  -0.054248  0  1.662705  0
Cl  Cl182  1  0.27617677  0.09862965  0.76528650  1  -0.166751  0  -0.008079  -0.054788  0  1.605429  0
Cl  Cl183  1  0.17178629  0.03119818  0.82399423  1  -0.163086  0  -0.008203  -0.057099  0  1.602564  0
Cl  Cl184  1  0.27444367  0.70606972  0.17156675  1  -0.158759  0  -0.00512  -0.050918  0  1.628157  0
Cl  Cl185  1  0.16676510  0.75664644  0.10945916  1  -0.164542  0  -0.00903  -0.056969  0  1.600153  0
Cl  Cl186  1  0.52357701  0.00277360  0.14350378  1  -0.169516  0  -0.006975  -0.055299  0  1.602091  0
Cl  Cl187  1  0.64190115  0.05528814  0.08288062  1  -0.161423  0  -0.007992  -0.052303  0  1.666087  0
O  O188  1  0.00008785  0.50003417  0.50155504  1  -1.224688  0  -0.575718  -1.034828  0  2.541984  0
O  O189  1  0.83187620  0.56097851  0.46755308  1  -1.158168  0  -0.308747  -0.54029  0  2.297444  0
O  O190  1  0.09765740  0.36804346  0.42245051  1  -1.162075  0  -0.31467  -0.534381  0  2.32832  0
O  O191  1  0.96176442  0.37550446  0.55624281  1  -1.154937  0  -0.314964  -0.545501  0  2.428713  0
O  O192  1  0.95283148  0.54210010  0.41541659  1  -1.167853  0  -0.314256  -0.546333  0  2.428538  0
O  O193  1  0.83514017  0.48209245  0.55832742  1  -1.161185  0  -0.30816  -0.540944  0  2.307293  0
O  O194  1  0.13141488  0.31216939  0.48276397  1  -1.167353  0  -0.320444  -0.546167  0  2.305377  0
O  O195  1  0.11325369  0.40713212  0.56459635  1  -1.159453  0  -0.308382  -0.537937  0  2.341876  0
O  O196  1  0.94256400  0.65429047  0.55469648  1  -1.152021  0  -0.322503  -0.550148  0  2.341965  0
O  O197  1  0.12972534  0.51355382  0.54510592  1  -1.175123  0  -0.31368  -0.54466  0  2.396852  0
O  O198  1  0.82351267  0.65101413  0.54792943  1  -1.163518  0  -0.314523  -0.539134  0  2.289211  0
O  O199  1  0.13751299  0.50866603  0.41912118  1  -1.166378  0  -0.316291  -0.54936  0  2.368842  0
O  O200  1  0.09090313  0.61121070  0.46562586  1  -1.15768  0  -0.307455  -0.531263  0  2.278622  0
O  O201  1  0.49962689  0.25078544  0.74999336  1  -1.231107  0  -0.572764  -1.03133  0  2.536112  0
O  O202  1  0.68770888  0.23087451  0.69790914  1  -1.167823  0  -0.312218  -0.546035  0  2.386908  0
O  O203  1  0.40432015  0.43781620  0.76979463  1  -1.171379  0  -0.315309  -0.536253  0  2.326599  0
O  O204  1  0.53562957  0.22359446  0.84114924  1  -1.163955  0  -0.313436  -0.546536  0  2.414236  0
O  O205  1  0.58489641  0.35561784  0.70125463  1  -1.175171  0  -0.308789  -0.536135  0  2.337272  0
O  O206  1  0.66050192  0.15726167  0.78896298  1  -1.163867  0  -0.309092  -0.540172  0  2.32723  0
O  O207  1  0.38042871  0.37884037  0.83127435  1  -1.166851  0  -0.320173  -0.546207  0  2.32541  0
O  O208  1  0.36677002  0.22358888  0.83122867  1  -1.150687  0  -0.307838  -0.536953  0  2.330494  0
O  O209  1  0.53573198  0.10804004  0.68809263  1  -1.174488  0  -0.320244  -0.546219  0  2.32686  0
O  O210  1  0.37981363  0.16731530  0.76926144  1  -1.145904  0  -0.312868  -0.543089  0  2.414867  0
O  O211  1  0.65762071  0.08591442  0.70460940  1  -1.168102  0  -0.314714  -0.537383  0  2.304202  0
O  O212  1  0.42042295  0.36656167  0.68126240  1  -1.162754  0  -0.313432  -0.544061  0  2.396488  0
O  O213  1  0.37290881  0.27699317  0.69318484  1  -1.160546  0  -0.308025  -0.535939  0  2.340587  0
O  O214  1  0.50087808  0.74923159  0.25116162  1  -1.220598  0  -0.574331  -1.032811  0  2.538638  0
O  O215  1  0.39770348  0.70114456  0.33514553  1  -1.156908  0  -0.311009  -0.544447  0  2.322867  0
O  O216  1  0.56587834  0.58695082  0.20007284  1  -1.16761  0  -0.315822  -0.536899  0  2.33678  0
O  O217  1  0.67536441  0.66675293  0.27557004  1  -1.169015  0  -0.315373  -0.54622  0  2.442036  0
O  O218  1  0.38605433  0.66507492  0.27358458  1  -1.167231  0  -0.312293  -0.542796  0  2.429608  0
O  O219  1  0.56722001  0.71308854  0.33740870  1  -1.158226  0  -0.308772  -0.538282  0  2.31126  0
O  O220  1  0.68028602  0.61084981  0.18774278  1  -1.162638  0  -0.320819  -0.545288  0  2.304443  0
O  O221  1  0.65805567  0.77952932  0.19935340  1  -1.158617  0  -0.309948  -0.53767  0  2.340852  0
O  O222  1  0.38847148  0.92970454  0.27793467  1  -1.172603  0  -0.319111  -0.546538  0  2.348746  0
O  O223  1  0.53337989  0.86877664  0.18668147  1  -1.182707  0  -0.313287  -0.546217  0  2.397991  0
O  O224  1  0.39627256  0.86297811  0.33818852  1  -1.167442  0  -0.314555  -0.536063  0  2.29597  0
O  O225  1  0.40787501  0.73722537  0.18360481  1  -1.167816  0  -0.313606  -0.546191  0  2.372333  0
O  O226  1  0.35734936  0.86399233  0.20268174  1  -1.153114  0  -0.307405  -0.531921  0  2.296328  0
O  O227  1  0.99918268  0.00156510  0.00086820  1  -1.232727  0  -0.574793  -1.033531  0  2.540566  0
O  O228  1  0.08405128  0.89133564  0.06757359  1  -1.163203  0  -0.315379  -0.549068  0  2.409068  0
O  O229  1  0.99354627  0.14963803  0.04704384  1  -1.188829  0  -0.315221  -0.538254  0  2.273693  0
O  O230  1  0.81868342  0.01989654  0.06420732  1  -1.165265  0  -0.31201  -0.542053  0  2.399264  0
O  O231  1  0.13791588  0.97605879  0.05008487  1  -1.164808  0  -0.309541  -0.54068  0  2.319337  0
O  O232  1  0.91791710  0.89297939  0.05274746  1  -1.163548  0  -0.309083  -0.53814  0  2.314144  0
O  O233  1  0.86226559  0.15620404  0.05654246  1  -1.174537  0  -0.317487  -0.542791  0  2.38418  0
O  O234  1  0.81831483  0.10790774  0.97860421  1  -1.164826  0  -0.310304  -0.541352  0  2.378824  0
O  O235  1  0.09870974  0.87945600  0.91853797  1  -1.172899  0  -0.318853  -0.546435  0  2.333503  0
O  O236  1  0.91721311  0.02421687  0.92176228  1  -1.165434  0  -0.308643  -0.536885  0  2.31615  0
O  O237  1  0.09293661  0.81680722  0.98016826  1  -1.175401  0  -0.314209  -0.53566  0  2.311213  0
O  O238  1  0.14185917  0.05827499  0.96196331  1  -1.159107  0  -0.30813  -0.538117  0  2.307585  0
O  O239  1  0.07999358  0.05031803  0.91244088  1  -1.166172  0  -0.316222  -0.548939  0  2.396962  0
F  F240  1  0.66487502  0.79328472  0.58541376  1  -0.618798  0  -0.091204  -0.110304  0  1.342947  0
F  F241  1  0.18202365  0.27091869  0.34738967  1  -0.617077  0  -0.084665  -0.101839  0  1.352601  0
F  F242  1  0.32290358  0.60171944  0.78000384  1  -0.619507  0  -0.087683  -0.105638  0  1.349514  0
F  F243  1  0.59386789  0.45537809  0.15892840  1  -0.614476  0  -0.083372  -0.100093  0  1.354372  0
