# generated using pymatgen
data_AgH4C9N(ClO)2
_symmetry_space_group_name_H-M   'P 1'
_cell_length_a   9.70265973
_cell_length_b   9.70266074
_cell_length_c   11.02371890
_cell_angle_alpha   83.09855734
_cell_angle_beta   83.09826625
_cell_angle_gamma   89.58062464
_symmetry_Int_Tables_number   1
_chemical_formula_structural   AgH4C9N(ClO)2
_chemical_formula_sum   'Ag4 H16 C36 N4 Cl8 O8'
_cell_volume   1022.77886654
_cell_formula_units_Z   4
loop_
 _symmetry_equiv_pos_site_id
 _symmetry_equiv_pos_as_xyz
  1  'x, y, z'
loop_
 _atom_site_type_symbol
 _atom_site_label
 _atom_site_symmetry_multiplicity
 _atom_site_fract_x
 _atom_site_fract_y
 _atom_site_fract_z
 _atom_site_occupancy
 _atom_site_pbe_bader_spin_density
 _atom_site_pbe_cm5_charge
 _atom_site_pbe_ddec_charge
 _atom_site_pbe_ddec_spin_density
 _atom_site_pbe_ddec_sum_bond_order
 _atom_site_pbe_magmom
Ag  Ag0  1  0.39967933  0.51615600  0.64332658  1  0  0.426316  0.426044  0  1.967666  0
Ag  Ag1  1  0.48384401  0.60032247  0.85667493  1  0  0.426324  0.426082  0  1.967844  0
Ag  Ag2  1  0.60032529  0.48384861  0.35667782  1  0  0.4263  0.42605  0  1.967615  0
Ag  Ag3  1  0.51616060  0.39968109  0.14332777  1  0  0.426314  0.426011  0  1.967934  0
H  H4  1  0.02354050  0.85795590  0.84181469  1  0  0.094265  0.100769  0  1.042003  0
H  H5  1  0.14204465  0.97645967  0.65818943  1  0  0.094267  0.100756  0  1.042108  0
H  H6  1  0.97645888  0.14204760  0.15817861  1  0  0.094229  0.100718  0  1.042067  0
H  H7  1  0.85795580  0.02354698  0.34180976  1  0  0.094307  0.100827  0  1.04202  0
H  H8  1  0.84218315  0.67192101  0.90679806  1  0  0.105104  0.110238  0  1.004709  0
H  H9  1  0.32807713  0.15782067  0.59320824  1  0  0.105079  0.110218  0  1.004689  0
H  H10  1  0.15782246  0.32807839  0.09320045  1  0  0.105092  0.110233  0  1.004637  0
H  H11  1  0.67192438  0.84218600  0.40679627  1  0  0.105076  0.110208  0  1.004692  0
H  H12  1  0.90233802  0.42812199  0.87332660  1  0  0.098811  0.115444  0  1.022428  0
H  H13  1  0.57187694  0.09766419  0.62667822  1  0  0.09878  0.115385  0  1.02251  0
H  H14  1  0.09766656  0.57187430  0.12667690  1  0  0.098807  0.115434  0  1.02252  0
H  H15  1  0.42812452  0.90233416  0.37332267  1  0  0.098796  0.115423  0  1.022486  0
H  H16  1  0.14248794  0.37756231  0.77599125  1  0  0.112379  0.085393  0  0.992976  0
H  H17  1  0.62243387  0.85751435  0.72400998  1  0  0.112395  0.085411  0  0.992982  0
H  H18  1  0.85751766  0.62243604  0.22400738  1  0  0.112372  0.085401  0  0.992966  0
H  H19  1  0.37756341  0.14248396  0.27598593  1  0  0.112377  0.085365  0  0.992995  0
C  C20  1  0.17602920  0.71544870  0.77085433  1  0  0.112911  0.161429  0  4.001662  0
C  C21  1  0.28455213  0.82397141  0.72914635  1  0  0.112895  0.161363  0  4.00166  0
C  C22  1  0.82396600  0.28455063  0.22913898  1  0  0.112891  0.161426  0  4.001511  0
C  C23  1  0.71544829  0.17603003  0.27084888  1  0  0.112878  0.161451  0  4.001519  0
C  C24  1  0.04526959  0.75059344  0.82694447  1  0  -0.091491  -0.174973  0  3.979739  0
C  C25  1  0.24940430  0.95473174  0.67305865  1  0  -0.091457  -0.174888  0  3.97971  0
C  C26  1  0.95472771  0.24941007  0.17305088  1  0  -0.091416  -0.174968  0  3.979663  0
C  C27  1  0.75059716  0.04527385  0.32693692  1  0  -0.091552  -0.175013  0  3.979591  0
C  C28  1  0.94514842  0.64737559  0.86427615  1  0  -0.067671  -0.01101  0  3.949537  0
C  C29  1  0.35262323  0.05485335  0.63572911  1  0  -0.06771  -0.011153  0  3.949426  0
C  C30  1  0.05485303  0.35262482  0.13571998  1  0  -0.067683  -0.011046  0  3.949473  0
C  C31  1  0.64738242  0.94515021  0.36427348  1  0  -0.067632  -0.010989  0  3.949381  0
C  C32  1  0.97877634  0.51079452  0.84647033  1  0  -0.079259  -0.098686  0  3.944663  0
C  C33  1  0.48920564  0.02122572  0.65353438  1  0  -0.079231  -0.098557  0  3.94458  0
C  C34  1  0.02122720  0.48920798  0.15352717  1  0  -0.079285  -0.098702  0  3.944674  0
C  C35  1  0.51079790  0.97877367  0.34646617  1  0  -0.079287  -0.098751  0  3.944606  0
C  C36  1  0.11066328  0.48281716  0.79147763  1  0  0.040269  0.090149  0  3.944622  0
C  C37  1  0.51718255  0.88933955  0.70852255  1  0  0.040254  0.090102  0  3.944654  0
C  C38  1  0.88933921  0.51718429  0.20851737  1  0  0.040286  0.090154  0  3.944596  0
C  C39  1  0.48281891  0.11066293  0.29147335  1  0  0.040332  0.090231  0  3.944587  0
C  C40  1  0.44472275  0.28045579  0.88322089  1  0  0.194977  0.577993  0  4.259965  0
C  C41  1  0.71955070  0.55526130  0.61679121  1  0  0.194967  0.577908  0  4.259847  0
C  C42  1  0.55526939  0.71954565  0.11678159  1  0  0.194938  0.578001  0  4.260006  0
C  C43  1  0.28045282  0.44472773  0.38321501  1  0  0.194965  0.577837  0  4.260045  0
C  C44  1  0.47228491  0.13597640  0.94603759  1  0  -0.021716  -0.126604  0  3.981111  0
C  C45  1  0.86403179  0.52770508  0.55398237  1  0  -0.021704  -0.126751  0  3.980983  0
C  C46  1  0.52770620  0.86402608  0.05396670  1  0  -0.021788  -0.126845  0  3.981079  0
C  C47  1  0.13597278  0.47228810  0.44602057  1  0  -0.021614  -0.126505  0  3.981036  0
C  C48  1  0.36452809  0.03935752  0.98308802  1  0  0.00649  0.060682  0  4.034468  0
C  C49  1  0.96065067  0.63545850  0.51691782  1  0  0.006547  0.060946  0  4.034265  0
C  C50  1  0.63545887  0.96065012  0.01691344  1  0  0.006585  0.060887  0  4.03435  0
C  C51  1  0.03935492  0.36453364  0.48308239  1  0  0.00651  0.060738  0  4.034605  0
C  C52  1  0.39192393  0.90476118  0.03638904  1  0  0.003924  0.054241  0  4.053993  0
C  C53  1  0.09524041  0.60806719  0.46360865  1  0  0.003785  0.053904  0  4.05443  0
C  C54  1  0.60806613  0.09524233  0.96361435  1  0  0.00381  0.054022  0  4.054558  0
C  C55  1  0.90476414  0.39192494  0.53639168  1  0  0.003961  0.054253  0  4.054147  0
N  N56  1  0.20687581  0.58287938  0.75308131  1  0  -0.338884  -0.259985  0  3.611289  0
N  N57  1  0.41711913  0.79312784  0.74691802  1  0  -0.338872  -0.259967  0  3.611348  0
N  N58  1  0.79312460  0.41712310  0.24691471  1  0  -0.338875  -0.259965  0  3.611234  0
N  N59  1  0.58288129  0.20687567  0.25307608  1  0  -0.338896  -0.259983  0  3.611285  0
Cl  Cl60  1  0.19637437  0.08754294  0.96214786  1  0  0.025755  -0.032561  0  1.648527  0
Cl  Cl61  1  0.91245799  0.80361962  0.53785754  1  0  0.025698  -0.032676  0  1.648268  0
Cl  Cl62  1  0.80361879  0.91245848  0.03785088  1  0  0.025702  -0.032658  0  1.648387  0
Cl  Cl63  1  0.08754448  0.19637663  0.46213803  1  0  0.02567  -0.03266  0  1.648396  0
Cl  Cl64  1  0.25833718  0.78682246  0.08163650  1  0  0.018637  -0.046641  0  1.708865  0
Cl  Cl65  1  0.21317329  0.74165412  0.41835639  1  0  0.018652  -0.046569  0  1.709044  0
Cl  Cl66  1  0.74164975  0.21317687  0.91836496  1  0  0.018685  -0.046562  0  1.709128  0
Cl  Cl67  1  0.78682708  0.25833589  0.58164009  1  0  0.018602  -0.046676  0  1.70891  0
O  O68  1  0.43702021  0.29087596  0.77004564  1  0  -0.305872  -0.511582  0  2.261828  0
O  O69  1  0.70913156  0.56297133  0.72998553  1  0  -0.305925  -0.51162  0  2.26108  0
O  O70  1  0.56297711  0.70912549  0.22995446  1  0  -0.305868  -0.511591  0  2.261847  0
O  O71  1  0.29087301  0.43701668  0.27002431  1  0  -0.305969  -0.511602  0  2.261335  0
O  O72  1  0.43287237  0.37786596  0.95239098  1  0  -0.334844  -0.520152  0  2.439516  0
O  O73  1  0.62214813  0.56711180  0.54764139  1  0  -0.334856  -0.52007  0  2.440028  0
O  O74  1  0.56712081  0.62213755  0.04761207  1  0  -0.33483  -0.520145  0  2.439659  0
O  O75  1  0.37785545  0.43288660  0.45236925  1  0  -0.334779  -0.520022  0  2.439993  0
