# generated using pymatgen
data_PrH16C9O8
_symmetry_space_group_name_H-M   'P 1'
_cell_length_a   8.68644780
_cell_length_b   9.92438322
_cell_length_c   11.73482243
_cell_angle_alpha   72.52497380
_cell_angle_beta   69.77691529
_cell_angle_gamma   85.15391649
_symmetry_Int_Tables_number   1
_chemical_formula_structural   PrH16C9O8
_chemical_formula_sum   'Pr2 H32 C18 O16'
_cell_volume   905.24637116
_cell_formula_units_Z   2
loop_
 _symmetry_equiv_pos_site_id
 _symmetry_equiv_pos_as_xyz
  1  'x, y, z'
loop_
 _atom_site_type_symbol
 _atom_site_label
 _atom_site_symmetry_multiplicity
 _atom_site_fract_x
 _atom_site_fract_y
 _atom_site_fract_z
 _atom_site_occupancy
 _atom_site_pbe_bader_charge
 _atom_site_pbe_bader_spin_density
 _atom_site_pbe_cm5_charge
 _atom_site_pbe_ddec_charge
 _atom_site_pbe_ddec_spin_density
 _atom_site_pbe_ddec_sum_bond_order
 _atom_site_pbe_magmom
Pr  Pr0  1  0.74477054  0.98284223  0.00873593  1  2.249226  0  1.470183  2.080781  0  2.092831  0
Pr  Pr1  1  0.25522220  0.01715727  0.99126330  1  2.249156  0  1.470153  2.080765  0  2.092923  0
H  H2  1  0.28286916  0.98686675  0.66877626  1  0.088348  0  0.110972  0.136787  0  0.994846  0
H  H3  1  0.26974995  0.80630797  0.74304820  1  0.034192  0  0.107325  0.12449  0  0.980969  0
H  H4  1  0.10207984  0.76737909  0.61883067  1  0.013755  0  0.085579  0.076131  0  0.981089  0
H  H5  1  0.07927029  0.95020412  0.56201918  1  0.017967  0  0.088487  0.080002  0  1.002203  0
H  H6  1  0.38488038  0.98254498  0.45227857  1  0.026735  0  0.093716  0.087363  0  0.977577  0
H  H7  1  0.40942516  0.79912445  0.50047462  1  0.027104  0  0.088625  0.080382  0  0.979798  0
H  H8  1  0.19384206  0.94268294  0.33864861  1  0.086162  0  0.10528  0.126992  0  1.02037  0
H  H9  1  0.25042757  0.76308989  0.37203287  1  0.020788  0  0.100379  0.104987  0  0.971668  0
H  H10  1  0.72379998  0.46757847  0.22025737  1  0.025791  0  0.106062  0.121645  0  0.960539  0
H  H11  1  0.70594800  0.46815591  0.07432938  1  0.060751  0  0.099189  0.116884  0  0.992978  0
H  H12  1  0.02504985  0.51374570  0.11945030  1  0.022645  0  0.089677  0.080789  0  0.99409  0
H  H13  1  0.96720588  0.35674704  0.10272647  1  0.03952  0  0.095154  0.09011  0  1.008068  0
H  H14  1  0.99557220  0.24752770  0.85413033  1  0.665651  0  0.305079  0.41557  0  0.917991  0
H  H15  1  0.91134621  0.23212802  0.75685118  1  0.600477  0  0.329111  0.406605  0  0.885603  0
H  H16  1  0.69918719  0.27617430  0.96740917  1  0.623216  0  0.304002  0.392263  0  0.927273  0
H  H17  1  0.51068435  0.24692915  0.02552907  1  0.651904  0  0.306868  0.413845  0  0.908057  0
H  H18  1  0.71713088  0.01313045  0.33122933  1  0.088195  0  0.11096  0.136793  0  0.994854  0
H  H19  1  0.73024760  0.19368815  0.25695913  1  0.034801  0  0.10733  0.12448  0  0.981004  0
H  H20  1  0.89792508  0.23261711  0.38117135  1  0.013756  0  0.085583  0.076122  0  0.981018  0
H  H21  1  0.92073586  0.04979210  0.43798167  1  0.01799  0  0.088476  0.080025  0  1.002155  0
H  H22  1  0.61513054  0.01744590  0.54772490  1  0.026667  0  0.093663  0.087333  0  0.977595  0
H  H23  1  0.59057350  0.20086661  0.49952426  1  0.027192  0  0.088578  0.080325  0  0.979802  0
H  H24  1  0.80616194  0.05732485  0.66135258  1  0.086271  0  0.105317  0.127025  0  1.020319  0
H  H25  1  0.74956539  0.23691800  0.62796686  1  0.020705  0  0.10036  0.104967  0  0.971581  0
H  H26  1  0.27620386  0.53242314  0.77973852  1  0.025874  0  0.106051  0.121615  0  0.960512  0
H  H27  1  0.29405840  0.53184990  0.92566571  1  0.060733  0  0.099177  0.116867  0  0.992972  0
H  H28  1  0.97495532  0.48626011  0.88054510  1  0.022444  0  0.089699  0.080836  0  0.994051  0
H  H29  1  0.03279929  0.64325877  0.89726893  1  0.039422  0  0.095173  0.09014  0  1.008099  0
H  H30  1  0.00442677  0.75247508  0.14586141  1  0.665792  0  0.305044  0.415521  0  0.918061  0
H  H31  1  0.08865513  0.76787155  0.24314242  1  0.600553  0  0.329118  0.406671  0  0.885532  0
H  H32  1  0.30081174  0.72382733  0.03258712  1  0.623204  0  0.304004  0.392297  0  0.92723  0
H  H33  1  0.48931460  0.75307347  0.97446953  1  0.651911  0  0.306848  0.413818  0  0.908076  0
C  C34  1  0.05302202  0.91738069  0.80677044  1  1.521725  0  0.214663  0.66219  0  4.15502  0
C  C35  1  0.20103795  0.89381558  0.70071030  1  -0.017658  0  -0.160919  -0.313757  0  3.928288  0
C  C36  1  0.16558343  0.87010845  0.58967839  1  -0.008572  0  -0.16641  -0.118243  0  3.966746  0
C  C37  1  0.32262467  0.88053229  0.47591981  1  0.00437  0  -0.164436  -0.120121  0  3.957272  0
C  C38  1  0.29155354  0.87110034  0.35821405  1  -0.048104  0  -0.159104  -0.2985  0  3.916851  0
C  C39  1  0.55906415  0.09283473  0.76070666  1  1.536471  0  0.220154  0.682635  0  4.101764  0
C  C40  1  0.75589782  0.66985717  0.08649269  1  1.51335  0  0.21245  0.655765  0  4.132885  0
C  C41  1  0.77765984  0.51185518  0.11635183  1  -0.003998  0  -0.159827  -0.293945  0  3.923172  0
C  C42  1  0.95869094  0.47234354  0.07193353  1  -0.014994  0  -0.1627  -0.120461  0  3.920522  0
C  C43  1  0.94697432  0.08261559  0.19323035  1  1.521175  0  0.214607  0.662208  0  4.155118  0
C  C44  1  0.79896209  0.10618164  0.29929442  1  -0.017956  0  -0.160857  -0.313693  0  3.928497  0
C  C45  1  0.83442026  0.12988779  0.41032222  1  -0.008644  0  -0.166421  -0.11829  0  3.966751  0
C  C46  1  0.67738020  0.11946174  0.52408530  1  0.004378  0  -0.164325  -0.119975  0  3.957303  0
C  C47  1  0.70844160  0.12889702  0.64178593  1  -0.048053  0  -0.159119  -0.298588  0  3.916795  0
C  C48  1  0.44093221  0.90716256  0.23929644  1  1.536837  0  0.220215  0.682661  0  4.101745  0
C  C49  1  0.24409991  0.33014537  0.91350966  1  1.513243  0  0.212425  0.655645  0  4.133166  0
C  C50  1  0.22234285  0.48814957  0.88364445  1  -0.004072  0  -0.159807  -0.293793  0  3.923292  0
C  C51  1  0.04131674  0.52766438  0.92806072  1  0.007438  0  -0.162788  -0.120688  0  3.920733  0
O  O52  1  0.57843330  0.05780899  0.87014509  1  -1.224881  0  -0.4503  -0.764447  0  2.362727  0
O  O53  1  0.58336143  0.90331002  0.24589907  1  -1.179434  0  -0.360078  -0.607317  0  2.188921  0
O  O54  1  0.84447277  0.74418742  0.11372671  1  -1.199046  0  -0.37045  -0.643185  0  2.289908  0
O  O55  1  0.65226469  0.73099825  0.03424008  1  -1.204681  0  -0.358465  -0.634043  0  2.22023  0
O  O56  1  0.90897696  0.91604791  0.80347569  1  -1.187088  0  -0.36212  -0.624139  0  2.195083  0
O  O57  1  0.07547370  0.94151844  0.90202044  1  -1.231276  0  -0.444914  -0.746819  0  2.369923  0
O  O58  1  0.61404195  0.22265104  0.04460821  1  -1.262937  0  -0.615838  -0.815737  0  1.948826  0
O  O59  1  0.88931761  0.22460535  0.84551865  1  -1.258886  0  -0.597444  -0.835443  0  2.03047  0
O  O60  1  0.42156179  0.94218628  0.12985455  1  -1.224794  0  -0.450287  -0.76445  0  2.362597  0
O  O61  1  0.41663734  0.09668529  0.75409792  1  -1.179119  0  -0.360042  -0.607295  0  2.188817  0
O  O62  1  0.15552624  0.25581723  0.88627480  1  -1.19894  0  -0.370406  -0.643164  0  2.290035  0
O  O63  1  0.34772807  0.26900213  0.96576660  1  -1.204701  0  -0.358453  -0.634008  0  2.220301  0
O  O64  1  0.09102049  0.08394417  0.19652496  1  -1.187009  0  -0.362095  -0.624181  0  2.195167  0
O  O65  1  0.92452275  0.05848207  0.09797931  1  -1.231026  0  -0.444914  -0.746838  0  2.369923  0
O  O66  1  0.38595695  0.77734949  0.95539005  1  -1.262953  0  -0.615817  -0.81575  0  1.948864  0
O  O67  1  0.11068269  0.77540164  0.15447260  1  -1.259063  0  -0.597401  -0.83546  0  2.030483  0
