# generated using pymatgen
data_CdH10C16S2(N5Cl)2
_symmetry_space_group_name_H-M   'P 1'
_cell_length_a   5.64895692
_cell_length_b   8.11754701
_cell_length_c   12.04509130
_cell_angle_alpha   106.27893029
_cell_angle_beta   92.22368807
_cell_angle_gamma   89.88933875
_symmetry_Int_Tables_number   1
_chemical_formula_structural   CdH10C16S2(N5Cl)2
_chemical_formula_sum   'Cd1 H10 C16 S2 N10 Cl2'
_cell_volume   529.76947509
_cell_formula_units_Z   1
loop_
 _symmetry_equiv_pos_site_id
 _symmetry_equiv_pos_as_xyz
  1  'x, y, z'
loop_
 _atom_site_type_symbol
 _atom_site_label
 _atom_site_symmetry_multiplicity
 _atom_site_fract_x
 _atom_site_fract_y
 _atom_site_fract_z
 _atom_site_occupancy
 _atom_site_hle17_bader_spin_density
 _atom_site_hle17_ddec_charge
 _atom_site_hle17_ddec_spin_density
 _atom_site_hle17_ddec_sum_bond_order
 _atom_site_hle17_magmom
 _atom_site_hse06_10hf_bader_spin_density
 _atom_site_hse06_10hf_ddec_charge
 _atom_site_hse06_10hf_ddec_spin_density
 _atom_site_hse06_10hf_ddec_sum_bond_order
 _atom_site_hse06_10hf_magmom
 _atom_site_hse06_bader_spin_density
 _atom_site_hse06_ddec_charge
 _atom_site_hse06_ddec_spin_density
 _atom_site_hse06_ddec_sum_bond_order
 _atom_site_hse06_magmom
 _atom_site_pbe_bader_spin_density
 _atom_site_pbe_cm5_charge
 _atom_site_pbe_ddec_charge
 _atom_site_pbe_ddec_spin_density
 _atom_site_pbe_ddec_sum_bond_order
 _atom_site_pbe_magmom
Cd  Cd0  1  0.00000291  0.99999933  0.99999870  1  0  0.969879  0  1.980537  0  0  0.7975  0  2.439287  0  0  0.840517  0  2.40516  0  0  0.724691  0.767336  0  2.462309  0
H  H1  1  0.82861751  0.80181359  0.70910231  1  0  0.122978  0  0.922996  0  0  0.127708  0  0.993376  0  0  0.130988  0  0.987545  0  0  0.142696  0.125047  0  0.997182  0
H  H2  1  0.17138631  0.19819335  0.29089883  1  0  0.122923  0  0.923079  0  0  0.127672  0  0.993453  0  0  0.130951  0  0.98762  0  0  0.142647  0.124996  0  0.997286  0
H  H3  1  0.26328129  0.72281509  0.23208493  1  0  0.087048  0  0.96611  0  0  0.097012  0  1.028901  0  0  0.099242  0  1.027659  0  0  0.097255  0.095332  0  1.029951  0
H  H4  1  0.73670814  0.27717913  0.76791862  1  0  0.08712  0  0.965926  0  0  0.097038  0  1.02876  0  0  0.09927  0  1.02752  0  0  0.097271  0.095359  0  1.029812  0
H  H5  1  0.43283315  0.11444394  0.82359721  1  0  0.086309  0  0.963618  0  0  0.094577  0  1.029248  0  0  0.095682  0  1.028365  0  0  0.12584  0.093587  0  1.030061  0
H  H6  1  0.56715965  0.88555674  0.17639931  1  0  0.086326  0  0.963426  0  0  0.094592  0  1.029088  0  0  0.095696  0  1.028206  0  0  0.125805  0.093608  0  1.029879  0
H  H7  1  0.36432428  0.89666686  0.43707645  1  0  0.129726  0  0.968097  0  0  0.128868  0  1.047596  0  0  0.133683  0  1.043815  0  0  0.107987  0.125304  0  1.050724  0
H  H8  1  0.63568058  0.10332082  0.56292014  1  0  0.129758  0  0.967981  0  0  0.128889  0  1.047509  0  0  0.133704  0  1.043727  0  0  0.108019  0.125326  0  1.050636  0
H  H9  1  0.91421158  0.52186304  0.19309615  1  0  0.117457  0  0.984313  0  0  0.122262  0  1.053481  0  0  0.12589  0  1.05268  0  0  0.093171  0.119612  0  1.054295  0
H  H10  1  0.08577604  0.47813897  0.80690226  1  0  0.117444  0  0.984357  0  0  0.122253  0  1.053523  0  0  0.12588  0  1.052724  0  0  0.093172  0.119604  0  1.054337  0
C  C11  1  0.99211359  0.87300703  0.71311757  1  0  0.204472  0  3.604983  0  0  0.12389  0  3.87905  0  0  0.151331  0  3.890691  0  0  0.171167  0.113177  0  3.873128  0
C  C12  1  0.00790042  0.12699470  0.28687765  1  0  0.204482  0  3.604857  0  0  0.12385  0  3.878975  0  0  0.151291  0  3.890611  0  0  0.171151  0.113141  0  3.873075  0
C  C13  1  0.15613742  0.71277658  0.30328618  1  0  0.025788  0  3.743784  0  0  0.010852  0  3.990678  0  0  0.014744  0  4.010037  0  0  -0.071178  0.008464  0  3.977824  0
C  C14  1  0.84386117  0.28723041  0.69671659  1  0  0.025682  0  3.743752  0  0  0.010802  0  3.990638  0  0  0.014693  0  4.009998  0  0  -0.071201  0.008415  0  3.977785  0
C  C15  1  0.30015336  0.03126183  0.76770201  1  0  0.213862  0  3.694542  0  0  0.163871  0  3.978105  0  0  0.17549  0  3.989651  0  0  0.150435  0.156797  0  3.967691  0
C  C16  1  0.69985212  0.96874770  0.23229549  1  0  0.213736  0  3.694423  0  0  0.163733  0  3.978001  0  0  0.175346  0  3.98955  0  0  0.150433  0.156664  0  3.967586  0
C  C17  1  0.50042486  0.22723290  0.04439813  1  0  0.302983  0  4.018609  0  0  0.280389  0  4.327978  0  0  0.302435  0  4.341728  0  0  0.140849  0.265359  0  4.318466  0
C  C18  1  0.49957180  0.77275732  0.95561051  1  0  0.302731  0  4.018675  0  0  0.280122  0  4.328059  0  0  0.302172  0  4.341817  0  0  0.140744  0.265092  0  4.318541  0
C  C19  1  0.21289553  0.80952959  0.41645002  1  0  -0.188367  0  3.688983  0  0  -0.218424  0  3.958817  0  0  -0.224859  0  3.972489  0  0  -0.092165  -0.21421  0  3.947786  0
C  C20  1  0.78711174  0.19046568  0.58355553  1  0  -0.188232  0  3.688827  0  0  -0.218326  0  3.958602  0  0  -0.224761  0  3.972276  0  0  -0.092095  -0.214111  0  3.947576  0
C  C21  1  0.06697487  0.78735010  0.50174090  1  0  0.336543  0  3.786426  0  0  0.300496  0  4.057441  0  0  0.323693  0  4.072592  0  0  0.224802  0.292046  0  4.046726  0
C  C22  1  0.93302158  0.21264535  0.49826045  1  0  0.336479  0  3.786438  0  0  0.300523  0  4.057247  0  0  0.323726  0  4.072393  0  0  0.224748  0.29206  0  4.046554  0
C  C23  1  0.83039737  0.59264021  0.37425778  1  0  0.311196  0  3.811483  0  0  0.306432  0  4.089989  0  0  0.317796  0  4.106789  0  0  0.145315  0.29849  0  4.079253  0
C  C24  1  0.16960216  0.40735400  0.62573505  1  0  0.311049  0  3.811407  0  0  0.306177  0  4.090025  0  0  0.317539  0  4.106823  0  0  0.145163  0.298237  0  4.079285  0
C  C25  1  0.96216017  0.60124989  0.28015394  1  0  -0.18721  0  3.718428  0  0  -0.204669  0  3.959983  0  0  -0.214383  0  3.982738  0  0  -0.095843  -0.198461  0  3.945295  0
C  C26  1  0.03783604  0.39874948  0.71984069  1  0  -0.187223  0  3.71852  0  0  -0.204672  0  3.960078  0  0  -0.214387  0  3.982839  0  0  -0.09589  -0.198465  0  3.945389  0
S  S27  1  0.74339475  0.29504842  0.00219121  1  0  -0.325924  0  2.126309  0  0  -0.293047  0  2.436709  0  0  -0.309393  0  2.42933  0  0  -0.133926  -0.281555  0  2.441515  0
S  S28  1  0.25660349  0.70495475  0.99780667  1  0  -0.325721  0  2.126747  0  0  -0.292832  0  2.437164  0  0  -0.309174  0  2.429784  0  0  -0.13383  -0.281359  0  2.44199  0
N  N29  1  0.10531248  0.96993940  0.80795216  1  0  -0.404921  0  3.207598  0  0  -0.33158  0  3.494425  0  0  -0.354415  0  3.507459  0  0  -0.341586  -0.315833  0  3.482172  0
N  N30  1  0.89468783  0.03006498  0.19205095  1  0  -0.404815  0  3.208042  0  0  -0.33146  0  3.494877  0  0  -0.354293  0  3.507915  0  0  -0.341503  -0.315704  0  3.482585  0
N  N31  1  0.11558070  0.87732280  0.61993336  1  0  -0.024379  0  3.600435  0  0  0.090282  0  3.781739  0  0  0.046159  0  3.843961  0  0  -0.114345  0.09832  0  3.766114  0
N  N32  1  0.88441916  0.12267263  0.38006553  1  0  -0.024319  0  3.600265  0  0  0.090313  0  3.781544  0  0  0.046185  0  3.843767  0  0  -0.114306  0.098352  0  3.765916  0
N  N33  1  0.31327477  0.97810303  0.65365288  1  0  -0.255669  0  2.862273  0  0  -0.250848  0  3.128166  0  0  -0.248908  0  3.14834  0  0  -0.21379  -0.245239  0  3.118298  0
N  N34  1  0.68672368  0.02190139  0.34634857  1  0  -0.255682  0  2.862094  0  0  -0.25086  0  3.127991  0  0  -0.248915  0  3.148165  0  0  -0.213819  -0.245254  0  3.118119  0
N  N35  1  0.87869225  0.68271328  0.48298442  1  0  -0.407772  0  3.067074  0  0  -0.384729  0  3.342664  0  0  -0.397721  0  3.351953  0  0  -0.31907  -0.375608  0  3.333683  0
N  N36  1  0.12130721  0.31728095  0.51700676  1  0  -0.407708  0  3.067003  0  0  -0.384574  0  3.34247  0  0  -0.397564  0  3.351757  0  0  -0.318928  -0.375453  0  3.333499  0
N  N37  1  0.32403710  0.17690562  0.07461611  1  0  -0.548835  0  2.858026  0  0  -0.495955  0  3.133097  0  0  -0.516789  0  3.140642  0  0  -0.402461  -0.481762  0  3.127923  0
N  N38  1  0.67597629  0.82310751  0.92539626  1  0  -0.548744  0  2.857643  0  0  -0.495882  0  3.132787  0  0  -0.516725  0  3.140341  0  0  -0.402454  -0.481687  0  3.127609  0
Cl  Cl39  1  0.58839233  0.45455496  0.34979797  1  0  -0.080249  0  1.380539  0  0  -0.066146  0  1.625462  0  0  -0.07093  0  1.621823  0  0  0.022508  -0.062535  0  1.627714  0
Cl  Cl40  1  0.41159877  0.54544443  0.65020079  1  0  -0.080205  0  1.380523  0  0  -0.0661  0  1.6255  0  0  -0.070883  0  1.62186  0  0  0.022522  -0.062489  0  1.627751  0
