# generated using pymatgen
data_AlH4C9NClO5F
_symmetry_space_group_name_H-M   'P 1'
_cell_length_a   6.70663163
_cell_length_b   8.91379688
_cell_length_c   16.86880624
_cell_angle_alpha   100.89218021
_cell_angle_beta   84.45331301
_cell_angle_gamma   74.22125858
_symmetry_Int_Tables_number   1
_chemical_formula_structural   AlH4C9NClO5F
_chemical_formula_sum   'Al2 H8 C18 N2 Cl2 O10 F2'
_cell_volume   941.19476730
_cell_formula_units_Z   2
loop_
 _symmetry_equiv_pos_site_id
 _symmetry_equiv_pos_as_xyz
  1  'x, y, z'
loop_
 _atom_site_type_symbol
 _atom_site_label
 _atom_site_symmetry_multiplicity
 _atom_site_fract_x
 _atom_site_fract_y
 _atom_site_fract_z
 _atom_site_occupancy
 _atom_site_pbe_bader_charge
 _atom_site_pbe_bader_spin_density
 _atom_site_pbe_cm5_charge
 _atom_site_pbe_ddec_charge
 _atom_site_pbe_ddec_spin_density
 _atom_site_pbe_ddec_sum_bond_order
 _atom_site_pbe_magmom
Al  Al0  1  0.99999884  0.50002626  0.50000912  1  2.504038  0  0.401758  1.65318  0  2.554527  0
Al  Al1  1  0.49999304  0.50002195  0.50000694  1  2.503453  0  0.399171  1.655787  0  2.562005  0
H  H2  1  0.16724612  0.67445009  0.57993227  1  0.636642  0  0.35809  0.440221  0  0.837696  0
H  H3  1  0.83269645  0.32573098  0.42000044  1  0.637671  0  0.358304  0.440523  0  0.836903  0
H  H4  1  0.62486757  0.52475131  0.27034908  1  0.148501  0  0.108176  0.120712  0  1.026107  0
H  H5  1  0.69449956  0.52423520  0.12168070  1  0.110321  0  0.103676  0.105578  0  1.040291  0
H  H6  1  0.07296882  0.49045126  0.09795612  1  0.110237  0  0.117451  0.142453  0  0.997643  0
H  H7  1  0.92707380  0.50941535  0.90202920  1  0.109088  0  0.117541  0.14259  0  0.997832  0
H  H8  1  0.30545060  0.47581246  0.87833321  1  0.110373  0  0.103714  0.105561  0  1.040412  0
H  H9  1  0.37507749  0.47529370  0.72966316  1  0.148201  0  0.108058  0.12061  0  1.026092  0
C  C10  1  0.64933097  0.78468021  0.51277426  1  1.622095  0  0.265202  0.645273  0  4.118675  0
C  C11  1  0.70899056  0.50054724  0.64358953  1  1.59149  0  0.266668  0.655834  0  4.100322  0
C  C12  1  0.35070985  0.21536938  0.48723497  1  1.623299  0  0.265775  0.646104  0  4.117362  0
C  C13  1  0.29097333  0.49945868  0.35642126  1  1.590795  0  0.266626  0.65559  0  4.100537  0
C  C14  1  0.31485830  0.50516592  0.26813668  1  -0.015733  0  -0.016829  -0.151076  0  3.937339  0
C  C15  1  0.50648938  0.51677407  0.23134309  1  0.03048  0  -0.072343  -0.05265  0  3.969249  0
C  C16  1  0.54526191  0.51659164  0.14930581  1  -0.071486  0  -0.08796  -0.158686  0  3.956467  0
C  C17  1  0.38868241  0.50566380  0.10053026  1  0.381305  0  0.09274  0.20315  0  4.042192  0
C  C18  1  0.19480532  0.49756649  0.13554475  1  0.016295  0  -0.090773  -0.273365  0  3.94081  0
C  C19  1  0.16140183  0.49672214  0.21796131  1  0.464043  0  0.112197  0.29214  0  4.033898  0
C  C20  1  0.80522064  0.50233804  0.86444783  1  -0.037515  0  -0.090722  -0.273474  0  3.941061  0
C  C21  1  0.61132114  0.49429811  0.89946716  1  0.379777  0  0.092502  0.202903  0  4.042079  0
C  C22  1  0.45471376  0.48340951  0.85069349  1  -0.071033  0  -0.087812  -0.158518  0  3.956482  0
C  C23  1  0.49348187  0.48323131  0.76865958  1  0.031068  0  -0.072334  -0.052419  0  3.969342  0
C  C24  1  0.68511957  0.49479678  0.73186374  1  -0.01637  0  -0.016782  -0.151361  0  3.937992  0
C  C25  1  0.83861058  0.50317771  0.78202513  1  0.520188  0  0.112023  0.292063  0  4.033945  0
C  C26  1  0.58106716  0.96196511  0.51708373  1  0.179136  0  0.012216  -0.038086  0  3.946826  0
C  C27  1  0.41893679  0.03808310  0.48292892  1  0.099946  0  0.012185  -0.038151  0  3.946837  0
N  N28  1  0.40935194  0.50238389  0.01595271  1  -0.465505  0  -0.143771  -0.128083  0  3.254791  0
N  N29  1  0.59065106  0.49758798  0.98404757  1  -0.497415  0  -0.143628  -0.127752  0  3.254614  0
Cl  Cl30  1  0.72915542  0.06217394  0.57054941  1  -0.141348  0  0.031029  0.000603  0  1.586112  0
Cl  Cl31  1  0.27081724  0.93787887  0.42947323  1  -0.140801  0  0.0311  0.000645  0  1.585862  0
O  O32  1  0.84556477  0.71777420  0.50206054  1  -1.23554  0  -0.227872  -0.577504  0  2.360829  0
O  O33  1  0.55427996  0.48577087  0.60779570  1  -1.254814  0  -0.236059  -0.596098  0  2.373964  0
O  O34  1  0.49415599  0.28128437  0.47814421  1  -1.242487  0  -0.228288  -0.581405  0  2.377505  0
O  O35  1  0.12474518  0.47762138  0.38876644  1  -1.248485  0  -0.236198  -0.593001  0  2.352173  0
O  O36  1  0.15451704  0.28230830  0.49796202  1  -1.235534  0  -0.227979  -0.577674  0  2.360783  0
O  O37  1  0.44567867  0.51425773  0.39221695  1  -1.254617  0  -0.236097  -0.596098  0  2.374182  0
O  O38  1  0.50595241  0.71873494  0.52185100  1  -1.241773  0  -0.227961  -0.580954  0  2.378415  0
O  O39  1  0.87520410  0.52239966  0.61124332  1  -1.248894  0  -0.236275  -0.593106  0  2.352266  0
O  O40  1  0.21349694  0.57334439  0.54014505  1  -1.431383  0  -0.447426  -0.99049  0  2.182955  0
O  O41  1  0.78648480  0.42672421  0.45987492  1  -1.432328  0  -0.447605  -0.990711  0  2.182195  0
F  F42  1  0.97176064  0.48713559  0.24857121  1  -0.632583  0  -0.080828  -0.120518  0  1.393402  0
F  F43  1  0.02830162  0.51267221  0.75140219  1  -0.632797  0  -0.080661  -0.120339  0  1.393297  0
