# generated using pymatgen
data_CuH8C8(NO3)2
_symmetry_space_group_name_H-M   'P 1'
_cell_length_a   6.38317747
_cell_length_b   8.48875882
_cell_length_c   9.89929858
_cell_angle_alpha   89.99976804
_cell_angle_beta   107.28062260
_cell_angle_gamma   89.99975229
_symmetry_Int_Tables_number   1
_chemical_formula_structural   CuH8C8(NO3)2
_chemical_formula_sum   'Cu2 H16 C16 N4 O12'
_cell_volume   512.18379860
_cell_formula_units_Z   2
loop_
 _symmetry_equiv_pos_site_id
 _symmetry_equiv_pos_as_xyz
  1  'x, y, z'
loop_
 _atom_site_type_symbol
 _atom_site_label
 _atom_site_symmetry_multiplicity
 _atom_site_fract_x
 _atom_site_fract_y
 _atom_site_fract_z
 _atom_site_occupancy
 _atom_site_hle17_ddec_charge
 _atom_site_hle17_ddec_spin_density
 _atom_site_hle17_ddec_sum_bond_order
 _atom_site_hle17_magmom
 _atom_site_hse06_10hf_ddec_charge
 _atom_site_hse06_10hf_ddec_spin_density
 _atom_site_hse06_10hf_ddec_sum_bond_order
 _atom_site_hse06_10hf_magmom
 _atom_site_hse06_ddec_charge
 _atom_site_hse06_ddec_spin_density
 _atom_site_hse06_ddec_sum_bond_order
 _atom_site_hse06_magmom
 _atom_site_pbe_cm5_charge
 _atom_site_pbe_ddec_charge
 _atom_site_pbe_ddec_spin_density
 _atom_site_pbe_ddec_sum_bond_order
 _atom_site_pbe_magmom
Cu  Cu0  1  0.49997239  0.00001562  0.00000564  1  0.986324  -0.724189  1.748121  -0.56  0.980404  -0.815488  2.14242  -0.683  1.058442  -0.870116  2.088515  -0.763  0.731958  0.919677  -0.773711  2.194956  -0.628
Cu  Cu1  1  0.49999291  0.49999684  0.49999983  1  0.986365  -0.724192  1.748163  -0.56  0.980394  -0.815489  2.142466  -0.683  1.058433  -0.870094  2.088473  -0.763  0.731948  0.919576  -0.773717  2.195142  -0.628
H  H2  1  0.67443163  0.10580403  0.25703862  1  0.390666  0.000522  0.90658  0.001  0.362304  -0.000198  0.982193  0.0  0.37608  -4.1e-05  0.968034  0.0  0.298491  0.352091  -0.000396  0.992409  -0.001
H  H3  1  0.32557019  0.60580709  0.24296377  1  0.39066  0.000524  0.906474  0.001  0.362223  -0.000198  0.982228  0.0  0.375994  -4.2e-05  0.968069  0.0  0.298414  0.352012  -0.000396  0.992436  -0.001
H  H4  1  0.32557727  0.89419908  0.74296811  1  0.390607  0.000523  0.906591  0.001  0.362251  -0.000198  0.982189  0.0  0.376025  -4.1e-05  0.96803  0.0  0.298448  0.35204  -0.000396  0.992407  -0.001
H  H5  1  0.67444014  0.39419719  0.75703816  1  0.390683  0.000523  0.906456  0.001  0.362238  -0.000198  0.982211  0.0  0.37601  -4.1e-05  0.968055  0.0  0.298441  0.352029  -0.000396  0.992415  -0.001
H  H6  1  0.62433759  0.35643224  0.17051790  1  0.094497  0.000414  0.916697  0.0  0.101075  0.000148  0.977534  0.0  0.104001  9.9e-05  0.975779  0.0  0.12177  0.098933  0.00014  0.978938  0.0
H  H7  1  0.37566458  0.85643355  0.32949780  1  0.094548  0.000379  0.916654  0.0  0.101159  0.000148  0.977505  0.0  0.104076  0.0001  0.975757  0.0  0.121831  0.099015  0.00014  0.978917  0.0
H  H8  1  0.37566769  0.64357204  0.82948012  1  0.094458  0.000399  0.916694  0.0  0.101102  0.000148  0.977474  0.0  0.104027  0.0001  0.975721  0.0  0.121819  0.098964  0.00014  0.978878  0.0
H  H9  1  0.62433281  0.14356720  0.67050591  1  0.09453  0.000415  0.916653  0.0  0.101144  0.000148  0.97749  0.0  0.104057  9.9e-05  0.975744  0.0  0.121831  0.099005  0.00014  0.9789  0.0
H  H10  1  0.98263995  0.45270605  0.14781625  1  0.144528  -0.000815  0.911096  -0.001  0.15686  -0.000585  0.968638  -0.001  0.159579  -0.000358  0.96694  -0.001  0.124672  0.154848  -0.000808  0.969945  -0.001
H  H11  1  0.01736792  0.95271321  0.35219707  1  0.144476  -0.00081  0.910986  -0.001  0.156766  -0.000585  0.968632  -0.001  0.15948  -0.000358  0.966933  -0.001  0.124638  0.154757  -0.000808  0.969938  -0.001
H  H12  1  0.01737388  0.54728645  0.85219135  1  0.144581  -0.000819  0.910913  -0.001  0.15689  -0.000585  0.9685  -0.001  0.159605  -0.000358  0.966796  -0.001  0.124685  0.154884  -0.000808  0.969802  -0.001
H  H13  1  0.98262455  0.04728754  0.64780577  1  0.144537  -0.000811  0.910918  -0.001  0.156823  -0.000585  0.968541  -0.001  0.15954  -0.000357  0.966842  -0.001  0.12466  0.154821  -0.000808  0.969839  -0.001
H  H14  1  0.02458545  0.32530123  0.29565321  1  0.142407  -4.8e-05  0.909342  0.0  0.15399  -8.6e-05  0.967033  0.0  0.15576  -4.8e-05  0.966597  0.0  0.120527  0.152431  -0.000125  0.967809  0.0
H  H15  1  0.97541324  0.82531635  0.20435189  1  0.142291  -3.9e-05  0.909189  0.0  0.153956  -8.5e-05  0.96683  0.0  0.155728  -4.9e-05  0.966388  0.0  0.12054  0.152397  -0.000125  0.967609  0.0
H  H16  1  0.97542320  0.67469245  0.70434742  1  0.142429  -5.1e-05  0.909242  0.0  0.154009  -8.5e-05  0.966951  0.0  0.155777  -4.8e-05  0.96651  0.0  0.120527  0.152453  -0.000125  0.967726  0.0
H  H17  1  0.02458743  0.17469029  0.79565239  1  0.142314  -3.8e-05  0.909276  0.0  0.153923  -8.5e-05  0.966956  0.0  0.155693  -4.8e-05  0.966517  0.0  0.120513  0.152369  -0.000125  0.967733  0.0
C  C18  1  0.72348130  0.27989095  0.12355303  1  0.114795  -8.4e-05  3.607267  0.0  0.090487  -0.00121  3.861313  0.0  0.093102  -0.00068  3.86916  0.0  0.004562  0.088281  -0.001671  3.856012  -0.001
C  C19  1  0.27651761  0.77988296  0.37644923  1  0.114925  1.2e-05  3.606924  0.001  0.090464  -0.001212  3.861186  -0.001  0.093088  -0.000679  3.86903  0.0  0.004529  0.088248  -0.001671  3.8559  -0.001
C  C20  1  0.27652882  0.72011333  0.87644381  1  0.1149  -5.4e-05  3.606977  0.0  0.090544  -0.00121  3.861091  0.0  0.093154  -0.000682  3.868929  0.0  0.004482  0.088325  -0.001672  3.85582  -0.001
C  C21  1  0.72347973  0.22011543  0.62355346  1  0.114905  -6.9e-05  3.607084  0.0  0.090449  -0.001211  3.861324  0.0  0.093082  -0.000682  3.86917  0.0  0.004506  0.088229  -0.001671  3.856048  -0.001
C  C22  1  0.63975763  0.29710248  0.96253369  1  0.62569  0.007402  3.828434  0.006  0.579841  0.001087  4.137494  0.001  0.614902  0.001315  4.132305  0.001  0.215715  0.555711  0.000998  4.139831  0.001
C  C23  1  0.36025046  0.79708754  0.53746625  1  0.625298  0.007395  3.828668  0.006  0.579547  0.001084  4.137647  0.001  0.614602  0.001314  4.13248  0.001  0.215565  0.555434  0.000999  4.139959  0.001
C  C24  1  0.36025736  0.70291359  0.03746300  1  0.62555  0.007391  3.828672  0.006  0.579674  0.001084  4.13781  0.001  0.614737  0.001315  4.13262  0.001  0.215524  0.555552  0.000998  4.140138  0.001
C  C25  1  0.63974528  0.20290967  0.46253717  1  0.625376  0.007401  3.828617  0.006  0.579567  0.001087  4.137684  0.001  0.614616  0.001316  4.132523  0.001  0.215568  0.555444  0.000999  4.140009  0.001
C  C26  1  0.96572791  0.33042076  0.17941102  1  -0.221465  -0.001834  3.702365  -0.002  -0.258023  -0.00146  3.93379  -0.001  -0.260498  -0.000878  3.940256  -0.001  -0.129971  -0.25603  -0.002007  3.93009  -0.002
C  C27  1  0.03427242  0.83042919  0.32059535  1  -0.221189  -0.001879  3.701797  -0.002  -0.257857  -0.00146  3.933464  -0.001  -0.260318  -0.000878  3.939915  -0.001  -0.129949  -0.255863  -0.002007  3.929767  -0.002
C  C28  1  0.03428880  0.66956939  0.82058799  1  -0.221586  -0.001828  3.702079  -0.002  -0.258215  -0.00146  3.933715  -0.001  -0.260658  -0.000877  3.94013  -0.001  -0.130001  -0.256224  -0.002006  3.930024  -0.002
C  C29  1  0.96572333  0.16957274  0.67940807  1  -0.221337  -0.001869  3.701962  -0.002  -0.257937  -0.00146  3.933595  -0.001  -0.260405  -0.000877  3.94005  -0.001  -0.129929  -0.255944  -0.002007  3.929901  -0.002
C  C30  1  0.10023184  0.23041014  0.11964460  1  0.392538  0.001044  3.640822  0.001  0.38405  0.000623  3.921446  0.001  0.399653  0.000551  3.932925  0.0  0.203761  0.372698  0.000684  3.913846  0.001
C  C31  1  0.89976234  0.73042116  0.38035298  1  0.392541  0.001085  3.64084  0.001  0.384109  0.000623  3.921465  0.001  0.399706  0.000549  3.932947  0.0  0.203746  0.372753  0.000683  3.913857  0.001
C  C32  1  0.89978457  0.76957412  0.88034729  1  0.392667  0.000934  3.64094  0.001  0.384214  0.000626  3.921528  0.001  0.399809  0.000542  3.933002  0.0  0.203786  0.372868  0.000682  3.913916  0.001
C  C33  1  0.10022835  0.26957959  0.61964652  1  0.39261  0.001051  3.640837  0.001  0.384169  0.000625  3.921427  0.001  0.399769  0.000547  3.932907  0.0  0.203766  0.372816  0.000683  3.913815  0.001
N  N34  1  0.19549762  0.14697741  0.06532448  1  -0.461823  0.001179  2.668744  -0.001  -0.450026  0.001501  2.921909  0.0  -0.463994  0.001819  2.928035  0.0  -0.315976  -0.439381  0.0011  2.918729  0.0
N  N35  1  0.80446914  0.64698851  0.43466455  1  -0.461863  0.001157  2.668652  -0.001  -0.450117  0.001499  2.921834  0.0  -0.464075  0.001818  2.927961  0.0  -0.315969  -0.439461  0.0011  2.918652  0.0
N  N36  1  0.80449734  0.85300449  0.93466061  1  -0.46187  0.00125  2.668626  -0.001  -0.450119  0.001497  2.921771  0.0  -0.464085  0.001824  2.927906  0.0  -0.315964  -0.439478  0.001101  2.918585  0.0
N  N37  1  0.19551793  0.35300518  0.56532624  1  -0.461875  0.001177  2.668672  -0.001  -0.450155  0.001498  2.921901  0.0  -0.464115  0.001821  2.928024  0.0  -0.315975  -0.439493  0.0011  2.918718  0.0
O  O38  1  0.70083270  0.11856815  0.15858968  1  -0.57323  -0.053071  2.247631  -0.076  -0.535394  -0.038247  2.525162  -0.059  -0.565396  -0.028887  2.513103  -0.048  -0.391695  -0.512736  -0.04488  2.533036  -0.065
O  O39  1  0.29914762  0.61855907  0.34140688  1  -0.573345  -0.05307  2.247557  -0.076  -0.535391  -0.038241  2.525108  -0.059  -0.565432  -0.028884  2.513141  -0.048  -0.391668  -0.512711  -0.044875  2.532972  -0.065
O  O40  1  0.29915312  0.88143967  0.84140998  1  -0.573318  -0.053061  2.247574  -0.076  -0.535435  -0.038239  2.525049  -0.059  -0.565463  -0.028881  2.513061  -0.048  -0.391675  -0.512789  -0.044871  2.532955  -0.065
O  O41  1  0.70084778  0.38143815  0.65858840  1  -0.573374  -0.053063  2.247596  -0.076  -0.535348  -0.038242  2.525077  -0.059  -0.565393  -0.028885  2.513111  -0.048  -0.391648  -0.512676  -0.044873  2.53296  -0.065
O  O42  1  0.53293939  0.18209191  0.89007892  1  -0.57583  -0.07603  2.062271  -0.109  -0.552753  -0.046139  2.34353  -0.072  -0.5919  -0.03426  2.334564  -0.057  -0.319483  -0.524631  -0.054105  2.349072  -0.079
O  O43  1  0.46703903  0.68207391  0.60993038  1  -0.575702  -0.076024  2.062867  -0.109  -0.552554  -0.046139  2.343959  -0.072  -0.591694  -0.034263  2.334988  -0.057  -0.319358  -0.52442  -0.054107  2.3495  -0.079
O  O44  1  0.46702890  0.81792651  0.10992979  1  -0.575799  -0.076008  2.063031  -0.109  -0.552655  -0.046135  2.344209  -0.072  -0.5918  -0.034259  2.335244  -0.057  -0.319351  -0.524534  -0.054102  2.349745  -0.079
O  O45  1  0.53295978  0.31791978  0.39006853  1  -0.575706  -0.076021  2.062773  -0.109  -0.552526  -0.046136  2.343877  -0.072  -0.591659  -0.03426  2.334898  -0.057  -0.319322  -0.52439  -0.054102  2.349423  -0.079
O  O46  1  0.68389873  0.42200536  0.90758878  1  -0.565861  -0.01659  1.977523  -0.023  -0.522527  -0.007693  2.198684  -0.011  -0.550401  -0.003579  2.191948  -0.006  -0.298322  -0.501973  -0.012075  2.202471  -0.017
O  O47  1  0.31610354  0.92199975  0.59241070  1  -0.565763  -0.016607  1.977222  -0.023  -0.522494  -0.007692  2.198312  -0.011  -0.550367  -0.003581  2.191566  -0.006  -0.298314  -0.501941  -0.012079  2.202095  -0.017
O  O48  1  0.31614078  0.57798832  0.09241019  1  -0.565947  -0.016606  1.97709  -0.023  -0.522569  -0.007694  2.198171  -0.011  -0.55047  -0.00358  2.191481  -0.006  -0.298299  -0.502013  -0.012081  2.201952  -0.017
O  O49  1  0.68389868  0.07799512  0.40759183  1  -0.565813  -0.016599  1.977124  -0.023  -0.522532  -0.007694  2.198272  -0.011  -0.550406  -0.00358  2.191524  -0.006  -0.298354  -0.501976  -0.012079  2.202064  -0.017
