# generated using pymatgen
data_Cu4H18C12IN9
_symmetry_space_group_name_H-M   'P 1'
_cell_length_a   8.51111433
_cell_length_b   11.69179927
_cell_length_c   11.69180750
_cell_angle_alpha   120.00018970
_cell_angle_beta   90.00003803
_cell_angle_gamma   90.00013548
_symmetry_Int_Tables_number   1
_chemical_formula_structural   Cu4H18C12IN9
_chemical_formula_sum   'Cu8 H36 C24 I2 N18'
_cell_volume   1007.57929062
_cell_formula_units_Z   2
loop_
 _symmetry_equiv_pos_site_id
 _symmetry_equiv_pos_as_xyz
  1  'x, y, z'
loop_
 _atom_site_type_symbol
 _atom_site_label
 _atom_site_symmetry_multiplicity
 _atom_site_fract_x
 _atom_site_fract_y
 _atom_site_fract_z
 _atom_site_occupancy
 _atom_site_hle17_bader_spin_density
 _atom_site_hle17_ddec_charge
 _atom_site_hle17_ddec_spin_density
 _atom_site_hle17_ddec_sum_bond_order
 _atom_site_hle17_magmom
 _atom_site_hse06_10hf_bader_spin_density
 _atom_site_hse06_10hf_ddec_charge
 _atom_site_hse06_10hf_ddec_spin_density
 _atom_site_hse06_10hf_ddec_sum_bond_order
 _atom_site_hse06_10hf_magmom
 _atom_site_hse06_bader_spin_density
 _atom_site_hse06_ddec_charge
 _atom_site_hse06_ddec_spin_density
 _atom_site_hse06_ddec_sum_bond_order
 _atom_site_hse06_magmom
 _atom_site_pbe_bader_spin_density
 _atom_site_pbe_cm5_charge
 _atom_site_pbe_ddec_charge
 _atom_site_pbe_ddec_spin_density
 _atom_site_pbe_ddec_sum_bond_order
 _atom_site_pbe_magmom
Cu  Cu0  1  0.39115879  0.33333416  0.66666899  1  0  0.343167  0  2.134727  0  0  0.229152  0  2.633975  0  0  0.229964  0  2.587075  0  0  0.475372  0.231893  0  2.663916  0
Cu  Cu1  1  0.89116304  0.66666679  0.33333188  1  0  0.343204  0  2.134727  0  0  0.229124  0  2.633959  0  0  0.22992  0  2.587027  0  0  0.475342  0.231852  0  2.66392  0
Cu  Cu2  1  0.17611147  0.23883430  0.39443827  1  0  0.415948  0  1.752172  0  0  0.292642  0  2.19421  0  0  0.309357  0  2.146614  0  0  0.457825  0.282347  0  2.225856  0
Cu  Cu3  1  0.17611227  0.60555891  0.84439455  1  0  0.415928  0  1.752167  0  0  0.29262  0  2.194203  0  0  0.309336  0  2.146592  0  0  0.457821  0.28232  0  2.225871  0
Cu  Cu4  1  0.17611150  0.15560350  0.76116425  1  0  0.415942  0  1.75217  0  0  0.292637  0  2.194199  0  0  0.309354  0  2.146597  0  0  0.457824  0.282341  0  2.225851  0
Cu  Cu5  1  0.67611275  0.76116511  0.60556343  1  0  0.415964  0  1.752265  0  0  0.292669  0  2.194295  0  0  0.309385  0  2.146701  0  0  0.457853  0.282371  0  2.225933  0
Cu  Cu6  1  0.67611312  0.39444148  0.15560508  1  0  0.415953  0  1.752165  0  0  0.292661  0  2.194215  0  0  0.309373  0  2.14661  0  0  0.457841  0.282341  0  2.225886  0
Cu  Cu7  1  0.67611154  0.84439886  0.23883380  1  0  0.41593  0  1.752186  0  0  0.292644  0  2.19423  0  0  0.309353  0  2.146651  0  0  0.45781  0.282341  0  2.225853  0
H  H8  1  0.23425421  0.99513117  0.14651254  1  0  0.115292  0  0.949902  0  0  0.134813  0  1.015154  0  0  0.137357  0  1.012842  0  0  0.093183  0.132864  0  1.01688  0
H  H9  1  0.23425312  0.85349032  0.84861861  1  0  0.115304  0  0.949881  0  0  0.134833  0  1.015119  0  0  0.137379  0  1.012804  0  0  0.093184  0.132881  0  1.016849  0
H  H10  1  0.23425395  0.15138124  0.00487034  1  0  0.115317  0  0.949898  0  0  0.134842  0  1.015148  0  0  0.137388  0  1.012834  0  0  0.093194  0.132891  0  1.016877  0
H  H11  1  0.73425443  0.00486937  0.85348720  1  0  0.115323  0  0.949937  0  0  0.134842  0  1.015176  0  0  0.137386  0  1.012864  0  0  0.093205  0.132893  0  1.0169  0
H  H12  1  0.73425316  0.14651121  0.15138161  1  0  0.115293  0  0.949886  0  0  0.13482  0  1.015128  0  0  0.137367  0  1.012814  0  0  0.093179  0.132867  0  1.016856  0
H  H13  1  0.73425469  0.84861634  0.99512877  1  0  0.1153  0  0.949837  0  0  0.134823  0  1.015086  0  0  0.137369  0  1.012773  0  0  0.093181  0.132874  0  1.016808  0
H  H14  1  0.30034166  0.84567124  0.13642595  1  0  0.130217  0  0.940185  0  0  0.1495  0  1.002914  0  0  0.1525  0  1.000534  0  0  0.098068  0.147305  0  1.004561  0
H  H15  1  0.30034195  0.86357473  0.70924349  1  0  0.130245  0  0.940109  0  0  0.149499  0  1.002878  0  0  0.1525  0  1.000496  0  0  0.098069  0.147304  0  1.004527  0
H  H16  1  0.30034312  0.29075604  0.15432746  1  0  0.130219  0  0.940154  0  0  0.1495  0  1.002889  0  0  0.152502  0  1.000508  0  0  0.098074  0.147307  0  1.004534  0
H  H17  1  0.80034473  0.15433046  0.86357354  1  0  0.130234  0  0.940113  0  0  0.14949  0  1.002884  0  0  0.152492  0  1.000502  0  0  0.098054  0.147296  0  1.004534  0
H  H18  1  0.80034091  0.13642796  0.29075821  1  0  0.130241  0  0.940117  0  0  0.149496  0  1.002885  0  0  0.152498  0  1.000503  0  0  0.098069  0.1473  0  1.00453  0
H  H19  1  0.80034327  0.70924172  0.84566835  1  0  0.130237  0  0.940102  0  0  0.149496  0  1.002866  0  0  0.152499  0  1.000482  0  0  0.098053  0.1473  0  1.004516  0
H  H20  1  0.42192162  0.92724549  0.07690793  1  0  0.113015  0  0.95036  0  0  0.135457  0  1.010665  0  0  0.13691  0  1.009971  0  0  0.093409  0.134191  0  1.011512  0
H  H21  1  0.42191726  0.92309188  0.85033568  1  0  0.113013  0  0.950437  0  0  0.135457  0  1.010733  0  0  0.136908  0  1.010044  0  0  0.09342  0.134194  0  1.011576  0
H  H22  1  0.42192153  0.14966117  0.07275421  1  0  0.112976  0  0.950437  0  0  0.135435  0  1.010717  0  0  0.136888  0  1.010024  0  0  0.093408  0.134171  0  1.01156  0
H  H23  1  0.92192330  0.07275456  0.92308994  1  0  0.113019  0  0.950413  0  0  0.135457  0  1.010714  0  0  0.136911  0  1.01002  0  0  0.093421  0.134191  0  1.011566  0
H  H24  1  0.92191708  0.07690718  0.14966340  1  0  0.113018  0  0.950414  0  0  0.135455  0  1.010717  0  0  0.136909  0  1.010025  0  0  0.093421  0.134191  0  1.011566  0
H  H25  1  0.92192456  0.85033592  0.92724474  1  0  0.113005  0  0.950384  0  0  0.135445  0  1.010684  0  0  0.136898  0  1.009992  0  0  0.093418  0.134181  0  1.011531  0
H  H26  1  0.67212409  0.17776311  0.64443163  1  0  0.130008  0  0.949091  0  0  0.149702  0  1.009511  0  0  0.151562  0  1.009244  0  0  0.095394  0.148272  0  1.009802  0
H  H27  1  0.67212550  0.35556951  0.53333347  1  0  0.130057  0  0.949005  0  0  0.149735  0  1.009461  0  0  0.151594  0  1.009195  0  0  0.095391  0.148303  0  1.00975  0
H  H28  1  0.67212581  0.46666800  0.82223685  1  0  0.130016  0  0.948964  0  0  0.149684  0  1.009434  0  0  0.151545  0  1.009166  0  0  0.095376  0.148253  0  1.009723  0
H  H29  1  0.17212467  0.82223628  0.35556835  1  0  0.130047  0  0.949082  0  0  0.149746  0  1.009496  0  0  0.151605  0  1.00923  0  0  0.095423  0.148316  0  1.009783  0
H  H30  1  0.17212678  0.64443087  0.46666957  1  0  0.130022  0  0.948997  0  0  0.149724  0  1.009411  0  0  0.151583  0  1.009145  0  0  0.095398  0.148294  0  1.009699  0
H  H31  1  0.17212412  0.53333337  0.17776583  1  0  0.130053  0  0.949047  0  0  0.149736  0  1.009481  0  0  0.151595  0  1.009215  0  0  0.09541  0.148307  0  1.00977  0
H  H32  1  0.80183898  0.09480719  0.50729260  1  0  0.124353  0  0.942248  0  0  0.142637  0  1.007313  0  0  0.144672  0  1.006316  0  0  0.089684  0.141025  0  1.00818  0
H  H33  1  0.80183967  0.49270728  0.58751642  1  0  0.124357  0  0.942248  0  0  0.142669  0  1.007278  0  0  0.144706  0  1.006279  0  0  0.089693  0.141053  0  1.00816  0
H  H34  1  0.80184086  0.41248568  0.90519108  1  0  0.12433  0  0.942278  0  0  0.14264  0  1.007308  0  0  0.144678  0  1.006309  0  0  0.08968  0.141023  0  1.00819  0
H  H35  1  0.30183879  0.90518958  0.49270357  1  0  0.124384  0  0.942255  0  0  0.142694  0  1.007289  0  0  0.144731  0  1.006291  0  0  0.089701  0.141077  0  1.008165  0
H  H36  1  0.30184045  0.50729442  0.41248564  1  0  0.124323  0  0.942285  0  0  0.142633  0  1.007326  0  0  0.14467  0  1.006327  0  0  0.089675  0.141017  0  1.008203  0
H  H37  1  0.30183927  0.58751406  0.09481084  1  0  0.12438  0  0.942265  0  0  0.14269  0  1.007296  0  0  0.144729  0  1.006296  0  0  0.0897  0.141074  0  1.008172  0
H  H38  1  0.68329504  0.00134696  0.55520724  1  0  0.125637  0  0.968975  0  0  0.141125  0  1.036858  0  0  0.143346  0  1.035749  0  0  0.092116  0.139398  0  1.037826  0
H  H39  1  0.68329688  0.44479266  0.44614090  1  0  0.125593  0  0.968973  0  0  0.141085  0  1.036858  0  0  0.143305  0  1.035748  0  0  0.09209  0.13936  0  1.037824  0
H  H40  1  0.68329731  0.55386006  0.99865164  1  0  0.125588  0  0.968999  0  0  0.141088  0  1.036878  0  0  0.14331  0  1.035768  0  0  0.092098  0.139361  0  1.037844  0
H  H41  1  0.18329510  0.99865147  0.44479142  1  0  0.125623  0  0.968991  0  0  0.141122  0  1.036869  0  0  0.14334  0  1.03576  0  0  0.092108  0.139395  0  1.037837  0
H  H42  1  0.18329678  0.55520676  0.55385910  1  0  0.125584  0  0.968997  0  0  0.141089  0  1.036878  0  0  0.143311  0  1.035768  0  0  0.092104  0.139365  0  1.037848  0
H  H43  1  0.18329400  0.44613936  0.00134836  1  0  0.125632  0  0.968987  0  0  0.141133  0  1.036862  0  0  0.143354  0  1.035752  0  0  0.092109  0.139408  0  1.037832  0
C  C44  1  0.40822168  0.02212265  0.28794251  1  0  0.385899  0  3.767055  0  0  0.378072  0  4.011913  0  0  0.391225  0  4.032234  0  0  0.203935  0.369173  0  3.998135  0
C  C45  1  0.40822183  0.71205968  0.73418023  1  0  0.385835  0  3.766971  0  0  0.378029  0  4.011805  0  0  0.391179  0  4.032129  0  0  0.203949  0.369136  0  3.998031  0
C  C46  1  0.40822474  0.26581826  0.97787900  1  0  0.385839  0  3.767092  0  0  0.378047  0  4.011914  0  0  0.391197  0  4.032237  0  0  0.203939  0.369153  0  3.998139  0
C  C47  1  0.90822141  0.97787835  0.71206096  1  0  0.386066  0  3.766806  0  0  0.378236  0  4.011657  0  0  0.391385  0  4.031982  0  0  0.204032  0.369338  0  3.997886  0
C  C48  1  0.90822244  0.28794033  0.26581932  1  0  0.385809  0  3.767011  0  0  0.378042  0  4.011786  0  0  0.391192  0  4.032111  0  0  0.203938  0.369148  0  3.998007  0
C  C49  1  0.90822188  0.73418274  0.02212190  1  0  0.386012  0  3.766886  0  0  0.378133  0  4.011802  0  0  0.391283  0  4.032126  0  0  0.203979  0.369234  0  3.998025  0
C  C50  1  0.33753907  0.94352341  0.15483849  1  0  -0.379845  0  3.737326  0  0  -0.462182  0  3.973958  0  0  -0.464752  0  3.978422  0  0  -0.233842  -0.460002  0  3.97085  0
C  C51  1  0.33753685  0.84516178  0.78868283  1  0  -0.379853  0  3.737298  0  0  -0.462185  0  3.97394  0  0  -0.464755  0  3.978403  0  0  -0.233843  -0.460001  0  3.970829  0
C  C52  1  0.33754019  0.21131400  0.05647676  1  0  -0.379814  0  3.737386  0  0  -0.462179  0  3.974001  0  0  -0.46475  0  3.978465  0  0  -0.233858  -0.459992  0  3.970883  0
C  C53  1  0.83753828  0.05647839  0.84516277  1  0  -0.379917  0  3.737344  0  0  -0.462227  0  3.973962  0  0  -0.464795  0  3.978424  0  0  -0.233845  -0.460041  0  3.970839  0
C  C54  1  0.83753698  0.15483804  0.21131659  1  0  -0.379834  0  3.737301  0  0  -0.462175  0  3.973934  0  0  -0.464747  0  3.978399  0  0  -0.233841  -0.459991  0  3.970812  0
C  C55  1  0.83754069  0.78868385  0.94352083  1  0  -0.379906  0  3.737216  0  0  -0.462208  0  3.973858  0  0  -0.464778  0  3.978319  0  0  -0.233839  -0.460026  0  3.970749  0
C  C56  1  0.55741972  0.08583034  0.45870057  1  0  0.393557  0  3.745834  0  0  0.383942  0  3.99948  0  0  0.397134  0  4.016317  0  0  0.205142  0.375068  0  3.988285  0
C  C57  1  0.55742171  0.54130074  0.62713071  1  0  0.393746  0  3.745684  0  0  0.384096  0  3.999378  0  0  0.397291  0  4.016213  0  0  0.205215  0.375227  0  3.988183  0
C  C58  1  0.55742157  0.37287008  0.91417171  1  0  0.393623  0  3.745786  0  0  0.384019  0  3.999423  0  0  0.397211  0  4.016261  0  0  0.205192  0.375149  0  3.988229  0
C  C59  1  0.05741960  0.91417073  0.54129934  1  0  0.393634  0  3.74567  0  0  0.384009  0  3.999337  0  0  0.397201  0  4.016176  0  0  0.205158  0.375137  0  3.988138  0
C  C60  1  0.05742230  0.45869934  0.37286956  1  0  0.393684  0  3.74568  0  0  0.38404  0  3.999388  0  0  0.397233  0  4.016224  0  0  0.205203  0.375168  0  3.988193  0
C  C61  1  0.05741892  0.62712802  0.08582843  1  0  0.393634  0  3.745667  0  0  0.384017  0  3.999318  0  0  0.39721  0  4.016156  0  0  0.205173  0.375145  0  3.988121  0
C  C62  1  0.68574139  0.09049418  0.54629650  1  0  -0.386413  0  3.704738  0  0  -0.463152  0  3.935765  0  0  -0.467079  0  3.942305  0  0  -0.242629  -0.460202  0  3.931505  0
C  C63  1  0.68574315  0.45370409  0.54419893  1  0  -0.386493  0  3.70462  0  0  -0.463245  0  3.935658  0  0  -0.467172  0  3.942195  0  0  -0.242641  -0.460294  0  3.931399  0
C  C64  1  0.68574332  0.45580142  0.90950607  1  0  -0.386378  0  3.704632  0  0  -0.46314  0  3.935643  0  0  -0.467071  0  3.942182  0  0  -0.242622  -0.460184  0  3.931384  0
C  C65  1  0.18574117  0.90950525  0.45370179  1  0  -0.386517  0  3.704761  0  0  -0.463289  0  3.935775  0  0  -0.467212  0  3.942312  0  0  -0.242678  -0.460332  0  3.931514  0
C  C66  1  0.18574411  0.54629632  0.45580243  1  0  -0.386383  0  3.704636  0  0  -0.463164  0  3.935663  0  0  -0.467091  0  3.9422  0  0  -0.242638  -0.460207  0  3.931402  0
C  C67  1  0.18574159  0.54419702  0.09049516  1  0  -0.38655  0  3.704719  0  0  -0.463317  0  3.93574  0  0  -0.467244  0  3.942277  0  0  -0.242681  -0.46036  0  3.931483  0
I  I68  1  0.07118071  0.33333769  0.66666554  1  0  -0.518497  0  1.455145  0  0  -0.444729  0  1.9166  0  0  -0.460349  0  1.864332  0  0  -0.209675  -0.433468  0  1.952339  0
I  I69  1  0.57116616  0.66666538  0.33333367  1  0  -0.518501  0  1.455021  0  0  -0.44476  0  1.916506  0  0  -0.460374  0  1.864242  0  0  -0.209635  -0.433504  0  1.952233  0
N  N70  1  0.44255243  0.17484909  0.49483750  1  0  -0.290718  0  3.2904  0  0  -0.240711  0  3.597513  0  0  -0.248645  0  3.602746  0  0  -0.298648  -0.236308  0  3.594496  0
N  N71  1  0.44255305  0.50516477  0.68001233  1  0  -0.290887  0  3.290476  0  0  -0.240853  0  3.597593  0  0  -0.248789  0  3.602827  0  0  -0.298691  -0.236447  0  3.594577  0
N  N72  1  0.44255282  0.31998784  0.82515335  1  0  -0.290839  0  3.290534  0  0  -0.240835  0  3.59766  0  0  -0.24877  0  3.602895  0  0  -0.298679  -0.236427  0  3.594645  0
N  N73  1  0.94255030  0.82515101  0.50516468  1  0  -0.290842  0  3.290478  0  0  -0.240807  0  3.597565  0  0  -0.248736  0  3.602785  0  0  -0.298634  -0.236401  0  3.594538  0
N  N74  1  0.94255438  0.49483435  0.31998593  1  0  -0.290909  0  3.290531  0  0  -0.240884  0  3.597652  0  0  -0.248813  0  3.602869  0  0  -0.298708  -0.236478  0  3.594626  0
N  N75  1  0.94254992  0.68001423  0.17484811  1  0  -0.290837  0  3.290491  0  0  -0.240815  0  3.597586  0  0  -0.248744  0  3.602806  0  0  -0.29865  -0.236409  0  3.594558  0
N  N76  1  0.34768930  0.13458562  0.38572715  1  0  -0.319161  0  3.40883  0  0  -0.249743  0  3.713743  0  0  -0.264681  0  3.721565  0  0  -0.324753  -0.240218  0  3.708711  0
N  N77  1  0.34769024  0.61427469  0.74885776  1  0  -0.319079  0  3.408784  0  0  -0.249672  0  3.713685  0  0  -0.264609  0  3.721504  0  0  -0.324767  -0.240145  0  3.708657  0
N  N78  1  0.34769088  0.25114003  0.86541581  1  0  -0.319109  0  3.408822  0  0  -0.249708  0  3.713723  0  0  -0.264644  0  3.721544  0  0  -0.324767  -0.240181  0  3.708694  0
N  N79  1  0.84768975  0.86541423  0.61427657  1  0  -0.319172  0  3.408834  0  0  -0.249747  0  3.713737  0  0  -0.264685  0  3.721561  0  0  -0.324823  -0.240219  0  3.708698  0
N  N80  1  0.84769115  0.38572417  0.25113948  1  0  -0.319061  0  3.408829  0  0  -0.249654  0  3.713716  0  0  -0.264589  0  3.721535  0  0  -0.324767  -0.240122  0  3.708668  0
N  N81  1  0.84769051  0.74886279  0.13458511  1  0  -0.319155  0  3.408791  0  0  -0.249715  0  3.71372  0  0  -0.264653  0  3.721544  0  0  -0.324812  -0.240184  0  3.708667  0
N  N82  1  0.53972897  0.98853954  0.32994411  1  0  -0.499335  0  3.369426  0  0  -0.420232  0  3.664271  0  0  -0.442104  0  3.671848  0  0  -0.417458  -0.40572  0  3.658683  0
N  N83  1  0.53972977  0.67005736  0.65859554  1  0  -0.499328  0  3.369273  0  0  -0.420216  0  3.664094  0  0  -0.442087  0  3.671672  0  0  -0.417448  -0.405701  0  3.658514  0
N  N84  1  0.53973012  0.34140406  0.01146203  1  0  -0.499269  0  3.369292  0  0  -0.420178  0  3.664099  0  0  -0.442045  0  3.67167  0  0  -0.417433  -0.405661  0  3.658518  0
N  N85  1  0.03972720  0.01146049  0.67005784  1  0  -0.499413  0  3.369281  0  0  -0.420316  0  3.66413  0  0  -0.442186  0  3.671704  0  0  -0.417537  -0.405803  0  3.658559  0
N  N86  1  0.03972874  0.32994366  0.34140520  1  0  -0.499295  0  3.369232  0  0  -0.42019  0  3.664026  0  0  -0.44206  0  3.671603  0  0  -0.417427  -0.405677  0  3.65845  0
N  N87  1  0.03972722  0.65859498  0.98853772  1  0  -0.499318  0  3.369222  0  0  -0.420198  0  3.664053  0  0  -0.442067  0  3.671624  0  0  -0.417439  -0.405684  0  3.658479  0
