# generated using pymatgen
data_FeH14C27(N6O5)2
_symmetry_space_group_name_H-M   'P 1'
_cell_length_a   9.28407284
_cell_length_b   16.67144548
_cell_length_c   16.67523867
_cell_angle_alpha   116.66662068
_cell_angle_beta   100.65125633
_cell_angle_gamma   100.71189656
_symmetry_Int_Tables_number   1
_chemical_formula_structural   FeH14C27(N6O5)2
_chemical_formula_sum   'Fe3 H42 C81 N36 O30'
_cell_volume   2157.90704617
_cell_formula_units_Z   3
loop_
 _symmetry_equiv_pos_site_id
 _symmetry_equiv_pos_as_xyz
  1  'x, y, z'
loop_
 _atom_site_type_symbol
 _atom_site_label
 _atom_site_symmetry_multiplicity
 _atom_site_fract_x
 _atom_site_fract_y
 _atom_site_fract_z
 _atom_site_occupancy
 _atom_site_pbe_bader_charge
 _atom_site_pbe_bader_spin_density
 _atom_site_pbe_cm5_charge
 _atom_site_pbe_ddec_charge
 _atom_site_pbe_ddec_spin_density
 _atom_site_pbe_ddec_sum_bond_order
 _atom_site_pbe_magmom
Fe  Fe0  1  0.99999473  0.49999825  0.50000018  1  1.140342  0  0.801491  0.294872  0  3.768443  0
Fe  Fe1  1  0.49999985  0.49999734  0.99999944  1  1.127887  0  0.803278  0.298733  0  3.766722  0
Fe  Fe2  1  0.49999914  0.99999757  0.49999973  1  1.129469  0  0.80198  0.297207  0  3.766222  0
H  H3  1  0.52457189  0.39141636  0.23722942  1  0.126539  0  0.118737  0.097319  0  1.011559  0
H  H4  1  0.28655699  0.76289929  0.15376617  1  0.127778  0  0.117549  0.095968  0  1.012024  0
H  H5  1  0.13323088  0.84563979  0.60895562  1  0.114937  0  0.118356  0.096892  0  1.0121  0
H  H6  1  0.47542652  0.60858550  0.76277099  1  0.126436  0  0.11876  0.097316  0  1.011561  0
H  H7  1  0.71344053  0.23709199  0.84623360  1  0.127783  0  0.117561  0.095941  0  1.011932  0
H  H8  1  0.86675837  0.15436349  0.39104449  1  0.114994  0  0.118306  0.096854  0  1.012159  0
H  H9  1  0.69098269  0.17004773  0.21868245  1  0.108961  0  0.1122  0.08895  0  1.026628  0
H  H10  1  0.47235377  0.78108725  0.95107290  1  0.102736  0  0.111065  0.087485  0  1.027618  0
H  H11  1  0.52143436  0.04848836  0.82982664  1  0.083964  0  0.111647  0.088258  0  1.026073  0
H  H12  1  0.30900263  0.82994991  0.78131113  1  0.108929  0  0.112204  0.088955  0  1.026581  0
H  H13  1  0.52762142  0.21890545  0.04892043  1  0.102252  0  0.111093  0.087501  0  1.027612  0
H  H14  1  0.47855655  0.95150504  0.17017400  1  0.083863  0  0.111667  0.088276  0  1.026072  0
H  H15  1  0.91194869  0.28347996  0.36567937  1  0.177096  0  0.121032  0.088575  0  1.078736  0
H  H16  1  0.54643290  0.63410436  0.91770559  1  0.161321  0  0.120953  0.088823  0  1.078644  0
H  H17  1  0.62833790  0.08235152  0.71631816  1  0.178468  0  0.120834  0.088529  0  1.078078  0
H  H18  1  0.08803897  0.71651132  0.63431940  1  0.177442  0  0.120996  0.088617  0  1.078779  0
H  H19  1  0.45354846  0.36588975  0.08228601  1  0.161147  0  0.120903  0.088757  0  1.078631  0
H  H20  1  0.37166060  0.91764611  0.28368576  1  0.178388  0  0.120839  0.088542  0  1.078122  0
H  H21  1  0.57237536  0.68049422  0.32570902  1  0.107139  0  0.109651  0.121067  0  1.032334  0
H  H22  1  0.24645395  0.67461354  0.35511552  1  0.125579  0  0.109982  0.121858  0  1.032923  0
H  H23  1  0.89097657  0.64492669  0.31950456  1  0.102714  0  0.109601  0.121347  0  1.032659  0
H  H24  1  0.42762022  0.31950200  0.67428737  1  0.107279  0  0.109698  0.121162  0  1.032172  0
H  H25  1  0.75353398  0.32538056  0.64487555  1  0.125336  0  0.109992  0.121841  0  1.033106  0
H  H26  1  0.10900921  0.35506742  0.68049528  1  0.102475  0  0.109569  0.121327  0  1.032657  0
H  H27  1  0.47403664  0.81345335  0.34449581  1  0.132059  0  0.120519  0.091371  0  1.025108  0
H  H28  1  0.12975030  0.65571058  0.46939781  1  0.119127  0  0.121504  0.092214  0  1.024896  0
H  H29  1  0.65992391  0.53088020  0.18645012  1  0.102535  0  0.120701  0.091361  0  1.025678  0
H  H30  1  0.52595318  0.18653794  0.65549718  1  0.132148  0  0.120475  0.091288  0  1.025234  0
H  H31  1  0.87023184  0.34428071  0.53059080  1  0.119647  0  0.121542  0.092194  0  1.024921  0
H  H32  1  0.34007403  0.46910756  0.81354451  1  0.102671  0  0.120718  0.0915  0  1.02559  0
H  H33  1  0.76124827  0.98277251  0.62112271  1  0.110467  0  0.120073  0.093579  0  1.024142  0
H  H34  1  0.14033570  0.37891684  0.36133844  1  0.100944  0  0.119539  0.093724  0  1.024667  0
H  H35  1  0.77912095  0.63865808  0.01767208  1  0.107571  0  0.119696  0.09376  0  1.024421  0
H  H36  1  0.23874511  0.01722371  0.37887166  1  0.110309  0  0.120061  0.09362  0  1.024103  0
H  H37  1  0.85966319  0.62107939  0.63866308  1  0.10106  0  0.119486  0.093611  0  1.024721  0
H  H38  1  0.22087947  0.36133461  0.98232741  1  0.1075  0  0.119729  0.093881  0  1.024408  0
H  H39  1  0.87172776  0.85591954  0.61209712  1  0.092739  0  0.107014  0.120801  0  1.019896  0
H  H40  1  0.25920425  0.38797052  0.24325735  1  0.112097  0  0.107456  0.120756  0  1.020944  0
H  H41  1  0.01606548  0.75653531  0.14474210  1  0.110784  0  0.107212  0.120863  0  1.020059  0
H  H42  1  0.12827477  0.14407527  0.38789574  1  0.0925  0  0.107027  0.120851  0  1.019827  0
H  H43  1  0.74080200  0.61202289  0.75674546  1  0.112005  0  0.10748  0.120793  0  1.020939  0
H  H44  1  0.98392724  0.24345950  0.85525996  1  0.110577  0  0.10724  0.120952  0  1.020044  0
C  C45  1  0.73180889  0.42923967  0.34626730  1  0.445234  0  0.119203  0.112306  0  3.981755  0
C  C46  1  0.38514989  0.65382154  0.08278362  1  0.457532  0  0.121365  0.1156  0  3.974931  0
C  C47  1  0.30238449  0.91694736  0.57089893  1  0.551407  0  0.119986  0.115037  0  3.979824  0
C  C48  1  0.26818272  0.57075514  0.65373165  1  0.445218  0  0.119091  0.112307  0  3.981693  0
C  C49  1  0.61485298  0.34617609  0.91721714  1  0.457685  0  0.121394  0.115593  0  3.975138  0
C  C50  1  0.69760849  0.08305239  0.42910298  1  0.551784  0  0.120158  0.115137  0  3.979931  0
C  C51  1  0.60964877  0.36547034  0.26482956  1  0.543501  0  0.048976  0.019606  0  3.93118  0
C  C52  1  0.34430268  0.73524607  0.10032793  1  0.536549  0  0.051503  0.021443  0  3.928074  0
C  C53  1  0.24426098  0.89918762  0.63473844  1  0.511339  0  0.051116  0.021809  0  3.929222  0
C  C54  1  0.39034495  0.63452870  0.73517270  1  0.543497  0  0.049019  0.01964  0  3.931066  0
C  C55  1  0.65569257  0.26474945  0.89967290  1  0.53665  0  0.051467  0.021531  0  3.928078  0
C  C56  1  0.75573274  0.10081142  0.36526323  1  0.510995  0  0.051003  0.021597  0  3.929489  0
C  C57  1  0.70235353  0.24505513  0.25451241  1  0.536738  0  0.03658  0.033472  0  3.966659  0
C  C58  1  0.44776802  0.74533055  0.99026910  1  0.510116  0  0.039499  0.037903  0  3.963967  0
C  C59  1  0.45761048  0.00936114  0.75489815  1  0.538711  0  0.037365  0.0334  0  3.967806  0
C  C60  1  0.29763293  0.75494038  0.74548453  1  0.536671  0  0.036572  0.033451  0  3.966924  0
C  C61  1  0.55222284  0.25466496  0.00973009  1  0.510058  0  0.039541  0.037992  0  3.963801  0
C  C62  1  0.54238730  0.99063509  0.24510086  1  0.538965  0  0.037242  0.033227  0  3.967993  0
C  C63  1  0.82477375  0.30707388  0.33642309  1  0.406281  0  0.047925  0.032355  0  3.87416  0
C  C64  1  0.48838477  0.66345739  0.97052083  1  0.45705  0  0.047363  0.030607  0  3.877481  0
C  C65  1  0.51767127  0.02939545  0.69283811  1  0.427048  0  0.04901  0.0335  0  3.875133  0
C  C66  1  0.17521606  0.69291952  0.66357564  1  0.406001  0  0.047943  0.032267  0  3.874473  0
C  C67  1  0.51160277  0.33653813  0.02947203  1  0.457164  0  0.047383  0.030637  0  3.877269  0
C  C68  1  0.48232616  0.97060007  0.30716055  1  0.426824  0  0.049112  0.03356  0  3.875132  0
C  C69  1  0.75935096  0.52915451  0.39867510  1  0.947664  0  0.196433  0.201221  0  4.126897  0
C  C70  1  0.36028222  0.60153244  0.13036241  1  0.94869  0  0.193501  0.197578  0  4.127274  0
C  C71  1  0.22997844  0.86946451  0.47105795  1  0.914737  0  0.192934  0.196756  0  4.132023  0
C  C72  1  0.24064393  0.47084030  0.60132299  1  0.947717  0  0.196339  0.20114  0  4.126837  0
C  C73  1  0.63971124  0.39845955  0.86963126  1  0.94823  0  0.193516  0.197591  0  4.127226  0
C  C74  1  0.77001743  0.13053665  0.52894428  1  0.914817  0  0.19295  0.19682  0  4.132048  0
C  C75  1  0.76907369  0.67128680  0.45682778  1  0.920753  0  0.195487  0.235684  0  4.073547  0
C  C76  1  0.31173352  0.54345285  0.21434595  1  0.911002  0  0.195161  0.234148  0  4.076983  0
C  C77  1  0.09744294  0.78553197  0.32904912  1  0.893598  0  0.196106  0.235766  0  4.072841  0
C  C78  1  0.23092447  0.32870801  0.54316764  1  0.920737  0  0.195442  0.235671  0  4.073586  0
C  C79  1  0.68827703  0.45654478  0.78565559  1  0.90995  0  0.19506  0.234039  0  4.077484  0
C  C80  1  0.90254355  0.21446354  0.67095323  1  0.956565  0  0.196221  0.235911  0  4.072584  0
C  C81  1  0.72736573  0.75479621  0.46790979  1  0.053178  0  0.013734  0.075082  0  3.991479  0
C  C82  1  0.25889877  0.53228594  0.28673187  1  -0.013964  0  0.01655  0.078466  0  3.98825  0
C  C83  1  0.97216326  0.71315987  0.24553350  1  0.055586  0  0.013104  0.075275  0  3.990701  0
C  C84  1  0.27263786  0.24520071  0.53208473  1  0.07095  0  0.013651  0.074955  0  3.991636  0
C  C85  1  0.74110742  0.46770957  0.71326588  1  -0.013826  0  0.016589  0.078552  0  3.988242  0
C  C86  1  0.02782397  0.28683494  0.75446681  1  -0.007463  0  0.013108  0.075253  0  3.990629  0
C  C87  1  0.61741850  0.74659435  0.39217073  1  -0.027465  0  -0.079522  -0.142029  0  3.908114  0
C  C88  1  0.22501823  0.60807795  0.35455637  1  0.073016  0  -0.080194  -0.144578  0  3.909671  0
C  C89  1  0.87022238  0.64548257  0.25353411  1  -0.060493  0  -0.077522  -0.142463  0  3.907779  0
C  C90  1  0.38258039  0.25339976  0.60782265  1  -0.026649  0  -0.079554  -0.142135  0  3.90817  0
C  C91  1  0.77497418  0.39191192  0.64543625  1  0.072838  0  -0.080272  -0.144672  0  3.909721  0
C  C92  1  0.12976524  0.35451083  0.74646500  1  -0.059473  0  -0.077441  -0.142269  0  3.907593  0
C  C93  1  0.56211295  0.82098668  0.40261017  1  0.456426  0  0.044019  0.086991  0  3.900217  0
C  C94  1  0.15958936  0.59757843  0.41860745  1  0.389852  0  0.04271  0.085971  0  3.900105  0
C  C95  1  0.74065645  0.58154159  0.17905417  1  0.500871  0  0.043683  0.087636  0  3.899662  0
C  C96  1  0.43788521  0.17900813  0.59738585  1  0.455593  0  0.044152  0.087199  0  3.900272  0
C  C97  1  0.84039498  0.40241286  0.58138439  1  0.389315  0  0.042639  0.086032  0  3.900157  0
C  C98  1  0.25933562  0.41844759  0.82094229  1  0.500263  0  0.043689  0.087456  0  3.899703  0
C  C99  1  0.72170386  0.91464813  0.55647896  1  0.425445  0  0.031513  0.058971  0  3.937602  0
C  C100  1  0.16524836  0.44358841  0.35794554  1  0.417833  0  0.032759  0.059853  0  3.933236  0
C  C101  1  0.80725338  0.64201296  0.08570979  1  0.447441  0  0.032639  0.059288  0  3.933379  0
C  C102  1  0.27829544  0.08534457  0.44351563  1  0.42593  0  0.031566  0.058987  0  3.937513  0
C  C103  1  0.83475452  0.55640922  0.64205523  1  0.4177  0  0.032769  0.060018  0  3.933075  0
C  C104  1  0.19274445  0.35798115  0.91429068  1  0.448386  0  0.032575  0.059042  0  3.933586  0
C  C105  1  0.78413728  0.84333490  0.55077932  1  -0.005734  0  -0.089036  -0.180807  0  3.961632  0
C  C106  1  0.23301611  0.44930884  0.29218845  1  -0.002926  0  -0.090548  -0.182115  0  3.957822  0
C  C107  1  0.94084828  0.70767163  0.15714066  1  -0.042024  0  -0.089993  -0.181072  0  3.959656  0
C  C108  1  0.21586412  0.15666203  0.44921498  1  -0.023804  0  -0.089099  -0.180897  0  3.961465  0
C  C109  1  0.76699198  0.55068386  0.70781183  1  -0.002873  0  -0.090517  -0.182163  0  3.957932  0
C  C110  1  0.05914623  0.29232460  0.84286162  1  -0.041912  0  -0.090026  -0.181119  0  3.959739  0
C  C111  1  0.84473163  0.11225631  0.95392414  1  2.132239  0  0.354861  0.71238  0  4.182071  0
C  C112  1  0.89178075  0.04626047  0.15831711  1  2.164564  0  0.354377  0.710051  0  4.179481  0
C  C113  1  0.73268957  0.84168806  0.88754894  1  2.124935  0  0.349932  0.706951  0  4.183665  0
C  C114  1  0.15527514  0.88774908  0.04608650  1  2.131754  0  0.354863  0.712332  0  4.182482  0
C  C115  1  0.10822910  0.95375550  0.84169499  1  2.163576  0  0.354374  0.710018  0  4.179547  0
C  C116  1  0.26730655  0.15831592  0.11243840  1  2.124259  0  0.349943  0.706922  0  4.183594  0
C  C117  1  0.00000710  0.00002567  0.50002323  1  2.137885  0  0.365676  0.713961  0  4.12356  0
C  C118  1  0.50000184  0.50003795  0.50002190  1  2.137547  0  0.364434  0.716488  0  4.119874  0
C  C119  1  0.00000714  0.50000333  0.00000566  1  2.122491  0  0.365992  0.718682  0  4.119057  0
C  C120  1  0.18070381  0.12045748  0.76739582  1  2.131982  0  0.358857  0.717174  0  4.138008  0
C  C121  1  0.41178684  0.23326130  0.35315121  1  2.140133  0  0.357422  0.715822  0  4.138575  0
C  C122  1  0.05952968  0.64657853  0.87985885  1  2.124664  0  0.35391  0.712787  0  4.14369  0
C  C123  1  0.81937037  0.87957329  0.23261328  1  2.141484  0  0.358928  0.717574  0  4.137781  0
C  C124  1  0.58822456  0.76674902  0.64685192  1  2.140012  0  0.357352  0.715514  0  4.138799  0
C  C125  1  0.94046962  0.35341205  0.12012699  1  2.124534  0  0.353581  0.712343  0  4.144382  0
N  N126  1  0.83953863  0.39969724  0.38414979  1  -1.158491  0  -0.323391  -0.148376  0  3.582429  0
N  N127  1  0.45527789  0.61583170  0.01545049  1  -1.152555  0  -0.325601  -0.151945  0  3.584303  0
N  N128  1  0.43964874  0.98446341  0.60030829  1  -1.166052  0  -0.324692  -0.151022  0  3.583941  0
N  N129  1  0.16045191  0.60029545  0.61584690  1  -1.158733  0  -0.32335  -0.148436  0  3.582563  0
N  N130  1  0.54472099  0.38416452  0.98454803  1  -1.152157  0  -0.325617  -0.151847  0  3.584365  0
N  N131  1  0.56034611  0.01553352  0.39969074  1  -1.16628  0  -0.324758  -0.150948  0  3.583885  0
N  N132  1  0.59283010  0.27306089  0.21893503  1  -1.175245  0  -0.308615  -0.245575  0  3.380723  0
N  N133  1  0.37359464  0.78102398  0.05378004  1  -1.181466  0  -0.311758  -0.24917  0  3.383052  0
N  N134  1  0.32015920  0.94568174  0.72706055  1  -1.175357  0  -0.311346  -0.247867  0  3.382155  0
N  N135  1  0.40715852  0.72693674  0.78106128  1  -1.174872  0  -0.308678  -0.245554  0  3.380814  0
N  N136  1  0.62639371  0.21896872  0.94621763  1  -1.181431  0  -0.3118  -0.249366  0  3.383125  0
N  N137  1  0.67983635  0.05431660  0.27293798  1  -1.174952  0  -0.311271  -0.247708  0  3.382128  0
N  N138  1  0.88298592  0.57824168  0.47787176  1  -0.70135  0  -0.260862  -0.158775  0  3.632795  0
N  N139  1  0.40485749  0.52232094  0.10026755  1  -0.698329  0  -0.261635  -0.158975  0  3.631198  0
N  N140  1  0.30464935  0.89951750  0.42194141  1  -0.714452  0  -0.259738  -0.156541  0  3.631733  0
N  N141  1  0.11700532  0.42175243  0.52212564  1  -0.701627  0  -0.26094  -0.158879  0  3.632786  0
N  N142  1  0.59513848  0.47767387  0.89972825  1  -0.697711  0  -0.261647  -0.159019  0  3.63105  0
N  N143  1  0.69534002  0.10047943  0.57805586  1  -0.714695  0  -0.259839  -0.156666  0  3.631627  0
N  N144  1  0.88995977  0.67005854  0.51622248  1  -0.658993  0  -0.221279  -0.257996  0  3.166514  0
N  N145  1  0.37338946  0.48402581  0.15373281  1  -0.652903  0  -0.221309  -0.25777  0  3.170305  0
N  N146  1  0.21970590  0.84605379  0.33018588  1  -0.647626  0  -0.221661  -0.258331  0  3.167344  0
N  N147  1  0.11003874  0.32993697  0.48377269  1  -0.659065  0  -0.221134  -0.257825  0  3.166414  0
N  N148  1  0.62660726  0.51596829  0.84626275  1  -0.652639  0  -0.221296  -0.257762  0  3.170477  0
N  N149  1  0.78028277  0.15394173  0.66981368  1  -0.647743  0  -0.221682  -0.258362  0  3.167154  0
N  N150  1  0.68468158  0.58435995  0.38259642  1  -1.171061  0  -0.338284  -0.413168  0  3.211187  0
N  N151  1  0.30154063  0.61765941  0.20165858  1  -1.175465  0  -0.336978  -0.410533  0  3.214143  0
N  N152  1  0.09991577  0.79822274  0.41591782  1  -1.159767  0  -0.335745  -0.41105  0  3.213917  0
N  N153  1  0.31531444  0.41563275  0.61739963  1  -1.170845  0  -0.338164  -0.413087  0  3.211134  0
N  N154  1  0.69846368  0.38233893  0.79834085  1  -1.174944  0  -0.336877  -0.4104  0  3.214358  0
N  N155  1  0.90007279  0.20177912  0.58408698  1  -1.159633  0  -0.335818  -0.411142  0  3.214166  0
N  N156  1  0.60881055  0.90398481  0.48466951  1  -1.200985  0  -0.339911  -0.164896  0  3.626098  0
N  N157  1  0.12428329  0.51542335  0.41934547  1  -1.177088  0  -0.339909  -0.16376  0  3.626147  0
N  N158  1  0.70477998  0.58073000  0.09617694  1  -1.179547  0  -0.338424  -0.162256  0  3.622496  0
N  N159  1  0.39118218  0.09600789  0.51532680  1  -1.200907  0  -0.339961  -0.164967  0  3.626141  0
N  N160  1  0.87570431  0.48457005  0.58065065  1  -1.176739  0  -0.339863  -0.163793  0  3.626128  0
N  N161  1  0.29521312  0.41926340  0.90382273  1  -1.180447  0  -0.338469  -0.162299  0  3.622589  0
O  O162  1  0.85375947  0.10175843  0.88063365  1  -1.072884  0  -0.177959  -0.352313  0  2.220752  0
O  O163  1  0.97414587  0.11955062  0.22111753  1  -1.091141  0  -0.177577  -0.350605  0  2.220834  0
O  O164  1  0.75245905  0.77899140  0.89813713  1  -1.067072  0  -0.173801  -0.348606  0  2.220778  0
O  O165  1  0.14624880  0.89824555  0.11937891  1  -1.072615  0  -0.177936  -0.352248  0  2.220961  0
O  O166  1  0.02584794  0.88046393  0.77889172  1  -1.090744  0  -0.177543  -0.350514  0  2.22069  0
O  O167  1  0.24753202  0.22101117  0.10185925  1  -1.066579  0  -0.173807  -0.348569  0  2.220899  0
O  O168  1  0.83906098  0.12134268  0.02728477  1  -1.078641  0  -0.188861  -0.373859  0  2.229599  0
O  O169  1  0.81266704  0.97288149  0.09404444  1  -1.092736  0  -0.188496  -0.372669  0  2.227296  0
O  O170  1  0.71767099  0.90586877  0.87834660  1  -1.076974  0  -0.187849  -0.371793  0  2.229054  0
O  O171  1  0.16093347  0.87865777  0.97272360  1  -1.078442  0  -0.188889  -0.373882  0  2.22978  0
O  O172  1  0.18734984  0.02712883  0.90596105  1  -1.09214  0  -0.188523  -0.372718  0  2.227504  0
O  O173  1  0.28232560  0.09412957  0.12163885  1  -1.076793  0  -0.187851  -0.371801  0  2.228849  0
O  O174  1  0.09020963  0.04789285  0.57533322  1  -1.087066  0  -0.166743  -0.350243  0  2.277815  0
O  O175  1  0.51525682  0.42480249  0.47294431  1  -1.086857  0  -0.165595  -0.351077  0  2.276439  0
O  O176  1  0.04200887  0.52700285  0.95174088  1  -1.078549  0  -0.16632  -0.352357  0  2.277059  0
O  O177  1  0.90981552  0.95214920  0.42470716  1  -1.08806  0  -0.166629  -0.35004  0  2.277497  0
O  O178  1  0.48478192  0.57527340  0.52710066  1  -1.08653  0  -0.165349  -0.350618  0  2.276753  0
O  O179  1  0.95800637  0.47299972  0.04826995  1  -1.078581  0  -0.166322  -0.352333  0  2.277067  0
O  O180  1  0.30018409  0.17087460  0.78073368  1  -1.080243  0  -0.171849  -0.346895  0  2.224355  0
O  O181  1  0.51791484  0.21981784  0.39002317  1  -1.079341  0  -0.171091  -0.346266  0  2.222104  0
O  O182  1  0.12887542  0.60954589  0.82960048  1  -1.08063  0  -0.168467  -0.343843  0  2.224773  0
O  O183  1  0.69987523  0.82914630  0.21925688  1  -1.090861  0  -0.17173  -0.346972  0  2.22428  0
O  O184  1  0.48209126  0.78018191  0.60997228  1  -1.079285  0  -0.171149  -0.346256  0  2.222245  0
O  O185  1  0.87113999  0.39044610  0.17040262  1  -1.080169  0  -0.168378  -0.343638  0  2.224582  0
O  O186  1  0.06150486  0.06987750  0.75426465  1  -1.075218  0  -0.17482  -0.358034  0  2.249573  0
O  O187  1  0.30576734  0.24649038  0.31587793  1  -1.084344  0  -0.175048  -0.358027  0  2.251734  0
O  O188  1  0.99070313  0.68402248  0.93031186  1  -1.068134  0  -0.174008  -0.356995  0  2.252291  0
O  O189  1  0.93855979  0.93015821  0.24575889  1  -1.074101  0  -0.175003  -0.358406  0  2.249659  0
O  O190  1  0.69425016  0.75352559  0.68412776  1  -1.084206  0  -0.174941  -0.357735  0  2.25184  0
O  O191  1  0.00925855  0.31594765  0.06966096  1  -1.068465  0  -0.173766  -0.356711  0  2.25308  0
