# generated using pymatgen
data_H16PbC8(N2Cl)2
_symmetry_space_group_name_H-M   'P 1'
_cell_length_a   8.09592564
_cell_length_b   8.87604843
_cell_length_c   8.87588270
_cell_angle_alpha   86.26504296
_cell_angle_beta   83.12756151
_cell_angle_gamma   83.12614360
_symmetry_Int_Tables_number   1
_chemical_formula_structural   H16PbC8(N2Cl)2
_chemical_formula_sum   'H32 Pb2 C16 N8 Cl4'
_cell_volume   627.84885605
_cell_formula_units_Z   2
loop_
 _symmetry_equiv_pos_site_id
 _symmetry_equiv_pos_as_xyz
  1  'x, y, z'
loop_
 _atom_site_type_symbol
 _atom_site_label
 _atom_site_symmetry_multiplicity
 _atom_site_fract_x
 _atom_site_fract_y
 _atom_site_fract_z
 _atom_site_occupancy
 _atom_site_pbe_bader_spin_density
 _atom_site_pbe_cm5_charge
 _atom_site_pbe_ddec_charge
 _atom_site_pbe_ddec_spin_density
 _atom_site_pbe_ddec_sum_bond_order
 _atom_site_pbe_magmom
H  H0  1  0.68966901  0.17614860  0.39476280  1  0  0.09014  0.147181  0  1.032812  0
H  H1  1  0.81036129  0.60525088  0.82386463  1  0  0.090174  0.147207  0  1.032655  0
H  H2  1  0.31032464  0.82390075  0.60525521  1  0  0.090106  0.146968  0  1.032828  0
H  H3  1  0.18971007  0.39473282  0.17610060  1  0  0.090085  0.146965  0  1.032758  0
H  H4  1  0.63109010  0.32230713  0.52383383  1  0  0.100472  0.151641  0  1.002778  0
H  H5  1  0.86891818  0.47618766  0.67765487  1  0  0.100416  0.151523  0  1.002741  0
H  H6  1  0.36891411  0.67767504  0.47617808  1  0  0.100452  0.151508  0  1.002631  0
H  H7  1  0.13107007  0.52382488  0.32232711  1  0  0.100455  0.151563  0  1.002576  0
H  H8  1  0.61727562  0.12902082  0.58772028  1  0  0.090671  0.148001  0  1.036894  0
H  H9  1  0.88270003  0.41230128  0.87099703  1  0  0.090677  0.147949  0  1.037013  0
H  H10  1  0.38265907  0.87102038  0.41236208  1  0  0.090722  0.148033  0  1.037284  0
H  H11  1  0.11731589  0.58765748  0.12896249  1  0  0.090659  0.147965  0  1.037048  0
H  H12  1  0.16450596  0.04062073  0.70805500  1  0  0.091609  0.069493  0  1.037222  0
H  H13  1  0.33546793  0.29193065  0.95933953  1  0  0.091662  0.069684  0  1.037078  0
H  H14  1  0.83546640  0.95927493  0.29193991  1  0  0.091723  0.069684  0  1.037444  0
H  H15  1  0.66456110  0.70800189  0.04061723  1  0  0.091664  0.069666  0  1.037322  0
H  H16  1  0.11021323  0.22937457  0.76378844  1  0  0.094912  0.072199  0  1.023837  0
H  H17  1  0.38982927  0.23626482  0.77064344  1  0  0.094744  0.072053  0  1.024351  0
H  H18  1  0.88978051  0.77070617  0.23619446  1  0  0.094748  0.072027  0  1.024307  0
H  H19  1  0.61025195  0.76388340  0.22939147  1  0  0.095043  0.072521  0  1.023059  0
H  H20  1  0.21897741  0.31057234  0.51270410  1  0  0.095393  0.069864  0  0.992666  0
H  H21  1  0.28100508  0.48731417  0.68940971  1  0  0.095437  0.069891  0  0.992803  0
H  H22  1  0.78102836  0.68945961  0.48728917  1  0  0.095435  0.069881  0  0.992898  0
H  H23  1  0.71898736  0.51271782  0.31049145  1  0  0.09535  0.069706  0  0.992845  0
H  H24  1  0.22830977  0.12591795  0.44478248  1  0  0.09248  0.07804  0  1.024968  0
H  H25  1  0.27169759  0.55523236  0.87409367  1  0  0.09245  0.077871  0  1.024953  0
H  H26  1  0.77169230  0.87410123  0.55527977  1  0  0.092522  0.078025  0  1.024893  0
H  H27  1  0.72831691  0.44468494  0.12591425  1  0  0.092396  0.077799  0  1.024929  0
H  H28  1  0.98040868  0.25349233  0.33994811  1  0  0.281997  0.260786  0  1.013988  0
H  H29  1  0.51954875  0.66006531  0.74651643  1  0  0.282079  0.260736  0  1.014312  0
H  H30  1  0.01954609  0.74651676  0.66011655  1  0  0.282133  0.260883  0  1.01428  0
H  H31  1  0.48040503  0.33988076  0.25350699  1  0  0.282103  0.260981  0  1.014089  0
Pb  Pb32  1  0.75009041  0.07055446  0.92930689  1  0  0.493754  0.872798  0  2.088806  0
Pb  Pb33  1  0.24992605  0.92935413  0.07045587  1  0  0.493742  0.872936  0  2.088011  0
C  C34  1  0.86591840  0.19356655  0.55273130  1  0  0.245539  0.456267  0  4.029228  0
C  C35  1  0.63409049  0.44727926  0.80645435  1  0  0.24543  0.456141  0  4.029575  0
C  C36  1  0.13406289  0.80647154  0.44729339  1  0  0.245389  0.456164  0  4.029377  0
C  C37  1  0.36593061  0.55269628  0.19357657  1  0  0.245223  0.45611  0  4.02893  0
C  C38  1  0.69137127  0.20513039  0.51288600  1  0  -0.237616  -0.48516  0  3.900466  0
C  C39  1  0.80862316  0.48713175  0.79486679  1  0  -0.23768  -0.485154  0  3.90051  0
C  C40  1  0.30860902  0.79487468  0.48713457  1  0  -0.237771  -0.485  0  3.900704  0
C  C41  1  0.19135262  0.51287062  0.20511729  1  0  -0.237595  -0.484886  0  3.899782  0
C  C42  1  0.09466593  0.15002582  0.67769388  1  0  -0.070929  -0.053087  0  3.898577  0
C  C43  1  0.40534034  0.32234954  0.84998162  1  0  -0.070928  -0.052964  0  3.899056  0
C  C44  1  0.90535285  0.84994771  0.32235772  1  0  -0.070939  -0.053128  0  3.90038  0
C  C45  1  0.59465965  0.67775084  0.15002841  1  0  -0.071137  -0.053926  0  3.898323  0
C  C46  1  0.14983285  0.21103092  0.51420942  1  0  -0.062469  -0.020585  0  3.837932  0
C  C47  1  0.35015841  0.48582482  0.78893904  1  0  -0.062424  -0.020532  0  3.837812  0
C  C48  1  0.85016721  0.78896333  0.48585947  1  0  -0.062568  -0.02054  0  3.838346  0
C  C49  1  0.64984165  0.51421542  0.21098773  1  0  -0.062376  -0.019824  0  3.837233  0
N  N50  1  0.91477266  0.13418861  0.68100164  1  0  -0.355143  -0.407393  0  3.256221  0
N  N51  1  0.58524780  0.31897496  0.86575888  1  0  -0.354994  -0.407383  0  3.255513  0
N  N52  1  0.08522383  0.86573420  0.31898861  1  0  -0.355001  -0.407243  0  3.256079  0
N  N53  1  0.41475046  0.68098524  0.13422155  1  0  -0.354838  -0.407138  0  3.2557  0
N  N54  1  0.98777311  0.25207387  0.45473849  1  0  -0.435535  -0.374791  0  3.45516  0
N  N55  1  0.51223134  0.54527414  0.74796217  1  0  -0.435691  -0.374757  0  3.456069  0
N  N56  1  0.01221558  0.74796352  0.54532377  1  0  -0.435803  -0.375168  0  3.455977  0
N  N57  1  0.48780132  0.45467835  0.25204563  1  0  -0.435704  -0.375261  0  3.455384  0
Cl  Cl58  1  0.98233691  0.21166688  0.08576424  1  0  -0.268233  -0.54873  0  1.098612  0
Cl  Cl59  1  0.51765156  0.91423914  0.78837004  1  0  -0.26816  -0.548616  0  1.099025  0
Cl  Cl60  1  0.01764579  0.78837081  0.91422878  1  0  -0.267912  -0.548322  0  1.099667  0
Cl  Cl61  1  0.48234735  0.08576516  0.21168355  1  0  -0.268538  -0.549124  0  1.097649  0
