# generated using pymatgen
data_CdH20C32S(NO)4
_symmetry_space_group_name_H-M   'P 1'
_cell_length_a   10.19020222
_cell_length_b   15.27400124
_cell_length_c   25.43277562
_cell_angle_alpha   86.15897095
_cell_angle_beta   78.43180955
_cell_angle_gamma   70.50406431
_symmetry_Int_Tables_number   1
_chemical_formula_structural   CdH20C32S(NO)4
_chemical_formula_sum   'Cd4 H80 C128 S4 N16 O16'
_cell_volume   3655.72963690
_cell_formula_units_Z   4
loop_
 _symmetry_equiv_pos_site_id
 _symmetry_equiv_pos_as_xyz
  1  'x, y, z'
loop_
 _atom_site_type_symbol
 _atom_site_label
 _atom_site_symmetry_multiplicity
 _atom_site_fract_x
 _atom_site_fract_y
 _atom_site_fract_z
 _atom_site_occupancy
 _atom_site_pbe_bader_charge
 _atom_site_pbe_bader_spin_density
 _atom_site_pbe_cm5_charge
 _atom_site_pbe_ddec_charge
 _atom_site_pbe_ddec_spin_density
 _atom_site_pbe_ddec_sum_bond_order
 _atom_site_pbe_magmom
Cd  Cd0  1  0.23555955  0.62747829  0.62487809  1  1.239535  0  0.756  0.789055  0  2.26279  0
Cd  Cd1  1  0.48818786  0.37253268  0.37512940  1  1.237522  0  0.755789  0.789083  0  2.262431  0
Cd  Cd2  1  0.61066951  0.12769387  0.87518696  1  1.239306  0  0.755132  0.787868  0  2.262351  0
Cd  Cd3  1  0.61397565  0.87232051  0.12481443  1  1.239388  0  0.755394  0.788583  0  2.261859  0
H  H4  1  0.02319594  0.61304601  0.46888472  1  0.067294  0  0.100338  0.098578  0  1.019355  0
H  H5  1  0.10509068  0.38704221  0.53112781  1  0.073767  0  0.100064  0.098568  0  1.018949  0
H  H6  1  0.24257554  0.11259914  0.03114102  1  0.090812  0  0.100398  0.098834  0  1.020891  0
H  H7  1  0.38719079  0.88712159  0.96890064  1  0.074118  0  0.100643  0.099249  0  1.018623  0
H  H8  1  0.82366154  0.61253816  0.42521189  1  0.027195  0  0.098695  0.09949  0  0.991776  0
H  H9  1  0.86126493  0.38765776  0.57476279  1  0.062863  0  0.099055  0.09895  0  0.991655  0
H  H10  1  0.99956325  0.11174783  0.07488831  1  0.052324  0  0.099268  0.099456  0  0.991338  0
H  H11  1  0.18753191  0.88753123  0.92503669  1  0.021781  0  0.098793  0.099245  0  0.991297  0
H  H12  1  0.58775338  0.62558096  0.48231222  1  0.091696  0  0.094788  0.096288  0  1.045758  0
H  H13  1  0.69569947  0.37449450  0.51763682  1  0.100319  0  0.094317  0.095484  0  1.044585  0
H  H14  1  0.82044749  0.12514749  0.01789275  1  0.084539  0  0.09433  0.095397  0  1.044045  0
H  H15  1  0.96465452  0.87422572  0.98194302  1  0.088491  0  0.094291  0.095339  0  1.044512  0
H  H16  1  0.75319308  0.63248957  0.62392396  1  0.071627  0  0.099897  0.110192  0  1.016342  0
H  H17  1  0.01000271  0.36734403  0.37606438  1  0.076997  0  0.099909  0.110101  0  1.015586  0
H  H18  1  0.12695608  0.13284189  0.87620502  1  0.078632  0  0.099935  0.110177  0  1.015998  0
H  H19  1  0.13632101  0.86704937  0.12375845  1  0.077686  0  0.100153  0.110119  0  1.016212  0
H  H20  1  0.45136220  0.30116321  0.52184581  1  0.155459  0  0.109694  0.132724  0  1.018532  0
H  H21  1  0.27411961  0.69900463  0.47806756  1  0.139357  0  0.109553  0.13202  0  1.01944  0
H  H22  1  0.72270449  0.80128949  0.97814754  1  0.148793  0  0.109583  0.132434  0  1.019208  0
H  H23  1  0.50175950  0.19894227  0.02201883  1  0.127624  0  0.109677  0.132191  0  1.019361  0
H  H24  1  0.29210943  0.45984744  0.54546664  1  0.135548  0  0.119357  0.096542  0  1.012485  0
H  H25  1  0.29698806  0.54036535  0.45447413  1  0.139488  0  0.11969  0.09739  0  1.012675  0
H  H26  1  0.58728443  0.95999597  0.95452766  1  0.163619  0  0.119292  0.096047  0  1.013843  0
H  H27  1  0.50151695  0.04018764  0.04557065  1  0.142143  0  0.119168  0.095103  0  1.014307  0
H  H28  1  0.45018057  0.46015483  0.68344578  1  0.113367  0  0.114694  0.082748  0  1.005415  0
H  H29  1  0.59320444  0.53998846  0.31639436  1  0.075887  0  0.11468  0.08249  0  1.006242  0
H  H30  1  0.88343672  0.96017469  0.81653917  1  0.088551  0  0.115094  0.083342  0  1.005372  0
H  H31  1  0.66006475  0.03980744  0.18351379  1  0.096274  0  0.115037  0.083217  0  1.005965  0
H  H32  1  0.61849077  0.30027215  0.66626555  1  0.100391  0  0.105734  0.114926  0  1.013648  0
H  H33  1  0.58476229  0.69977061  0.33360006  1  0.090613  0  0.106181  0.116074  0  1.011743  0
H  H34  1  0.03430039  0.80019902  0.83367505  1  0.104147  0  0.106064  0.115311  0  1.011769  0
H  H35  1  0.66845072  0.19969375  0.16633780  1  0.083112  0  0.10581  0.115526  0  1.011947  0
H  H36  1  0.47898730  0.13058955  0.68078449  1  0.121919  0  0.105888  0.11621  0  1.044657  0
H  H37  1  0.29043979  0.86936591  0.31920634  1  0.110761  0  0.106319  0.116662  0  1.045001  0
H  H38  1  0.90905223  0.63067509  0.81929752  1  0.12087  0  0.106321  0.11706  0  1.045608  0
H  H39  1  0.35865613  0.36949922  0.18086134  1  0.148621  0  0.106044  0.116092  0  1.044796  0
H  H40  1  0.45438268  0.11947889  0.78172869  1  0.118459  0  0.122379  0.106722  0  0.99631  0
H  H41  1  0.35589108  0.88030467  0.21826646  1  0.115527  0  0.122309  0.106656  0  0.995719  0
H  H42  1  0.98524712  0.61963553  0.71835177  1  0.139293  0  0.12259  0.107141  0  0.996409  0
H  H43  1  0.32316743  0.38065650  0.28180196  1  0.120907  0  0.122393  0.106974  0  0.997181  0
H  H44  1  0.86408887  0.11720831  0.77464458  1  0.150607  0  0.120808  0.108361  0  1.008443  0
H  H45  1  0.75584015  0.88321443  0.22542112  1  0.155  0  0.121058  0.108034  0  1.009083  0
H  H46  1  0.38807947  0.61699465  0.72531223  1  0.157803  0  0.120628  0.108628  0  1.008144  0
H  H47  1  0.73061187  0.38295176  0.27455655  1  0.157199  0  0.121299  0.109438  0  1.00898  0
H  H48  1  0.91331494  0.11613796  0.67333430  1  0.093447  0  0.11213  0.126074  0  0.980775  0
H  H49  1  0.70242199  0.88448574  0.32671410  1  0.092428  0  0.112014  0.125165  0  0.981562  0
H  H50  1  0.33616275  0.61584066  0.82660903  1  0.088511  0  0.112378  0.126013  0  0.981359  0
H  H51  1  0.77850284  0.38407196  0.17324963  1  0.085962  0  0.112278  0.126051  0  0.98047  0
H  H52  1  0.74526695  0.91908190  0.64717222  1  0.080924  0  0.108018  0.116952  0  0.999498  0
H  H53  1  0.31079173  0.08129812  0.35305822  1  0.080344  0  0.108414  0.117432  0  0.998657  0
H  H54  1  0.14253877  0.41894737  0.85286786  1  0.08548  0  0.108028  0.116524  0  0.999947  0
H  H55  1  0.41398822  0.58127988  0.14700196  1  0.088287  0  0.107893  0.116245  0  0.999369  0
H  H56  1  0.90845994  0.76893872  0.67520999  1  0.129685  0  0.117667  0.088542  0  0.999737  0
H  H57  1  0.35237904  0.23126725  0.32496535  1  0.115985  0  0.117942  0.088896  0  0.998756  0
H  H58  1  0.33417385  0.26898947  0.82481109  1  0.10542  0  0.118097  0.089254  0  0.998323  0
H  H59  1  0.42756976  0.73128942  0.17495246  1  0.11883  0  0.118106  0.089504  0  0.999337  0
H  H60  1  0.26339660  0.83030231  0.59694321  1  0.134155  0  0.107737  0.075919  0  1.036016  0
H  H61  1  0.69071653  0.16933930  0.40310449  1  0.107934  0  0.107584  0.075196  0  1.03606  0
H  H62  1  0.61028252  0.33079932  0.90312444  1  0.110868  0  0.107925  0.076468  0  1.036513  0
H  H63  1  0.84411010  0.66910897  0.09685673  1  0.09296  0  0.107909  0.076226  0  1.035379  0
H  H64  1  0.11549742  0.98246401  0.56343628  1  0.10389  0  0.101203  0.110085  0  1.023164  0
H  H65  1  0.66096987  0.01734518  0.43665579  1  0.058989  0  0.101768  0.111114  0  1.022456  0
H  H66  1  0.42845362  0.48278479  0.93667263  1  0.086369  0  0.101663  0.11105  0  1.022387  0
H  H67  1  0.84783889  0.51708620  0.06341069  1  0.087393  0  0.101857  0.11051  0  1.022948  0
H  H68  1  0.89943980  0.87006416  0.51466237  1  0.072901  0  0.108432  0.121334  0  0.999005  0
H  H69  1  0.28296712  0.12987772  0.48549669  1  0.093355  0  0.108829  0.12276  0  0.997644  0
H  H70  1  0.16330052  0.37020693  0.98539743  1  0.114812  0  0.108854  0.122312  0  0.997266  0
H  H71  1  0.51925473  0.62971483  0.01456499  1  0.084002  0  0.108608  0.122408  0  0.998687  0
H  H72  1  0.03760915  0.77690337  0.43380144  1  0.092849  0  0.113586  0.082861  0  0.993766  0
H  H73  1  0.24808606  0.22312405  0.56622279  1  0.099243  0  0.113366  0.082309  0  0.993557  0
H  H74  1  0.22137321  0.27686003  0.06611435  1  0.092146  0  0.113192  0.082337  0  0.993694  0
H  H75  1  0.56469213  0.72294791  0.93378718  1  0.077612  0  0.11351  0.082254  0  0.993683  0
H  H76  1  0.08961022  0.00875229  0.34987789  1  0.065948  0  0.109743  0.074485  0  0.982789  0
H  H77  1  0.44851027  0.99125103  0.65003604  1  0.040134  0  0.109976  0.074383  0  0.982685  0
H  H78  1  0.18981179  0.50855379  0.15007103  1  0.057119  0  0.110222  0.074833  0  0.98279  0
H  H79  1  0.84868185  0.49107932  0.84988307  1  0.066768  0  0.109871  0.074615  0  0.982504  0
H  H80  1  0.95699084  0.11246604  0.42788032  1  0.06871  0  0.106596  0.118644  0  1.000409  0
H  H81  1  0.49724377  0.88752629  0.57207043  1  0.08041  0  0.10647  0.119084  0  1.000053  0
H  H82  1  0.13494063  0.61240329  0.07214255  1  0.069012  0  0.106495  0.119354  0  0.999888  0
H  H83  1  0.81942377  0.38730985  0.92782257  1  0.074915  0  0.106706  0.119183  0  1.000156  0
C  C84  1  0.89949686  0.62451808  0.54883969  1  0.05039  0  -0.025615  -0.038908  0  3.998374  0
C  C85  1  0.07300500  0.37545719  0.45116281  1  0.03501  0  -0.026087  -0.040389  0  3.998833  0
C  C86  1  0.19849980  0.12447875  0.95122582  1  -0.062811  0  -0.025966  -0.040003  0  3.999211  0
C  C87  1  0.27478236  0.87534161  0.04877992  1  -0.016777  0  -0.027064  -0.042586  0  4.000924  0
C  C88  1  0.91886408  0.61943677  0.49276658  1  -0.083986  0  -0.084441  -0.090527  0  3.977256  0
C  C89  1  0.03109298  0.38064820  0.50722435  1  -0.077622  0  -0.084238  -0.090744  0  3.976876  0
C  C90  1  0.16202892  0.11906848  0.00729357  1  -0.040345  0  -0.083619  -0.090203  0  3.978605  0
C  C91  1  0.28927158  0.88056569  0.99270285  1  -0.006211  0  -0.084803  -0.091158  0  3.976022  0
C  C92  1  0.80737094  0.61957060  0.46865271  1  -0.023153  0  -0.096884  -0.091629  0  4.032588  0
C  C93  1  0.89558221  0.38055063  0.53132904  1  -0.067856  0  -0.096426  -0.089214  0  4.028549  0
C  C94  1  0.02651218  0.11902857  0.03145072  1  -0.02206  0  -0.096974  -0.089839  0  4.029711  0
C  C95  1  0.17810071  0.88039184  0.96848473  1  0.021069  0  -0.096332  -0.090131  0  4.029336  0
C  C96  1  0.67553963  0.62661933  0.50032000  1  -0.015897  0  -0.088261  -0.092853  0  3.982748  0
C  C97  1  0.80256597  0.37343269  0.49965382  1  -0.019245  0  -0.087996  -0.092758  0  3.97992  0
C  C98  1  0.92618809  0.12625191  0.99983131  1  -0.036912  0  -0.088564  -0.093453  0  3.979379  0
C  C99  1  0.05329966  0.87318193  0.00005707  1  -0.067749  0  -0.087996  -0.092464  0  3.980889  0
C  C100  1  0.65445920  0.63283558  0.55637954  1  -0.090513  0  -0.025705  -0.037549  0  3.98695  0
C  C101  1  0.84383678  0.36715342  0.44359369  1  -0.081858  0  -0.026754  -0.039301  0  3.990312  0
C  C102  1  0.96094524  0.13273530  0.94377681  1  -0.082608  0  -0.025166  -0.037079  0  3.989359  0
C  C103  1  0.03818419  0.86686266  0.05612282  1  -0.048976  0  -0.026697  -0.039401  0  3.989449  0
C  C104  1  0.76752150  0.63044451  0.58035826  1  -0.028184  0  -0.083734  -0.112716  0  3.946883  0
C  C105  1  0.97854400  0.36951232  0.41962742  1  0.013373  0  -0.082663  -0.110554  0  3.947028  0
C  C106  1  0.09790722  0.13051868  0.91976648  1  0.043275  0  -0.083928  -0.112209  0  3.948606  0
C  C107  1  0.14871803  0.86924231  0.08019682  1  -0.028276  0  -0.082381  -0.109188  0  3.946088  0
C  C108  1  0.01965949  0.62192709  0.57512239  1  1.531851  0  0.182949  0.550148  0  4.245055  0
C  C109  1  0.21689501  0.37810674  0.42491893  1  1.520762  0  0.182107  0.549772  0  4.245457  0
C  C110  1  0.34490793  0.12200547  0.92490614  1  1.526889  0  0.182846  0.549702  0  4.245194  0
C  C111  1  0.39214317  0.87801234  0.07517502  1  1.524132  0  0.183106  0.550431  0  4.245158  0
C  C112  1  0.51265735  0.63940272  0.59029964  1  1.549576  0  0.182065  0.554705  0  4.244884  0
C  C113  1  0.74249850  0.36058762  0.40969670  1  1.524705  0  0.181615  0.554157  0  4.245095  0
C  C114  1  0.85299652  0.13947179  0.90987336  1  1.531219  0  0.181361  0.553644  0  4.247873  0
C  C115  1  0.90277241  0.86037336  0.08995297  1  1.509909  0  0.181463  0.554937  0  4.247207  0
C  C116  1  0.65290525  0.19324957  0.57816935  1  -0.21937  0  -0.004409  -0.058653  0  3.965733  0
C  C117  1  0.42411386  0.80677711  0.42178658  1  -0.186125  0  -0.005128  -0.059427  0  3.966687  0
C  C118  1  0.98056710  0.69324298  0.92183433  1  -0.207267  0  -0.005434  -0.061135  0  3.966141  0
C  C119  1  0.59555107  0.30677540  0.07822142  1  -0.178395  0  -0.00463  -0.0588  0  3.966614  0
C  C120  1  0.72391089  0.12224787  0.60992046  1  0.054858  0  -0.015468  -0.032221  0  3.994331  0
C  C121  1  0.45576350  0.87787823  0.39009623  1  0.040049  0  -0.013794  -0.030557  0  3.992824  0
C  C122  1  0.08328601  0.62218468  0.89010529  1  0.068574  0  -0.014027  -0.030484  0  3.994063  0
C  C123  1  0.59526461  0.37791928  0.10991868  1  0.042388  0  -0.015441  -0.031547  0  3.994601  0
C  C124  1  0.82638222  0.04641477  0.57885924  1  0.048331  0  -0.017215  -0.034097  0  4.013106  0
C  C125  1  0.45099290  0.95369369  0.42123088  1  -0.005302  0  -0.01826  -0.033889  0  4.014477  0
C  C126  1  0.15476754  0.54643536  0.92120090  1  0.061864  0  -0.01733  -0.033927  0  4.012654  0
C  C127  1  0.62215151  0.45362313  0.07879836  1  0.053488  0  -0.017163  -0.033331  0  4.010869  0
C  C128  1  0.83149044  0.06076512  0.52393168  1  -0.235713  0  -0.013532  -0.080327  0  4.003911  0
C  C129  1  0.41540773  0.93924723  0.47614160  1  -0.170194  0  -0.013518  -0.081201  0  4.003546  0
C  C130  1  0.10492796  0.56083680  0.97612159  1  -0.228908  0  -0.013259  -0.079775  0  4.0041  0
C  C131  1  0.64186799  0.43910542  0.02388258  1  -0.239908  0  -0.013972  -0.080913  0  4.002503  0
C  C132  1  0.54900841  0.28458007  0.59284042  1  0.002688  0  0.008687  0.120208  0  4.024795  0
C  C133  1  0.42618267  0.71550756  0.40705816  1  -0.028959  0  0.00806  0.119916  0  4.026161  0
C  C134  1  0.89137316  0.78458148  0.90713931  1  -0.007573  0  0.009277  0.122737  0  4.023865  0
C  C135  1  0.58306894  0.21544435  0.09294281  1  0.036627  0  0.008531  0.121229  0  4.026141  0
C  C136  1  0.45438376  0.33169580  0.55892027  1  -0.02575  0  -0.080124  -0.16961  0  3.907262  0
C  C137  1  0.34470789  0.66843708  0.44098846  1  -0.025924  0  -0.079501  -0.167745  0  3.907408  0
C  C138  1  0.76287123  0.83176677  0.94106368  1  -0.158363  0  -0.080752  -0.170288  0  3.908567  0
C  C139  1  0.53549399  0.16835014  0.05905340  1  -0.019739  0  -0.080326  -0.169881  0  3.90873  0
C  C140  1  0.36412605  0.42140536  0.57182857  1  0.48328  0  0.054093  0.110749  0  3.914406  0
C  C141  1  0.35696500  0.57876135  0.42809222  1  0.506355  0  0.053047  0.10805  0  3.915474  0
C  C142  1  0.68563118  0.92151190  0.92816608  1  0.536535  0  0.053787  0.110183  0  3.913755  0
C  C143  1  0.53512567  0.07860757  0.07192444  1  0.491152  0  0.054525  0.11296  0  3.913942  0
C  C144  1  0.45174290  0.42125155  0.64880464  1  0.506836  0  0.044429  0.096177  0  3.977676  0
C  C145  1  0.52137220  0.57887927  0.35107729  1  0.53109  0  0.045631  0.097721  0  3.979701  0
C  C146  1  0.85028479  0.92127977  0.85118117  1  0.525923  0  0.044016  0.094995  0  3.979108  0
C  C147  1  0.62275303  0.07872323  0.14886300  1  0.507845  0  0.044572  0.096103  0  3.978771  0
C  C148  1  0.54566706  0.33164497  0.63905516  1  -0.082503  0  -0.085511  -0.171393  0  3.935361  0
C  C149  1  0.51605684  0.66844653  0.36082701  1  -0.068964  0  -0.086088  -0.173518  0  3.935048  0
C  C150  1  0.93430100  0.83161717  0.86091003  1  -0.030469  0  -0.085989  -0.172406  0  3.93419  0
C  C151  1  0.62695752  0.16835348  0.13913261  1  -0.109407  0  -0.085348  -0.172454  0  3.934119  0
C  C152  1  0.69959040  0.12265170  0.66909440  1  -0.038952  0  0.013054  0.12695  0  4.009594  0
C  C153  1  0.49117752  0.87757583  0.33092819  1  -0.098366  0  0.012853  0.126058  0  4.008022  0
C  C154  1  0.11808074  0.62251501  0.83093479  1  -0.080482  0  0.012329  0.126013  0  4.012009  0
C  C155  1  0.57126038  0.37758969  0.16908405  1  -0.102181  0  0.012671  0.124852  0  4.011151  0
C  C156  1  0.56787731  0.12537857  0.70009167  1  -0.087158  0  -0.084312  -0.182347  0  3.932711  0
C  C157  1  0.39338637  0.87466197  0.29990009  1  -0.026196  0  -0.084878  -0.182529  0  3.930441  0
C  C158  1  0.01728133  0.62536504  0.79996370  1  -0.053174  0  -0.084193  -0.182761  0  3.935019  0
C  C159  1  0.44233481  0.37482214  0.20012922  1  -0.045327  0  -0.083846  -0.181158  0  3.932013  0
C  C160  1  0.55281103  0.12110604  0.75570622  1  0.499715  0  0.048209  0.092858  0  3.939149  0
C  C161  1  0.42980470  0.87884918  0.24428953  1  0.492917  0  0.048219  0.092079  0  3.934961  0
C  C162  1  0.05775150  0.62112903  0.74434680  1  0.476687  0  0.047505  0.091853  0  3.936873  0
C  C163  1  0.42314191  0.37906799  0.25574522  1  0.488137  0  0.048204  0.092015  0  3.93673  0
C  C164  1  0.78401953  0.11746379  0.75169180  1  0.411196  0  0.047129  0.086263  0  3.955304  0
C  C165  1  0.65310582  0.88285667  0.24835364  1  0.413233  0  0.046647  0.085314  0  3.955524  0
C  C166  1  0.28506620  0.61727447  0.74829937  1  0.401659  0  0.047084  0.08479  0  3.954937  0
C  C167  1  0.65072982  0.38273912  0.25163990  1  0.409272  0  0.046724  0.083544  0  3.955471  0
C  C168  1  0.80948243  0.11793328  0.69586025  1  0.045404  0  -0.083233  -0.181395  0  3.947707  0
C  C169  1  0.62305480  0.88246940  0.30418909  1  0.059976  0  -0.083429  -0.180635  0  3.946986  0
C  C170  1  0.25475390  0.61770465  0.80413037  1  0.059667  0  -0.084202  -0.181705  0  3.947789  0
C  C171  1  0.67648823  0.38231963  0.19581439  1  0.045622  0  -0.084002  -0.181071  0  3.946513  0
C  C172  1  0.91752461  0.96218375  0.60166707  1  0.003364  0  0.009621  0.125682  0  4.018918  0
C  C173  1  0.48075283  0.03796192  0.39851369  1  -0.009204  0  0.009445  0.124853  0  4.017652  0
C  C174  1  0.26891389  0.46222506  0.89844505  1  -0.014483  0  0.010187  0.126074  0  4.015199  0
C  C175  1  0.62936143  0.53782549  0.10153280  1  0.006678  0  0.009346  0.124552  0  4.01656  0
C  C176  1  0.85973415  0.90246350  0.63541658  1  0.001255  0  -0.08532  -0.182177  0  3.947597  0
C  C177  1  0.39702855  0.09777049  0.36478964  1  -0.046449  0  -0.085612  -0.18253  0  3.944518  0
C  C178  1  0.24518647  0.40245258  0.86465272  1  -0.022654  0  -0.085393  -0.181518  0  3.943769  0
C  C179  1  0.51197777  0.59771198  0.13525051  1  -0.021341  0  -0.084868  -0.180796  0  3.944917  0
C  C180  1  0.95027317  0.81928524  0.65159453  1  0.415976  0  0.047764  0.105207  0  3.964998  0
C  C181  1  0.42082756  0.18084885  0.34858403  1  0.496904  0  0.048289  0.106413  0  3.963932  0
C  C182  1  0.35210304  0.31936583  0.84846790  1  0.467635  0  0.047653  0.105639  0  3.963433  0
C  C183  1  0.51963123  0.68080369  0.15138932  1  0.442906  0  0.04816  0.105508  0  3.962495  0
C  C184  1  0.14794483  0.85352218  0.60734490  1  0.449585  0  0.043129  0.096271  0  3.978496  0
C  C185  1  0.60863036  0.14634236  0.39276272  1  0.4569  0  0.043446  0.098137  0  3.977335  0
C  C186  1  0.50522728  0.35382388  0.89275378  1  0.476491  0  0.042884  0.095791  0  3.980579  0
C  C187  1  0.75165275  0.64614413  0.10721888  1  0.488539  0  0.042322  0.094443  0  3.979486  0
C  C188  1  0.06552741  0.93742386  0.58864498  1  -0.069258  0  -0.087684  -0.184039  0  3.955269  0
C  C189  1  0.59118198  0.06250846  0.41148519  1  -0.003649  0  -0.088498  -0.186078  0  3.954071  0
C  C190  1  0.40388235  0.43765597  0.91145983  1  -0.056701  0  -0.08859  -0.185734  0  3.954928  0
C  C191  1  0.75285500  0.56229441  0.08855285  1  -0.045331  0  -0.087967  -0.183402  0  3.953398  0
C  C192  1  0.91628104  0.00031075  0.47850859  1  0.015609  0  -6.4e-05  0.116436  0  4.049067  0
C  C193  1  0.39437529  0.99966376  0.52155921  1  0.040583  0  0.000991  0.117897  0  4.04656  0
C  C194  1  0.14438292  0.50036450  0.02153000  1  -0.010324  0  0.000199  0.116085  0  4.049087  0
C  C195  1  0.66641709  0.49947389  0.97844680  1  -0.053834  0  0.000153  0.115979  0  4.048652  0
C  C196  1  0.94118187  0.90399845  0.47934220  1  -0.028748  0  -0.085497  -0.174903  0  3.925481  0
C  C197  1  0.32364971  0.09597671  0.52076080  1  -0.087961  0  -0.086549  -0.17795  0  3.925205  0
C  C198  1  0.16995869  0.40406685  0.02069302  1  -0.087435  0  -0.086103  -0.176194  0  3.922787  0
C  C199  1  0.59504060  0.59580484  0.97927119  1  -0.024572  0  -0.086362  -0.177279  0  3.92656  0
C  C200  1  0.01827541  0.85173283  0.43362141  1  0.487875  0  0.041117  0.093406  0  4.00435  0
C  C201  1  0.30323982  0.14827162  0.56641691  1  0.526918  0  0.041445  0.094841  0  3.99881  0
C  C202  1  0.20171398  0.35169711  0.06634264  1  0.50658  0  0.041517  0.094537  0  3.999287  0
C  C203  1  0.62010751  0.64810313  0.93359335  1  0.545745  0  0.042172  0.095916  0  4.001945  0
C  C204  1  0.04655745  0.97991492  0.38730490  1  0.494709  0  0.036202  0.087902  0  4.033711  0
C  C205  1  0.41376874  0.02007707  0.61265689  1  0.528501  0  0.036051  0.088311  0  4.033154  0
C  C206  1  0.18397343  0.47979448  0.11266354  1  0.515572  0  0.036301  0.089253  0  4.032145  0
C  C207  1  0.77666418  0.51990093  0.88729486  1  0.503004  0  0.036555  0.088613  0  4.033314  0
C  C208  1  0.97144327  0.03830892  0.43071582  1  -0.034716  0  -0.092944  -0.191159  0  3.952811  0
C  C209  1  0.44013931  0.96166929  0.56928581  1  -0.080595  0  -0.09348  -0.192408  0  3.951367  0
C  C210  1  0.15199031  0.53827569  0.06930887  1  -0.022778  0  -0.093246  -0.192953  0  3.951317  0
C  C211  1  0.75970919  0.46147264  0.93067101  1  -0.029389  0  -0.093076  -0.191696  0  3.953001  0
S  S212  1  0.71284491  0.16618358  0.51110913  1  0.31942  0  0.13668  0.16913  0  3.029491  0
S  S213  1  0.38967766  0.83373601  0.48887527  1  0.308854  0  0.137298  0.169795  0  3.030494  0
S  S214  1  0.97350014  0.66628912  0.98890638  1  0.313021  0  0.13657  0.169215  0  3.029608  0
S  S215  1  0.62878609  0.33362282  0.01113915  1  0.317816  0  0.137097  0.169272  0  3.029109  0
N  N216  1  0.36223908  0.46597360  0.61598799  1  -1.226385  0  -0.326764  -0.235174  0  3.486515  0
N  N217  1  0.44371476  0.53420124  0.38390466  1  -1.224511  0  -0.327214  -0.234984  0  3.487245  0
N  N218  1  0.72798526  0.96607569  0.88400813  1  -1.237791  0  -0.326472  -0.233828  0  3.484545  0
N  N219  1  0.57794545  0.03401370  0.11605961  1  -1.219394  0  -0.327127  -0.236008  0  3.486311  0
N  N220  1  0.65828335  0.11800761  0.78105569  1  -1.230736  0  -0.326054  -0.234697  0  3.525107  0
N  N221  1  0.55752332  0.88203647  0.21895746  1  -1.231199  0  -0.32563  -0.232407  0  3.520572  0
N  N222  1  0.18861955  0.61792250  0.71896248  1  -1.225876  0  -0.325495  -0.232774  0  3.522508  0
N  N223  1  0.52557824  0.38220503  0.28105381  1  -1.224552  0  -0.32635  -0.232559  0  3.522179  0
N  N224  1  0.09220300  0.79403969  0.63713273  1  -1.202907  0  -0.325164  -0.244367  0  3.447025  0
N  N225  1  0.52325282  0.20592357  0.36299410  1  -1.208332  0  -0.325326  -0.245544  0  3.448334  0
N  N226  1  0.47956146  0.29426229  0.86292786  1  -1.203472  0  -0.325271  -0.245041  0  3.449238  0
N  N227  1  0.63652588  0.70583012  0.13694665  1  -1.218083  0  -0.325404  -0.244596  0  3.447783  0
N  N228  1  0.07140343  0.88784048  0.38793088  1  -1.215313  0  -0.330975  -0.286487  0  3.327562  0
N  N229  1  0.34719928  0.11216303  0.61203986  1  -1.213418  0  -0.330619  -0.286236  0  3.323484  0
N  N230  1  0.20941420  0.38772567  0.11200409  1  -1.214704  0  -0.331115  -0.287336  0  3.326068  0
N  N231  1  0.70952660  0.61199098  0.88793651  1  -1.217236  0  -0.3315  -0.28727  0  3.327033  0
O  O232  1  0.00289473  0.61574309  0.62631042  1  -1.167863  0  -0.347477  -0.581625  0  2.19059  0
O  O233  1  0.24523651  0.38434422  0.37373600  1  -1.168091  0  -0.347305  -0.581857  0  2.192538  0
O  O234  1  0.37926952  0.11595746  0.87371325  1  -1.168186  0  -0.34739  -0.581502  0  2.191907  0
O  O235  1  0.36905335  0.88415691  0.12635600  1  -1.170703  0  -0.347709  -0.581637  0  2.190284  0
O  O236  1  0.13433213  0.62646080  0.54557210  1  -1.174179  0  -0.336565  -0.557885  0  2.178921  0
O  O237  1  0.30654831  0.37347054  0.45447390  1  -1.180734  0  -0.335722  -0.5571  0  2.179768  0
O  O238  1  0.43000936  0.12663427  0.95443208  1  -1.178991  0  -0.336603  -0.557723  0  2.178549  0
O  O239  1  0.51140702  0.87352620  0.04567618  1  -1.172388  0  -0.335549  -0.556676  0  2.179743  0
O  O240  1  0.50128805  0.62221198  0.63995112  1  -1.179819  0  -0.350688  -0.585814  0  2.118854  0
O  O241  1  0.76341901  0.37789654  0.36005471  1  -1.180884  0  -0.350079  -0.584518  0  2.117712  0
O  O242  1  0.89132650  0.12223072  0.86022443  1  -1.180669  0  -0.350235  -0.584405  0  2.118482  0
O  O243  1  0.87412151  0.87741522  0.13962840  1  -1.174433  0  -0.35027  -0.585479  0  2.118297  0
O  O244  1  0.40754061  0.66218829  0.56530616  1  -1.14749  0  -0.345065  -0.566763  0  2.285164  0
O  O245  1  0.63518744  0.33778834  0.43472546  1  -1.150694  0  -0.344908  -0.566783  0  2.285395  0
O  O246  1  0.72287248  0.16232036  0.93486591  1  -1.157084  0  -0.344573  -0.566448  0  2.286842  0
O  O247  1  0.82031014  0.83787225  0.06490068  1  -1.151746  0  -0.344511  -0.566386  0  2.287315  0
