# generated using pymatgen
data_Zr3H5C30N9O16
_symmetry_space_group_name_H-M   'P 1'
_cell_length_a   16.43329659
_cell_length_b   16.44436137
_cell_length_c   16.52557134
_cell_angle_alpha   95.20536327
_cell_angle_beta   90.45478533
_cell_angle_gamma   89.70128651
_symmetry_Int_Tables_number   1
_chemical_formula_structural   Zr3H5C30N9O16
_chemical_formula_sum   'Zr6 H10 C60 N18 O32'
_cell_volume   4447.18620605
_cell_formula_units_Z   2
loop_
 _symmetry_equiv_pos_site_id
 _symmetry_equiv_pos_as_xyz
  1  'x, y, z'
loop_
 _atom_site_type_symbol
 _atom_site_label
 _atom_site_symmetry_multiplicity
 _atom_site_fract_x
 _atom_site_fract_y
 _atom_site_fract_z
 _atom_site_occupancy
 _atom_site_pbe_bader_charge
 _atom_site_pbe_bader_spin_density
 _atom_site_pbe_cm5_charge
 _atom_site_pbe_ddec_charge
 _atom_site_pbe_ddec_spin_density
 _atom_site_pbe_ddec_sum_bond_order
 _atom_site_pbe_magmom
Zr  Zr0  1  0.03408399  0.20046665  0.15965927  1  2.635443  0  1.628575  2.375937  0  2.739369  0
Zr  Zr1  1  0.15306300  0.24527266  0.99173547  1  2.637469  0  1.631498  2.376918  0  2.74617  0
Zr  Zr2  1  0.00843979  0.99789047  0.07175902  1  2.635455  0  1.632107  2.37506  0  2.750482  0
Zr  Zr3  1  0.20688880  0.07931094  0.10384279  1  2.634572  0  1.630027  2.375483  0  2.746451  0
Zr  Zr4  1  0.95576856  0.16336427  0.95887269  1  2.637166  0  1.631966  2.375672  0  2.748781  0
Zr  Zr5  1  0.12844986  0.04152130  0.90413317  1  2.636445  0  1.629719  2.375924  0  2.740737  0
H  H6  1  0.19984837  0.24760489  0.15783346  1  0.613325  0  0.334284  0.424675  0  0.857206  0
H  H7  1  0.88706723  0.12042998  0.10438856  1  0.613762  0  0.334816  0.428161  0  0.853  0
H  H8  1  0.15735578  0.92700766  0.02081839  1  0.616963  0  0.334566  0.42799  0  0.853694  0
H  H9  1  0.07737723  0.18673651  0.84123138  1  0.622126  0  0.334883  0.428216  0  0.853965  0
H  H10  1  0.06841745  0.52531969  0.51749938  1  0.136946  0  0.121853  0.13322  0  0.979589  0
H  H11  1  0.08245243  0.71351301  0.54568841  1  0.137106  0  0.120942  0.130696  0  0.984804  0
H  H12  1  0.67355416  0.63280807  0.02919118  1  0.146263  0  0.12078  0.131009  0  0.984348  0
H  H13  1  0.48696773  0.60707539  0.02481296  1  0.122646  0  0.121145  0.131917  0  0.981664  0
H  H14  1  0.59320506  0.11397144  0.62288012  1  0.140876  0  0.120836  0.130761  0  0.984458  0
H  H15  1  0.56741333  0.12089459  0.43778300  1  0.101791  0  0.120997  0.132135  0  0.981815  0
C  C16  1  0.79843544  0.06509305  0.45233009  1  1.176768  0  0.271177  0.438494  0  4.092564  0
C  C17  1  0.69426070  0.08981746  0.54020455  1  1.061981  0  0.258908  0.416649  0  4.007491  0
C  C18  1  0.82053044  0.05985552  0.58672675  1  1.175567  0  0.271367  0.438021  0  4.087673  0
C  C19  1  0.36626633  0.17059496  0.61374166  1  1.187855  0  0.271628  0.435986  0  4.092308  0
C  C20  1  0.33863942  0.17061673  0.47969514  1  1.159108  0  0.271105  0.439728  0  4.082878  0
C  C21  1  0.46733038  0.14469565  0.52237939  1  1.06532  0  0.259408  0.418305  0  4.002646  0
C  C22  1  0.50697690  0.83083615  0.96590311  1  1.208904  0  0.270843  0.434977  0  4.094177  0
C  C23  1  0.59294030  0.73036473  0.99805938  1  1.060578  0  0.259184  0.418774  0  4.003189  0
C  C24  1  0.64238032  0.85343309  0.96962343  1  1.188602  0  0.271525  0.437976  0  4.087689  0
C  C25  1  0.65814851  0.41285922  0.08944856  1  1.191883  0  0.271539  0.437526  0  4.094436  0
C  C26  1  0.56934932  0.51027929  0.05554592  1  1.050791  0  0.259417  0.417189  0  4.005815  0
C  C27  1  0.52389082  0.38462406  0.08042943  1  1.181941  0  0.270526  0.437794  0  4.085076  0
C  C28  1  0.01963843  0.52151352  0.74696676  1  1.25622  0  0.271033  0.43758  0  4.09446  0
C  C29  1  0.04853896  0.58901866  0.63702021  1  1.081751  0  0.259227  0.418645  0  4.003426  0
C  C30  1  0.02675648  0.65910685  0.75983186  1  1.189674  0  0.271838  0.438473  0  4.087872  0
C  C31  1  0.13352147  0.72408935  0.31909079  1  1.209604  0  0.271529  0.438047  0  4.090056  0
C  C32  1  0.10235743  0.65234470  0.42559065  1  1.038185  0  0.258787  0.415958  0  4.005323  0
C  C33  1  0.12165582  0.58691938  0.30018799  1  1.167581  0  0.270825  0.437333  0  4.091921  0
C  C34  1  0.92846924  0.07054239  0.24540514  1  1.680348  0  0.250541  0.70964  0  4.168482  0
C  C35  1  0.10899115  0.37768864  0.14817444  1  1.682333  0  0.250868  0.711598  0  4.155921  0
C  C36  1  0.18600829  0.16331054  0.28455898  1  1.649694  0  0.250404  0.709856  0  4.156631  0
C  C37  1  0.86778416  0.28500324  0.09275501  1  1.697682  0  0.252406  0.711749  0  4.162028  0
C  C38  1  0.24151676  0.16927880  0.82355423  1  1.699438  0  0.253052  0.714665  0  4.16038  0
C  C39  1  0.04340522  0.86854828  0.91049411  1  1.661452  0  0.251981  0.712942  0  4.155794  0
C  C40  1  0.33096243  0.23002745  0.06815679  1  1.676664  0  0.250777  0.711617  0  4.152913  0
C  C41  1  0.01927630  0.33110689  0.88639906  1  1.670926  0  0.251311  0.710527  0  4.165584  0
C  C42  1  0.83503260  0.00787297  0.98540319  1  1.681649  0  0.252813  0.714686  0  4.155182  0
C  C43  1  0.13910707  0.91749984  0.18471931  1  1.680833  0  0.252951  0.712992  0  4.163615  0
C  C44  1  0.30004779  0.96492024  0.96761483  1  1.682115  0  0.251473  0.710649  0  4.164641  0
C  C45  1  0.97229793  0.06981814  0.78200966  1  1.657969  0  0.251771  0.710616  0  4.157107  0
C  C46  1  0.14469053  0.79859003  0.28258525  1  -0.279526  0  0.009853  -0.044802  0  3.921325  0
C  C47  1  0.14757211  0.85608042  0.24131693  1  0.079357  0  -0.001736  -0.111777  0  3.851421  0
C  C48  1  0.11909339  0.45538051  0.19553747  1  -0.064576  0  -0.008815  -0.122161  0  3.863822  0
C  C49  1  0.12153137  0.51446146  0.24534985  1  -0.122413  0  0.005517  -0.04922  0  3.936238  0
C  C50  1  0.02543585  0.73326030  0.81211597  1  0.01822  0  0.005511  -0.050863  0  3.935008  0
C  C51  1  0.02843660  0.79294855  0.86110034  1  -0.190881  0  -0.006867  -0.118013  0  3.863503  0
C  C52  1  0.01094911  0.44883477  0.78710468  1  0.069491  0  0.010008  -0.044101  0  3.926011  0
C  C53  1  0.00943688  0.39351378  0.83114988  1  -0.265582  0  -0.002541  -0.113452  0  3.857832  0
C  C54  1  0.06744380  0.58598819  0.55021842  1  -0.064879  0  -0.055715  -0.129463  0  3.852025  0
C  C55  1  0.08336368  0.65325118  0.51212626  1  0.011431  0  -0.053799  -0.123539  0  3.855145  0
C  C56  1  0.73818972  0.38147493  0.10057949  1  0.065642  0  0.009148  -0.04789  0  3.925289  0
C  C57  1  0.80099101  0.34224627  0.10273539  1  -0.249714  0  -0.002337  -0.110897  0  3.852724  0
C  C58  1  0.40560883  0.27609185  0.07972029  1  0.13665  0  -0.009901  -0.124381  0  3.856567  0
C  C59  1  0.45937024  0.32679341  0.08222763  1  -0.326811  0  0.00652  -0.046384  0  3.929731  0
C  C60  1  0.76266186  0.95935325  0.96879826  1  0.231761  0  -0.00764  -0.120532  0  3.856338  0
C  C61  1  0.70848762  0.90909502  0.96602357  1  -0.412077  0  0.007301  -0.046896  0  3.929956  0
C  C62  1  0.42808543  0.86599555  0.95752448  1  0.019709  0  0.009341  -0.04529  0  3.925353  0
C  C63  1  0.36732452  0.90841472  0.95656597  1  -0.199177  0  -0.003387  -0.114554  0  3.858086  0
C  C64  1  0.60944780  0.64789958  0.02116786  1  -0.025838  0  -0.055573  -0.127776  0  3.855533  0
C  C65  1  0.55123191  0.59264610  0.03281737  1  -0.007636  0  -0.05525  -0.127425  0  3.852683  0
C  C66  1  0.33428594  0.17677649  0.69412411  1  0.310503  0  0.009644  -0.045614  0  3.925409  0
C  C67  1  0.29623866  0.17751563  0.75699572  1  -0.479164  0  -0.002538  -0.112927  0  3.85529  0
C  C68  1  0.28050656  0.17558627  0.41542637  1  -0.396778  0  0.006845  -0.046781  0  3.92864  0
C  C69  1  0.23055462  0.17470229  0.36064417  1  0.256111  0  -0.009498  -0.123157  0  3.855061  0
C  C70  1  0.92578795  0.05364998  0.70767389  1  0.269765  0  -0.007599  -0.120317  0  3.854799  0
C  C71  1  0.87644046  0.05270793  0.65240118  1  -0.428139  0  0.007725  -0.04553  0  3.927243  0
C  C72  1  0.87493638  0.06131877  0.31260633  1  0.307268  0  -0.003245  -0.113567  0  3.862073  0
C  C73  1  0.83397002  0.06106258  0.37353154  1  -0.473885  0  0.009504  -0.046492  0  3.927122  0
C  C74  1  0.60913741  0.11039020  0.55864960  1  0.017133  0  -0.05496  -0.125563  0  3.853921  0
C  C75  1  0.55227580  0.12464463  0.50220148  1  -0.036772  0  -0.055047  -0.128692  0  3.851234  0
N  N76  1  0.71949963  0.08453630  0.46219742  1  -1.13766  0  -0.295461  -0.394325  0  3.107451  0
N  N77  1  0.74244838  0.07862379  0.60496808  1  -1.129005  0  -0.296363  -0.392747  0  3.08274  0
N  N78  1  0.85203247  0.05054583  0.51168841  1  -1.106917  0  -0.291152  -0.385179  0  3.084281  0
N  N79  1  0.30989672  0.18168912  0.55578728  1  -1.095269  0  -0.292699  -0.387263  0  3.082976  0
N  N80  1  0.41640169  0.15278957  0.45898150  1  -1.108575  0  -0.297044  -0.395026  0  3.079037  0
N  N81  1  0.44510710  0.15250124  0.60132013  1  -1.152536  0  -0.294361  -0.391226  0  3.111383  0
N  N82  1  0.51505012  0.75427154  0.98688804  1  -1.148723  0  -0.294476  -0.392913  0  3.105297  0
N  N83  1  0.65894819  0.77783259  0.99096917  1  -1.106383  0  -0.296484  -0.393251  0  3.079011  0
N  N84  1  0.56805658  0.88306037  0.95450237  1  -1.127089  0  -0.290912  -0.383129  0  3.086863  0
N  N85  1  0.64763222  0.48944145  0.06941565  1  -1.132944  0  -0.293974  -0.391333  0  3.110927  0
N  N86  1  0.50502192  0.46002010  0.05976768  1  -1.132259  0  -0.296853  -0.393844  0  3.081305  0
N  N87  1  0.59884035  0.35767161  0.09740867  1  -1.105506  0  -0.291852  -0.386311  0  3.085025  0
N  N88  1  0.03681143  0.51625293  0.66717717  1  -1.145898  0  -0.299895  -0.398817  0  3.085316  0
N  N89  1  0.04505833  0.66236310  0.68103342  1  -1.145142  0  -0.292473  -0.390896  0  3.105764  0
N  N90  1  0.01206219  0.59080256  0.79633783  1  -1.118831  0  -0.291442  -0.384191  0  3.084445  0
N  N91  1  0.11671429  0.72621258  0.39875071  1  -1.13412  0  -0.297413  -0.393993  0  3.086868  0
N  N92  1  0.10337099  0.58065070  0.37861866  1  -1.104128  0  -0.293346  -0.390838  0  3.100807  0
N  N93  1  0.13836424  0.65654922  0.26675019  1  -1.078439  0  -0.291976  -0.386087  0  3.085162  0
O  O94  1  0.93997313  0.01030072  0.19319996  1  -1.147711  0  -0.324718  -0.585112  0  2.200513  0
O  O95  1  0.14174351  0.36421645  0.07899563  1  -1.150009  0  -0.321593  -0.584442  0  2.172138  0
O  O96  1  0.11695104  0.19602492  0.27544886  1  -1.149884  0  -0.320584  -0.584941  0  2.167257  0
O  O97  1  0.91611895  0.27599345  0.15138003  1  -1.150395  0  -0.325282  -0.586094  0  2.19728  0
O  O98  1  0.86885974  0.24634210  0.02175821  1  -1.150945  0  -0.354255  -0.606314  0  2.225953  0
O  O99  1  0.22592320  0.11869809  0.23060096  1  -1.151404  0  -0.358601  -0.608878  0  2.258978  0
O  O100  1  0.06634332  0.32748637  0.18499533  1  -1.150033  0  -0.358966  -0.610873  0  2.25457  0
O  O101  1  0.95939283  0.14204818  0.24600210  1  -1.153911  0  -0.353055  -0.607588  0  2.217718  0
O  O102  1  0.03963749  0.22269627  0.03785061  1  -1.200603  0  -0.788701  -1.157697  0  2.131898  0
O  O103  1  0.08342218  0.08557095  0.13141086  1  -1.198534  0  -0.788111  -1.157782  0  2.128483  0
O  O104  1  0.16601014  0.21190682  0.12191949  1  -1.240828  0  -0.692556  -1.079205  0  2.369748  0
O  O105  1  0.94255566  0.12098343  0.08483187  1  -1.241473  0  -0.691427  -1.080679  0  2.355574  0
O  O106  1  0.22863410  0.23009807  0.87467251  1  -1.159464  0  -0.326142  -0.587867  0  2.199042  0
O  O107  1  0.01121380  0.88187128  0.97996526  1  -1.150366  0  -0.322991  -0.586757  0  2.176533  0
O  O108  1  0.32161058  0.16257151  0.09832391  1  -1.149887  0  -0.320208  -0.58399  0  2.164026  0
O  O109  1  0.96138853  0.28219800  0.89552296  1  -1.156942  0  -0.326328  -0.587519  0  2.197212  0
O  O110  1  0.84425683  0.07571251  0.95588720  1  -1.151254  0  -0.322959  -0.58809  0  2.173444  0
O  O111  1  0.19762675  0.96523032  0.17439318  1  -1.155632  0  -0.32607  -0.587573  0  2.202622  0
O  O112  1  0.25090342  0.97310560  0.90939672  1  -1.157188  0  -0.325507  -0.585991  0  2.194522  0
O  O113  1  0.04183038  0.03799406  0.79103758  1  -1.148348  0  -0.32263  -0.587047  0  2.172355  0
O  O114  1  0.29746678  0.00176273  0.03937018  1  -1.148434  0  -0.352929  -0.606175  0  2.222274  0
O  O115  1  0.93497815  0.11957898  0.83349292  1  -1.149468  0  -0.359398  -0.609301  0  2.260574  0
O  O116  1  0.27833377  0.26689300  0.02657433  1  -1.142742  0  -0.358937  -0.610062  0  2.259411  0
O  O117  1  0.06970110  0.91531877  0.14851623  1  -1.149476  0  -0.353841  -0.606606  0  2.222584  0
O  O118  1  0.88466101  0.97420425  0.03269798  1  -1.152312  0  -0.359901  -0.611506  0  2.260259  0
O  O119  1  0.08959227  0.33155551  0.92061708  1  -1.15011  0  -0.352303  -0.606073  0  2.219587  0
O  O120  1  0.20895840  0.09843909  0.82169729  1  -1.151381  0  -0.353877  -0.608245  0  2.222149  0
O  O121  1  0.09164021  0.91600703  0.87649924  1  -1.14675  0  -0.359545  -0.612292  0  2.253004  0
O  O122  1  0.01837207  0.05421800  0.96488701  1  -1.197867  0  -0.788451  -1.158124  0  2.131772  0
O  O123  1  0.18256456  0.12196464  0.99231431  1  -1.199098  0  -0.7888  -1.157682  0  2.130292  0
O  O124  1  0.13699000  0.98267009  0.02376645  1  -1.247202  0  -0.691434  -1.081232  0  2.356867  0
O  O125  1  0.07858187  0.16930637  0.89576751  1  -1.25189  0  -0.691403  -1.0816  0  2.356406  0
