# generated using pymatgen
data_RbH3C7N2O7
_symmetry_space_group_name_H-M   'P 1'
_cell_length_a   7.33098511
_cell_length_b   7.70812039
_cell_length_c   16.90936279
_cell_angle_alpha   95.91126120
_cell_angle_beta   90.00086053
_cell_angle_gamma   89.99963266
_symmetry_Int_Tables_number   1
_chemical_formula_structural   RbH3C7N2O7
_chemical_formula_sum   'Rb4 H12 C28 N8 O28'
_cell_volume   950.43536354
_cell_formula_units_Z   4
loop_
 _symmetry_equiv_pos_site_id
 _symmetry_equiv_pos_as_xyz
  1  'x, y, z'
loop_
 _atom_site_type_symbol
 _atom_site_label
 _atom_site_symmetry_multiplicity
 _atom_site_fract_x
 _atom_site_fract_y
 _atom_site_fract_z
 _atom_site_occupancy
 _atom_site_hle17_bader_spin_density
 _atom_site_hle17_ddec_charge
 _atom_site_hle17_ddec_spin_density
 _atom_site_hle17_ddec_sum_bond_order
 _atom_site_hle17_magmom
 _atom_site_hse06_10hf_bader_spin_density
 _atom_site_hse06_10hf_ddec_charge
 _atom_site_hse06_10hf_ddec_spin_density
 _atom_site_hse06_10hf_ddec_sum_bond_order
 _atom_site_hse06_10hf_magmom
 _atom_site_hse06_bader_spin_density
 _atom_site_hse06_ddec_charge
 _atom_site_hse06_ddec_spin_density
 _atom_site_hse06_ddec_sum_bond_order
 _atom_site_hse06_magmom
 _atom_site_pbe_bader_spin_density
 _atom_site_pbe_cm5_charge
 _atom_site_pbe_ddec_charge
 _atom_site_pbe_ddec_spin_density
 _atom_site_pbe_ddec_sum_bond_order
 _atom_site_pbe_magmom
Rb  Rb0  1  0.84106321  0.38715357  0.79762546  1  0  0.944954  0  0.476194  0  0  0.891507  0  0.690241  0  0  0.907762  0  0.66579  0  0  0.805055  0.879548  0  0.707485  0
Rb  Rb1  1  0.34106251  0.61284599  0.70237227  1  0  0.94497  0  0.476145  0  0  0.891541  0  0.690161  0  0  0.907793  0  0.665718  0  0  0.805058  0.87958  0  0.707401  0
Rb  Rb2  1  0.15893643  0.61285361  0.20237382  1  0  0.944943  0  0.476191  0  0  0.891503  0  0.690217  0  0  0.907762  0  0.665781  0  0  0.80505  0.879538  0  0.70746  0
Rb  Rb3  1  0.65893304  0.38715467  0.29762674  1  0  0.944953  0  0.47617  0  0  0.891519  0  0.690175  0  0  0.907771  0  0.665754  0  0  0.805046  0.879555  0  0.707415  0
H  H4  1  0.41899785  0.30951165  0.03663974  1  0  0.147061  0  0.951098  0  0  0.150164  0  1.019312  0  0  0.15497  0  1.013054  0  0  0.129724  0.146653  0  1.023597  0
H  H5  1  0.91900362  0.69048759  0.46336212  1  0  0.14706  0  0.951149  0  0  0.150155  0  1.019343  0  0  0.15496  0  1.013085  0  0  0.129713  0.146635  0  1.023656  0
H  H6  1  0.58100724  0.69048255  0.96336253  1  0  0.147089  0  0.95109  0  0  0.150199  0  1.019284  0  0  0.155005  0  1.013022  0  0  0.129731  0.146679  0  1.023593  0
H  H7  1  0.08098510  0.30951440  0.53663872  1  0  0.147087  0  0.951168  0  0  0.150181  0  1.019402  0  0  0.154985  0  1.013142  0  0  0.129698  0.146673  0  1.023683  0
H  H8  1  0.18914985  0.01966140  0.82791673  1  0  0.135054  0  0.942289  0  0  0.135701  0  1.015809  0  0  0.141061  0  1.008666  0  0  0.127849  0.131809  0  1.020773  0
H  H9  1  0.68914493  0.98033239  0.67208213  1  0  0.135042  0  0.942244  0  0  0.13573  0  1.015738  0  0  0.14108  0  1.008606  0  0  0.127847  0.131839  0  1.020705  0
H  H10  1  0.81085796  0.98034575  0.17208078  1  0  0.135021  0  0.942214  0  0  0.135681  0  1.01572  0  0  0.141044  0  1.008573  0  0  0.127844  0.13179  0  1.020687  0
H  H11  1  0.31086152  0.01966439  0.32791849  1  0  0.135042  0  0.94225  0  0  0.13573  0  1.015747  0  0  0.141078  0  1.008616  0  0  0.127854  0.131838  0  1.020711  0
H  H12  1  0.08353046  0.65907800  0.99764320  1  0  0.386215  0  0.908843  0  0  0.356566  0  0.986218  0  0  0.370112  0  0.972686  0  0  0.299158  0.347099  0  0.995502  0
H  H13  1  0.58352532  0.34091753  0.50235209  1  0  0.386133  0  0.90886  0  0  0.356552  0  0.98615  0  0  0.370099  0  0.97262  0  0  0.299204  0.347085  0  0.995431  0
H  H14  1  0.91646099  0.34091613  0.00235493  1  0  0.386177  0  0.908802  0  0  0.356614  0  0.986056  0  0  0.37016  0  0.972524  0  0  0.299219  0.347146  0  0.995339  0
H  H15  1  0.41647158  0.65908314  0.49764810  1  0  0.386048  0  0.908947  0  0  0.356467  0  0.986249  0  0  0.370013  0  0.972721  0  0  0.299174  0.346999  0  0.995531  0
C  C16  1  0.09356934  0.73378224  0.89327894  1  0  0.657965  0  3.855132  0  0  0.609406  0  4.15545  0  0  0.643571  0  4.148431  0  0  0.209318  0.586272  0  4.159624  0
C  C17  1  0.59356423  0.26620010  0.60670993  1  0  0.65778  0  3.854678  0  0  0.609202  0  4.155075  0  0  0.643357  0  4.14808  0  0  0.209301  0.586068  0  4.159251  0
C  C18  1  0.90643302  0.26621828  0.10671237  1  0  0.657927  0  3.854899  0  0  0.60943  0  4.155198  0  0  0.643592  0  4.148173  0  0  0.209317  0.586294  0  4.159374  0
C  C19  1  0.40643813  0.73379134  0.39328394  1  0  0.657776  0  3.855078  0  0  0.60922  0  4.155415  0  0  0.643371  0  4.148416  0  0  0.209228  0.586085  0  4.159589  0
C  C20  1  0.17778468  0.89371572  0.93520810  1  0  -0.219109  0  3.715543  0  0  -0.198995  0  3.959969  0  0  -0.219175  0  3.984681  0  0  -0.033432  -0.186144  0  3.94328  0
C  C21  1  0.67778329  0.10627422  0.56479111  1  0  -0.219081  0  3.715648  0  0  -0.198911  0  3.959996  0  0  -0.219073  0  3.984691  0  0  -0.033495  -0.186063  0  3.943312  0
C  C22  1  0.82222723  0.10628102  0.06479073  1  0  -0.2192  0  3.715609  0  0  -0.199159  0  3.960067  0  0  -0.219326  0  3.984751  0  0  -0.033488  -0.186308  0  3.943383  0
C  C23  1  0.32221908  0.89372645  0.43520849  1  0  -0.219089  0  3.715561  0  0  -0.198937  0  3.959901  0  0  -0.219092  0  3.984585  0  0  -0.033485  -0.186083  0  3.943212  0
C  C24  1  0.20976311  0.90406259  0.02053765  1  0  0.360189  0  3.808721  0  0  0.335956  0  4.077655  0  0  0.358396  0  4.090573  0  0  0.12116  0.32112  0  4.068797  0
C  C25  1  0.70976117  0.09593369  0.47946154  1  0  0.360116  0  3.808714  0  0  0.335902  0  4.077602  0  0  0.358336  0  4.090525  0  0  0.121158  0.321064  0  4.068749  0
C  C26  1  0.79024334  0.09593933  0.97945904  1  0  0.360223  0  3.808727  0  0  0.336055  0  4.077569  0  0  0.358496  0  4.090482  0  0  0.121228  0.321218  0  4.068717  0
C  C27  1  0.29024255  0.90406569  0.52053919  1  0  0.360102  0  3.808669  0  0  0.335922  0  4.077505  0  0  0.358353  0  4.090428  0  0  0.121202  0.321083  0  4.068652  0
C  C28  1  0.29945845  0.06190656  0.05506255  1  0  -0.050703  0  3.616507  0  0  -0.061978  0  3.873009  0  0  -0.075853  0  3.895947  0  0  0.065164  -0.057942  0  3.854621  0
C  C29  1  0.79945919  0.93809063  0.44493844  1  0  -0.050663  0  3.616617  0  0  -0.062002  0  3.87308  0  0  -0.075884  0  3.896029  0  0  0.065162  -0.057989  0  3.854678  0
C  C30  1  0.70054527  0.93809412  0.94493764  1  0  -0.05071  0  3.616655  0  0  -0.062022  0  3.873151  0  0  -0.075906  0  3.896101  0  0  0.065175  -0.058006  0  3.854741  0
C  C31  1  0.20053908  0.06191136  0.55506239  1  0  -0.050642  0  3.616584  0  0  -0.06196  0  3.873039  0  0  -0.075841  0  3.895988  0  0  0.065147  -0.057937  0  3.854653  0
C  C32  1  0.34912721  0.19404958  0.00911757  1  0  -0.08078  0  3.691408  0  0  -0.124259  0  3.964274  0  0  -0.112365  0  3.976574  0  0  -0.058574  -0.131816  0  3.957336  0
C  C33  1  0.84913315  0.80594736  0.49088314  1  0  -0.080748  0  3.691349  0  0  -0.124178  0  3.964206  0  0  -0.112278  0  3.9765  0  0  -0.058513  -0.131744  0  3.957269  0
C  C34  1  0.65087652  0.80594583  0.99088002  1  0  -0.080705  0  3.691606  0  0  -0.124234  0  3.964454  0  0  -0.112331  0  3.976742  0  0  -0.058552  -0.131796  0  3.957513  0
C  C35  1  0.15085557  0.19404945  0.50911924  1  0  -0.080782  0  3.691489  0  0  -0.124287  0  3.964377  0  0  -0.112383  0  3.976665  0  0  -0.058505  -0.131849  0  3.957446  0
C  C36  1  0.30618854  0.17873250  0.92859051  1  0  0.051559  0  3.715909  0  0  0.037419  0  3.98253  0  0  0.026012  0  4.005367  0  0  0.070048  0.040239  0  3.964523  0
C  C37  1  0.80619211  0.82126074  0.57140908  1  0  0.051615  0  3.715995  0  0  0.037422  0  3.982697  0  0  0.026007  0  4.005523  0  0  0.070059  0.040246  0  3.964687  0
C  C38  1  0.69381791  0.82126680  0.07140548  1  0  0.051383  0  3.71623  0  0  0.037347  0  3.98264  0  0  0.025974  0  4.005493  0  0  0.070091  0.040231  0  3.964658  0
C  C39  1  0.19380480  0.17873737  0.42859336  1  0  0.051642  0  3.716074  0  0  0.03748  0  3.982697  0  0  0.026107  0  4.005545  0  0  0.070057  0.04033  0  3.964703  0
C  C40  1  0.21983165  0.02988258  0.89136457  1  0  -0.020594  0  3.670457  0  0  -0.065478  0  3.937294  0  0  -0.052899  0  3.949059  0  0  -0.052017  -0.073174  0  3.929396  0
C  C41  1  0.71983278  0.97010975  0.60863383  1  0  -0.020587  0  3.670558  0  0  -0.065506  0  3.937363  0  0  -0.052916  0  3.949128  0  0  -0.051971  -0.073202  0  3.929463  0
C  C42  1  0.78017207  0.97011674  0.10863260  1  0  -0.020408  0  3.670388  0  0  -0.065305  0  3.937138  0  0  -0.052719  0  3.948882  0  0  -0.051961  -0.072995  0  3.929224  0
C  C43  1  0.28017094  0.02989483  0.39136594  1  0  -0.020572  0  3.670544  0  0  -0.065501  0  3.937318  0  0  -0.052917  0  3.949094  0  0  -0.051957  -0.073191  0  3.929402  0
N  N44  1  0.34567052  0.08865570  0.13887071  1  0  0.491646  0  3.944686  0  0  0.542211  0  4.214582  0  0  0.563641  0  4.225935  0  0  0.051146  0.543881  0  4.181632  0
N  N45  1  0.84567398  0.91134260  0.36113182  1  0  0.491447  0  3.945059  0  0  0.542182  0  4.214755  0  0  0.563613  0  4.226111  0  0  0.051188  0.543934  0  4.181679  0
N  N46  1  0.65432365  0.91133714  0.86112855  1  0  0.491614  0  3.944976  0  0  0.542229  0  4.214806  0  0  0.563662  0  4.226163  0  0  0.051175  0.543981  0  4.181729  0
N  N47  1  0.15432156  0.08865811  0.63887015  1  0  0.491445  0  3.945113  0  0  0.542167  0  4.214823  0  0  0.563599  0  4.226182  0  0  0.051188  0.543876  0  4.181813  0
N  N48  1  0.35222200  0.31950535  0.88206189  1  0  0.4762  0  3.960953  0  0  0.526647  0  4.232763  0  0  0.548221  0  4.243367  0  0  0.045072  0.527046  0  4.202277  0
N  N49  1  0.85222404  0.68049291  0.61793941  1  0  0.47624  0  3.960976  0  0  0.526652  0  4.23284  0  0  0.548259  0  4.243401  0  0  0.045011  0.527044  0  4.202372  0
N  N50  1  0.64777763  0.68050575  0.11793816  1  0  0.476233  0  3.961143  0  0  0.526742  0  4.232756  0  0  0.548187  0  4.243535  0  0  0.044909  0.526925  0  4.202561  0
N  N51  1  0.14777423  0.31950390  0.38206298  1  0  0.476199  0  3.96098  0  0  0.52675  0  4.232626  0  0  0.548206  0  4.243387  0  0  0.045025  0.527049  0  4.202276  0
O  O52  1  0.06776806  0.71502895  0.82061462  1  0  -0.61842  0  1.966275  0  0  -0.58467  0  2.203626  0  0  -0.607004  0  2.195948  0  0  -0.401005  -0.569144  0  2.208379  0
O  O53  1  0.56775717  0.28495646  0.67939315  1  0  -0.618416  0  1.965436  0  0  -0.584604  0  2.202719  0  0  -0.606945  0  2.195058  0  0  -0.400963  -0.569078  0  2.207487  0
O  O54  1  0.93224385  0.28497576  0.17939225  1  0  -0.618558  0  1.965614  0  0  -0.584739  0  2.20278  0  0  -0.607133  0  2.195227  0  0  -0.401042  -0.569205  0  2.20753  0
O  O55  1  0.43223837  0.71503917  0.32061629  1  0  -0.618336  0  1.966093  0  0  -0.584571  0  2.203422  0  0  -0.606907  0  2.195762  0  0  -0.400922  -0.569044  0  2.208173  0
O  O56  1  0.04551698  0.61040041  0.93891684  1  0  -0.563653  0  2.074303  0  0  -0.513184  0  2.296331  0  0  -0.536171  0  2.283759  0  0  -0.354703  -0.497211  0  2.304583  0
O  O57  1  0.54551082  0.38958889  0.56108385  1  0  -0.563459  0  2.074412  0  0  -0.513133  0  2.296542  0  0  -0.536114  0  2.283978  0  0  -0.354728  -0.497136  0  2.304745  0
O  O58  1  0.95447856  0.38960028  0.06108394  1  0  -0.563487  0  2.074451  0  0  -0.513195  0  2.296531  0  0  -0.536172  0  2.283959  0  0  -0.35472  -0.49722  0  2.304783  0
O  O59  1  0.45449154  0.61040663  0.43891966  1  0  -0.56339  0  2.074278  0  0  -0.513025  0  2.296314  0  0  -0.536007  0  2.283752  0  0  -0.354665  -0.497047  0  2.304547  0
O  O60  1  0.30690953  0.97476292  0.18312647  1  0  -0.355663  0  1.776771  0  0  -0.347174  0  1.985351  0  0  -0.357078  0  1.980309  0  0  -0.154452  -0.346011  0  1.981244  0
O  O61  1  0.80690925  0.02523558  0.31687700  1  0  -0.35559  0  1.776858  0  0  -0.347181  0  1.985369  0  0  -0.357083  0  1.980333  0  0  -0.15453  -0.346051  0  1.981226  0
O  O62  1  0.69307919  0.02522728  0.81687090  1  0  -0.35566  0  1.776773  0  0  -0.347166  0  1.985327  0  0  -0.357074  0  1.980289  0  0  -0.154455  -0.346032  0  1.981185  0
O  O63  1  0.19308220  0.97476381  0.68312432  1  0  -0.35562  0  1.776962  0  0  -0.34719  0  1.985479  0  0  -0.357098  0  1.980446  0  0  -0.154521  -0.346041  0  1.981354  0
O  O64  1  0.42684784  0.22674116  0.16310739  1  0  -0.414143  0  1.802283  0  0  -0.410082  0  2.025517  0  0  -0.424091  0  2.022668  0  0  -0.184619  -0.406051  0  2.019834  0
O  O65  1  0.92685275  0.77326061  0.33689227  1  0  -0.414082  0  1.802382  0  0  -0.410075  0  2.025561  0  0  -0.424091  0  2.022718  0  0  -0.184604  -0.406073  0  2.019841  0
O  O66  1  0.57315180  0.77325424  0.83688903  1  0  -0.414139  0  1.802474  0  0  -0.410147  0  2.025778  0  0  -0.424163  0  2.02293  0  0  -0.184664  -0.406137  0  2.020043  0
O  O67  1  0.07314279  0.22674010  0.66310970  1  0  -0.414094  0  1.802413  0  0  -0.410105  0  2.025627  0  0  -0.424123  0  2.022785  0  0  -0.184639  -0.406089  0  2.019928  0
O  O68  1  0.47352502  0.42429715  0.90721956  1  0  -0.373062  0  1.782416  0  0  -0.364864  0  1.994334  0  0  -0.376232  0  1.989406  0  0  -0.145249  -0.362364  0  1.990603  0
O  O69  1  0.97352280  0.57569659  0.59277996  1  0  -0.373108  0  1.78236  0  0  -0.364872  0  1.994262  0  0  -0.37625  0  1.98932  0  0  -0.145253  -0.362373  0  1.990541  0
O  O70  1  0.52648553  0.57570352  0.09278004  1  0  -0.373061  0  1.78254  0  0  -0.364893  0  1.994416  0  0  -0.376215  0  1.989541  0  0  -0.145176  -0.362319  0  1.990779  0
O  O71  1  0.02647684  0.42430279  0.40722076  1  0  -0.373143  0  1.782414  0  0  -0.364969  0  1.99429  0  0  -0.376294  0  1.989408  0  0  -0.145292  -0.362434  0  1.990605  0
O  O72  1  0.26839311  0.32857828  0.81839155  1  0  -0.395772  0  1.813508  0  0  -0.393985  0  2.039367  0  0  -0.405611  0  2.03488  0  0  -0.172821  -0.391219  0  2.035384  0
O  O73  1  0.76840151  0.67141777  0.68160911  1  0  -0.395763  0  1.813523  0  0  -0.393945  0  2.03936  0  0  -0.405583  0  2.034856  0  0  -0.172786  -0.391183  0  2.035384  0
O  O74  1  0.73159288  0.67143419  0.18161211  1  0  -0.395759  0  1.813454  0  0  -0.394052  0  2.039306  0  0  -0.40563  0  2.034875  0  0  -0.172826  -0.391213  0  2.03541  0
O  O75  1  0.23159403  0.32858294  0.31839286  1  0  -0.395731  0  1.813426  0  0  -0.394011  0  2.039239  0  0  -0.405589  0  2.034798  0  0  -0.172791  -0.391213  0  2.035298  0
O  O76  1  0.15907799  0.77920494  0.05975526  1  0  -0.558948  0  2.083273  0  0  -0.520921  0  2.321482  0  0  -0.547269  0  2.320221  0  0  -0.366823  -0.502597  0  2.321708  0
O  O77  1  0.65907657  0.22079157  0.44024302  1  0  -0.558908  0  2.083308  0  0  -0.520909  0  2.321482  0  0  -0.547256  0  2.320229  0  0  -0.366855  -0.502591  0  2.32171  0
O  O78  1  0.84092574  0.22078915  0.94024110  1  0  -0.558927  0  2.083457  0  0  -0.520903  0  2.321562  0  0  -0.54725  0  2.3203  0  0  -0.366838  -0.502584  0  2.321791  0
O  O79  1  0.34092443  0.77921041  0.55975722  1  0  -0.558888  0  2.083355  0  0  -0.520876  0  2.321474  0  0  -0.547225  0  2.320224  0  0  -0.366861  -0.502557  0  2.321703  0
