# generated using pymatgen
data_Li2UH10C14(NO6)2
_symmetry_space_group_name_H-M   'P 1'
_cell_length_a   7.10987422
_cell_length_b   8.31042903
_cell_length_c   8.41665132
_cell_angle_alpha   83.56791575
_cell_angle_beta   71.43285161
_cell_angle_gamma   69.98630121
_symmetry_Int_Tables_number   1
_chemical_formula_structural   Li2UH10C14(NO6)2
_chemical_formula_sum   'Li2 U1 H10 C14 N2 O12'
_cell_volume   442.95143609
_cell_formula_units_Z   1
loop_
 _symmetry_equiv_pos_site_id
 _symmetry_equiv_pos_as_xyz
  1  'x, y, z'
loop_
 _atom_site_type_symbol
 _atom_site_label
 _atom_site_symmetry_multiplicity
 _atom_site_fract_x
 _atom_site_fract_y
 _atom_site_fract_z
 _atom_site_occupancy
 _atom_site_hle17_bader_spin_density
 _atom_site_hle17_ddec_charge
 _atom_site_hle17_ddec_spin_density
 _atom_site_hle17_ddec_sum_bond_order
 _atom_site_hle17_magmom
 _atom_site_hse06_10hf_bader_spin_density
 _atom_site_hse06_10hf_ddec_charge
 _atom_site_hse06_10hf_ddec_spin_density
 _atom_site_hse06_10hf_ddec_sum_bond_order
 _atom_site_hse06_10hf_magmom
 _atom_site_hse06_bader_spin_density
 _atom_site_hse06_ddec_charge
 _atom_site_hse06_ddec_spin_density
 _atom_site_hse06_ddec_sum_bond_order
 _atom_site_hse06_magmom
 _atom_site_pbe_bader_spin_density
 _atom_site_pbe_cm5_charge
 _atom_site_pbe_ddec_charge
 _atom_site_pbe_ddec_spin_density
 _atom_site_pbe_ddec_sum_bond_order
 _atom_site_pbe_magmom
Li  Li0  1  0.77295050  0.34971750  0.91154427  1  0  0.86335  0  0.39179  0  0  0.830303  0  0.48624  0  0  0.840463  0  0.46851  0  0  0.52187  0.822712  0  0.499341  0
Li  Li1  1  0.22705708  0.65028306  0.08845864  1  0  0.863319  0  0.391848  0  0  0.830283  0  0.486283  0  0  0.840442  0  0.468554  0  0  0.521882  0.8227  0  0.499381  0
U  U2  1  0.00000196  0.49999698  0.50000020  1  0  2.426295  0  4.096602  0  0  2.455351  0  4.771671  0  0  2.571271  0  4.733853  0  0  2.160564  2.374704  0  4.797808  0
H  H3  1  0.89167326  0.40404975  0.15934542  1  0  0.433157  0  0.849613  0  0  0.411779  0  0.897422  0  0  0.420015  0  0.884987  0  0  0.316234  0.405949  0  0.906292  0
H  H4  1  0.10832679  0.59595850  0.84065982  1  0  0.433101  0  0.849663  0  0  0.411738  0  0.897438  0  0  0.419972  0  0.885007  0  0  0.316211  0.405908  0  0.906306  0
H  H5  1  0.94574203  0.20969513  0.12955643  1  0  0.437439  0  0.861682  0  0  0.406654  0  0.926033  0  0  0.417088  0  0.910592  0  0  0.299882  0.399299  0  0.936903  0
H  H6  1  0.05425655  0.79031308  0.87044090  1  0  0.437382  0  0.861759  0  0  0.406538  0  0.926171  0  0  0.416967  0  0.910741  0  0  0.299846  0.399185  0  0.937038  0
H  H7  1  0.31165640  0.77043137  0.55488801  1  0  0.12651  0  0.93794  0  0  0.135656  0  0.997802  0  0  0.139292  0  0.995136  0  0  0.124506  0.133041  0  0.999894  0
H  H8  1  0.68833026  0.22958068  0.44511208  1  0  0.126442  0  0.937818  0  0  0.135635  0  0.997638  0  0  0.13927  0  0.994969  0  0  0.124508  0.13302  0  0.99973  0
H  H9  1  0.59082587  0.70948693  0.27632599  1  0  0.115745  0  0.92865  0  0  0.129055  0  0.97966  0  0  0.132158  0  0.977007  0  0  0.129104  0.126811  0  0.981732  0
H  H10  1  0.40914861  0.29051102  0.72367902  1  0  0.115754  0  0.92857  0  0  0.128983  0  0.979699  0  0  0.132095  0  0.977044  0  0  0.12904  0.126734  0  0.981767  0
H  H11  1  0.63937885  0.95980793  0.08548963  1  0  0.12852  0  0.928055  0  0  0.137315  0  0.987249  0  0  0.140988  0  0.985544  0  0  0.126295  0.134596  0  0.988678  0
H  H12  1  0.36062055  0.04017593  0.91450791  1  0  0.128527  0  0.928135  0  0  0.13732  0  0.98734  0  0  0.140974  0  0.985661  0  0  0.126291  0.1346  0  0.988763  0
C  C13  1  0.05010567  0.09581195  0.67563749  1  0  0.638071  0  3.925257  0  0  0.592991  0  4.227466  0  0  0.627265  0  4.218828  0  0  0.230243  0.569616  0  4.232476  0
C  C14  1  0.94990482  0.90419247  0.32436537  1  0  0.638117  0  3.925367  0  0  0.593188  0  4.227382  0  0  0.627463  0  4.218737  0  0  0.230376  0.569801  0  4.232417  0
C  C15  1  0.39642537  0.29776989  0.15408445  1  0  0.672499  0  3.901285  0  0  0.630154  0  4.194819  0  0  0.666056  0  4.181741  0  0  0.248208  0.605671  0  4.202825  0
C  C16  1  0.60359710  0.70222678  0.84590420  1  0  0.672497  0  3.900915  0  0  0.630174  0  4.194409  0  0  0.66608  0  4.181333  0  0  0.248268  0.605685  0  4.202424  0
C  C17  1  0.21515342  0.04285269  0.51094240  1  0  0.08888  0  3.780407  0  0  0.097201  0  4.029804  0  0  0.097933  0  4.050549  0  0  0.118623  0.096449  0  4.015961  0
C  C18  1  0.78485228  0.95714142  0.48905226  1  0  0.08898  0  3.780228  0  0  0.09713  0  4.029818  0  0  0.097861  0  4.050558  0  0  0.118597  0.09638  0  4.015983  0
C  C19  1  0.33791050  0.87334782  0.46774970  1  0  -0.083199  0  3.636342  0  0  -0.110971  0  3.890158  0  0  -0.113894  0  3.908161  0  0  -0.0538  -0.108952  0  3.878044  0
C  C20  1  0.66208327  0.12665015  0.53225129  1  0  -0.083103  0  3.636013  0  0  -0.110847  0  3.889851  0  0  -0.113763  0  3.907859  0  0  -0.053774  -0.108832  0  3.877736  0
C  C21  1  0.49208089  0.84018136  0.31264925  1  0  0.030948  0  3.625165  0  0  0.010691  0  3.881929  0  0  0.014121  0  3.895796  0  0  -0.037399  0.008461  0  3.87251  0
C  C22  1  0.50790847  0.15981278  0.68735693  1  0  0.030834  0  3.625336  0  0  0.010602  0  3.882148  0  0  0.014036  0  3.895984  0  0  -0.037416  0.008379  0  3.872718  0
C  C23  1  0.51833917  0.97711674  0.20626758  1  0  -0.072189  0  3.629767  0  0  -0.098848  0  3.879797  0  0  -0.101075  0  3.896732  0  0  -0.049176  -0.09746  0  3.868697  0
C  C24  1  0.48164668  0.02288244  0.79372471  1  0  -0.072139  0  3.629911  0  0  -0.098792  0  3.879934  0  0  -0.100997  0  3.896873  0  0  -0.049144  -0.097401  0  3.868823  0
C  C25  1  0.38544731  0.14194175  0.25833654  1  0  0.098747  0  3.757542  0  0  0.10841  0  4.000714  0  0  0.10924  0  4.019837  0  0  0.126579  0.107624  0  3.98792  0
C  C26  1  0.61455628  0.85806135  0.74166358  1  0  0.098703  0  3.757547  0  0  0.108381  0  4.000691  0  0  0.109209  0  4.01981  0  0  0.126561  0.107598  0  3.987906  0
N  N27  1  0.23757767  0.17493464  0.40770017  1  0  -0.384581  0  3.290503  0  0  -0.365558  0  3.564889  0  0  -0.386245  0  3.594807  0  0  -0.333521  -0.351135  0  3.544334  0
N  N28  1  0.76242203  0.82506332  0.59229803  1  0  -0.384653  0  3.290508  0  0  -0.365603  0  3.564955  0  0  -0.38629  0  3.594875  0  0  -0.333515  -0.351183  0  3.544409  0
O  O29  1  0.18974025  0.52084049  0.59249490  1  0  -0.722715  0  1.582943  0  0  -0.722404  0  1.876023  0  0  -0.74361  0  1.860587  0  0  -0.74412  -0.709611  0  1.887148  0
O  O30  1  0.81026487  0.47915882  0.40751238  1  0  -0.722725  0  1.583089  0  0  -0.722422  0  1.876216  0  0  -0.743622  0  1.860776  0  0  -0.744219  -0.709632  0  1.887341  0
O  O31  1  0.92547151  0.32225525  0.07162542  1  0  -0.8913  0  1.710952  0  0  -0.848281  0  1.849507  0  0  -0.862589  0  1.819735  0  0  -0.645774  -0.838259  0  1.870442  0
O  O32  1  0.07452849  0.67775683  0.92837701  1  0  -0.891215  0  1.711066  0  0  -0.848128  0  1.849764  0  0  -0.862432  0  1.819996  0  0  -0.645716  -0.838103  0  1.870698  0
O  O33  1  0.96107608  0.26056779  0.69057989  1  0  -0.737309  0  2.115997  0  0  -0.715411  0  2.393017  0  0  -0.749393  0  2.388121  0  0  -0.421198  -0.690932  0  2.395162  0
O  O34  1  0.03894035  0.73943659  0.30941425  1  0  -0.737381  0  2.115902  0  0  -0.715517  0  2.392841  0  0  -0.749498  0  2.387941  0  0  -0.421263  -0.691038  0  2.395002  0
O  O35  1  0.00508869  0.99134729  0.78643125  1  0  -0.565658  0  1.954598  0  0  -0.522629  0  2.174541  0  0  -0.545965  0  2.166193  0  0  -0.271436  -0.506043  0  2.17968  0
O  O36  1  0.99489756  0.00865835  0.21356970  1  0  -0.565679  0  1.954759  0  0  -0.522693  0  2.174636  0  0  -0.546033  0  2.166285  0  0  -0.271458  -0.506099  0  2.179783  0
O  O37  1  0.26027830  0.43916538  0.22362773  1  0  -0.741263  0  2.116599  0  0  -0.717724  0  2.38603  0  0  -0.750755  0  2.378273  0  0  -0.414081  -0.693907  0  2.390108  0
O  O38  1  0.73973572  0.56083391  0.77637358  1  0  -0.741209  0  2.116858  0  0  -0.717662  0  2.386257  0  0  -0.750689  0  2.378502  0  0  -0.414078  -0.693842  0  2.390331  0
O  O39  1  0.52750985  0.28729132  0.01300309  1  0  -0.648691  0  1.962203  0  0  -0.615951  0  2.195784  0  0  -0.636633  0  2.181786  0  0  -0.351243  -0.601181  0  2.204933  0
O  O40  1  0.47247895  0.71270797  0.98700740  1  0  -0.648809  0  1.961539  0  0  -0.61609  0  2.195136  0  0  -0.636775  0  2.181139  0  0  -0.351356  -0.601314  0  2.204286  0
