# generated using pymatgen
data_LiSi2BPH43C21O2
_symmetry_space_group_name_H-M   'P 1'
_cell_length_a   6.07354122
_cell_length_b   10.76452482
_cell_length_c   19.48782044
_cell_angle_alpha   96.04563735
_cell_angle_beta   95.82189439
_cell_angle_gamma   100.44467107
_symmetry_Int_Tables_number   1
_chemical_formula_structural   LiSi2BPH43C21O2
_chemical_formula_sum   'Li2 Si4 B2 P2 H86 C42 O4'
_cell_volume   1236.51086477
_cell_formula_units_Z   2
loop_
 _symmetry_equiv_pos_site_id
 _symmetry_equiv_pos_as_xyz
  1  'x, y, z'
loop_
 _atom_site_type_symbol
 _atom_site_label
 _atom_site_symmetry_multiplicity
 _atom_site_fract_x
 _atom_site_fract_y
 _atom_site_fract_z
 _atom_site_occupancy
 _atom_site_pbe_bader_spin_density
 _atom_site_pbe_cm5_charge
 _atom_site_pbe_ddec_charge
 _atom_site_pbe_ddec_spin_density
 _atom_site_pbe_ddec_sum_bond_order
 _atom_site_pbe_magmom
Li  Li0  1  0.21516355  0.13061477  0.23802378  1  0  0.411466  0.694994  0  0.658769  0
Li  Li1  1  0.78485011  0.86939162  0.76198155  1  0  0.411469  0.695081  0  0.658592  0
Si  Si2  1  0.82251884  0.58421426  0.27849869  1  0  0.113259  1.015852  0  3.773596  0
Si  Si3  1  0.17745794  0.41577791  0.72149818  1  0  0.113252  1.015924  0  3.773581  0
Si  Si4  1  0.61100054  0.43867821  0.12829625  1  0  0.121045  1.028871  0  3.748273  0
Si  Si5  1  0.38899612  0.56131490  0.87169707  1  0  0.121079  1.02901  0  3.748404  0
B  B6  1  0.88534959  0.21602559  0.22424351  1  0  -0.543263  -0.303739  0  3.961767  0
B  B7  1  0.11465888  0.78397225  0.77575346  1  0  -0.54323  -0.303732  0  3.961782  0
P  P8  1  0.62032829  0.27856886  0.25088924  1  0  0.000698  0.082132  0  3.762928  0
P  P9  1  0.37968086  0.72142136  0.74910779  1  0  0.000657  0.082061  0  3.763092  0
H  H10  1  0.06802507  0.28499977  0.24736915  1  0  0.030731  -0.136523  0  1.1854  0
H  H11  1  0.93198714  0.71499523  0.75262466  1  0  0.030757  -0.136518  0  1.185385  0
H  H12  1  0.87292892  0.11191346  0.24583099  1  0  0.035962  -0.111046  0  1.121903  0
H  H13  1  0.12708186  0.88808629  0.75416616  1  0  0.035939  -0.111097  0  1.121906  0
H  H14  1  0.86829491  0.19991537  0.16084997  1  0  0.036633  -0.084558  0  1.113773  0
H  H15  1  0.13170690  0.80007773  0.83914604  1  0  0.036592  -0.084588  0  1.113783  0
H  H16  1  0.45188745  0.46081429  0.23491992  1  0  0.107012  0.153678  0  1.066775  0
H  H17  1  0.54809121  0.53917884  0.76507552  1  0  0.107008  0.153648  0  1.066869  0
H  H18  1  0.84253968  0.71294929  0.39230931  1  0  0.082309  0.144795  0  1.067628  0
H  H19  1  0.15741753  0.28704961  0.60768185  1  0  0.082385  0.144893  0  1.067553  0
H  H20  1  0.83501580  0.55080364  0.40471057  1  0  0.089765  0.17045  0  1.047697  0
H  H21  1  0.16494869  0.44919997  0.59529030  1  0  0.089791  0.17049  0  1.047606  0
H  H22  1  0.58370361  0.60121130  0.37563759  1  0  0.085853  0.157211  0  1.060159  0
H  H23  1  0.41624833  0.39877615  0.62435786  1  0  0.085826  0.157216  0  1.060114  0
H  H24  1  0.18826563  0.58459620  0.23001891  1  0  0.088984  0.158915  0  1.05134  0
H  H25  1  0.81172565  0.41540735  0.76998723  1  0  0.088996  0.158915  0  1.051339  0
H  H26  1  0.14865621  0.47417734  0.29103986  1  0  0.09185  0.175221  0  1.05212  0
H  H27  1  0.85132494  0.52580815  0.70895773  1  0  0.091866  0.175183  0  1.052045  0
H  H28  1  0.23290157  0.64011346  0.32035576  1  0  0.086825  0.153463  0  1.053431  0
H  H29  1  0.76706021  0.35986631  0.67965230  1  0  0.086834  0.153413  0  1.053532  0
H  H30  1  0.89766515  0.81845243  0.27290561  1  0  0.094319  0.172914  0  1.024907  0
H  H31  1  0.10234438  0.18154350  0.72709230  1  0  0.094301  0.172896  0  1.024982  0
H  H32  1  0.61862297  0.74927075  0.23433494  1  0  0.085846  0.153238  0  1.060307  0
H  H33  1  0.38138317  0.25073852  0.76566679  1  0  0.085854  0.153284  0  1.060307  0
H  H34  1  0.85109753  0.73385308  0.18813117  1  0  0.087774  0.152384  0  1.066172  0
H  H35  1  0.14889389  0.26614764  0.81186762  1  0  0.087788  0.152426  0  1.066208  0
H  H36  1  0.88802911  0.42838285  0.04257747  1  0  0.088171  0.161682  0  1.035068  0
H  H37  1  0.11200508  0.57161588  0.95742840  1  0  0.088142  0.161655  0  1.03506  0
H  H38  1  0.99646046  0.39021569  0.12433070  1  0  0.097149  0.184602  0  1.027789  0
H  H39  1  0.00355143  0.60978117  0.87567245  1  0  0.097173  0.184672  0  1.027724  0
H  H40  1  0.99508017  0.55138847  0.11186493  1  0  0.083433  0.143179  0  1.076534  0
H  H41  1  0.00492940  0.44860649  0.88813805  1  0  0.083442  0.143212  0  1.076572  0
H  H42  1  0.39400531  0.29260320  0.02807159  1  0  0.085762  0.151887  0  1.062291  0
H  H43  1  0.60598988  0.70738514  0.97192396  1  0  0.085756  0.151928  0  1.062317  0
H  H44  1  0.26531010  0.26587661  0.10486673  1  0  0.096225  0.16353  0  1.054757  0
H  H45  1  0.73468480  0.73409172  0.89512860  1  0  0.096281  0.163574  0  1.05473  0
H  H46  1  0.51208063  0.20505356  0.09028905  1  0  0.091564  0.164518  0  1.060401  0
H  H47  1  0.48794979  0.79493188  0.90970513  1  0  0.091565  0.164501  0  1.060477  0
H  H48  1  0.38188948  0.54292618  0.04669900  1  0  0.090841  0.164894  0  1.040231  0
H  H49  1  0.61810762  0.45705835  0.95329534  1  0  0.090876  0.164975  0  1.040177  0
H  H50  1  0.61509499  0.65609579  0.09155325  1  0  0.084576  0.149718  0  1.061766  0
H  H51  1  0.38489557  0.34388874  0.90844195  1  0  0.084565  0.149708  0  1.061903  0
H  H52  1  0.37297213  0.60871056  0.13328139  1  0  0.084346  0.151227  0  1.066934  0
H  H53  1  0.62700938  0.39127209  0.86671194  1  0  0.084371  0.151192  0  1.067077  0
H  H54  1  0.33057835  0.35849135  0.35062493  1  0  0.10053  0.085004  0  1.050534  0
H  H55  1  0.66946523  0.64151215  0.64937377  1  0  0.100621  0.085166  0  1.05039  0
H  H56  1  0.36374015  0.39112249  0.47918796  1  0  0.096267  0.093344  0  1.039317  0
H  H57  1  0.63631962  0.60887430  0.52081534  1  0  0.096218  0.093249  0  1.039305  0
H  H58  1  0.70575028  0.35339600  0.54969548  1  0  0.096132  0.092999  0  1.023289  0
H  H59  1  0.29430334  0.64659416  0.45030007  1  0  0.096166  0.092989  0  1.023253  0
H  H60  1  0.01048694  0.27882013  0.48986813  1  0  0.093513  0.084039  0  1.046039  0
H  H61  1  0.98957599  0.72117764  0.51012864  1  0  0.093555  0.084148  0  1.045751  0
H  H62  1  0.97925634  0.25022793  0.36078270  1  0  0.102676  0.095279  0  1.052721  0
H  H63  1  0.02079440  0.74978321  0.63921048  1  0  0.102621  0.095346  0  1.052576  0
H  H64  1  0.01193687  0.03437017  0.38246998  1  0  0.102339  0.067773  0  0.997929  0
H  H65  1  0.98807159  0.96564383  0.61754133  1  0  0.102329  0.067765  0  0.99798  0
H  H66  1  0.28329704  0.12852056  0.41609989  1  0  0.094015  0.060722  0  1.021958  0
H  H67  1  0.71671690  0.87149437  0.58391418  1  0  0.094045  0.060814  0  1.021984  0
H  H68  1  0.14093857  0.83794594  0.40147081  1  0  0.09101  0.086115  0  1.023899  0
H  H69  1  0.85905599  0.16206335  0.59853063  1  0  0.090986  0.086113  0  1.023908  0
H  H70  1  0.29738770  0.94004350  0.47430896  1  0  0.094444  0.096382  0  1.013521  0
H  H71  1  0.70260355  0.05996006  0.52569667  1  0  0.094486  0.096443  0  1.013484  0
H  H72  1  0.62680440  0.98655040  0.41092683  1  0  0.089931  0.084695  0  1.011449  0
H  H73  1  0.37319027  0.01346267  0.58908101  1  0  0.089927  0.084696  0  1.011285  0
H  H74  1  0.52746876  0.82120974  0.38317585  1  0  0.095128  0.097569  0  1.018082  0
H  H75  1  0.47253464  0.17881000  0.61682954  1  0  0.095021  0.097454  0  1.018058  0
H  H76  1  0.56609733  0.99758791  0.28822464  1  0  0.107394  0.07468  0  1.008285  0
H  H77  1  0.43390086  0.00244041  0.71178217  1  0  0.107465  0.07489  0  1.008228  0
H  H78  1  0.34017834  0.86145982  0.27470765  1  0  0.09802  0.05906  0  1.001432  0
H  H79  1  0.65982635  0.13856850  0.72529779  1  0  0.098161  0.059334  0  1.001478  0
H  H80  1  0.42747822  0.87831680  0.15993154  1  0  0.093257  0.050139  0  1.009939  0
H  H81  1  0.57250747  0.12168300  0.84006089  1  0  0.09319  0.050058  0  1.010049  0
H  H82  1  0.53200350  0.03648455  0.14239880  1  0  0.108375  0.071715  0  1.039339  0
H  H83  1  0.46798415  0.96350668  0.85759315  1  0  0.108351  0.071726  0  1.039426  0
H  H84  1  0.40426392  0.84031943  0.03390773  1  0  0.096781  0.103749  0  1.004537  0
H  H85  1  0.59569420  0.15967183  0.96608658  1  0  0.096715  0.103696  0  1.004562  0
H  H86  1  0.32816818  0.99045099  0.02457887  1  0  0.094102  0.09025  0  1.01183  0
H  H87  1  0.67178949  0.00954312  0.97541868  1  0  0.094145  0.090358  0  1.011686  0
H  H88  1  0.04064041  0.75944984  0.07393698  1  0  0.090795  0.088642  0  1.001261  0
H  H89  1  0.95932581  0.24055757  0.92606981  1  0  0.090814  0.088671  0  1.001208  0
H  H90  1  0.95846553  0.84453979  0.00551559  1  0  0.096751  0.100578  0  1.016132  0
H  H91  1  0.04148183  0.15546098  0.99449033  1  0  0.096786  0.100589  0  1.016305  0
H  H92  1  0.94081889  0.03028647  0.08618186  1  0  0.098826  0.062154  0  1.006778  0
H  H93  1  0.05918645  0.96972946  0.91382283  1  0  0.098835  0.062187  0  1.006567  0
H  H94  1  0.85985000  0.90877283  0.13933780  1  0  0.104509  0.07055  0  1.010552  0
H  H95  1  0.14013652  0.09124501  0.86067167  1  0  0.104498  0.070589  0  1.010523  0
C  C96  1  0.62112343  0.44290894  0.22623293  1  0  -0.170765  -0.731266  0  3.750534  0
C  C97  1  0.37885891  0.55708611  0.77375861  1  0  -0.170759  -0.731297  0  3.75075  0
C  C98  1  0.76499090  0.61395462  0.37152650  1  0  -0.30159  -0.743171  0  3.838153  0
C  C99  1  0.23496733  0.38604140  0.62846964  1  0  -0.301667  -0.743355  0  3.838116  0
C  C100  1  0.12637705  0.56923899  0.28006659  1  0  -0.291729  -0.724462  0  3.801756  0
C  C101  1  0.87359977  0.43074745  0.71993506  1  0  -0.291762  -0.724418  0  3.801835  0
C  C102  1  0.79385690  0.73504638  0.23978819  1  0  -0.296456  -0.737086  0  3.822371  0
C  C103  1  0.20614021  0.26495147  0.76021159  1  0  -0.296433  -0.737141  0  3.822469  0
C  C104  1  0.89957419  0.45328972  0.09921387  1  0  -0.293831  -0.73378  0  3.81473  0
C  C105  1  0.10043340  0.54670430  0.90078901  1  0  -0.293817  -0.733826  0  3.814606  0
C  C106  1  0.42755471  0.28561765  0.08389606  1  0  -0.295759  -0.752034  0  3.844472  0
C  C107  1  0.57244815  0.71436400  0.91610030  1  0  -0.295801  -0.752162  0  3.844778  0
C  C108  1  0.48370134  0.57463692  0.09749644  1  0  -0.297601  -0.734655  0  3.826767  0
C  C109  1  0.51628687  0.42535048  0.90249836  1  0  -0.297675  -0.734745  0  3.827059  0
C  C110  1  0.65472147  0.30386495  0.34631098  1  0  -0.013848  -0.015475  0  3.957223  0
C  C111  1  0.34531754  0.69614048  0.65368413  1  0  -0.013917  -0.015495  0  3.957487  0
C  C112  1  0.48098896  0.34162311  0.38106970  1  0  -0.083467  -0.105842  0  3.987373  0
C  C113  1  0.51904843  0.65837756  0.61892559  1  0  -0.083535  -0.10614  0  3.987596  0
C  C114  1  0.49846165  0.35925079  0.45343544  1  0  -0.097017  -0.097279  0  4.031309  0
C  C115  1  0.50159433  0.64074603  0.54656110  1  0  -0.096952  -0.097015  0  4.031158  0
C  C116  1  0.69006660  0.33782136  0.49304941  1  0  -0.099822  -0.099122  0  4.026871  0
C  C117  1  0.30999067  0.66217451  0.50694659  1  0  -0.099736  -0.099028  0  4.026633  0
C  C118  1  0.86114107  0.29662861  0.45941338  1  0  -0.09923  -0.098197  0  4.048937  0
C  C119  1  0.13892153  0.70336820  0.54058332  1  0  -0.099389  -0.0985  0  4.048668  0
C  C120  1  0.84362118  0.28010248  0.38683056  1  0  -0.089591  -0.110481  0  3.965981  0
C  C121  1  0.15643266  0.71991246  0.61316448  1  0  -0.089513  -0.110406  0  3.965944  0
C  C122  1  0.19449017  0.03726009  0.38661075  1  0  -0.068734  0.046489  0  3.856984  0
C  C123  1  0.80551704  0.96275485  0.61340162  1  0  -0.068788  0.046318  0  3.857157  0
C  C124  1  0.26854301  0.92526911  0.41734862  1  0  -0.168183  -0.188301  0  3.945414  0
C  C125  1  0.73145015  0.07474016  0.58265638  1  0  -0.168188  -0.188331  0  3.945289  0
C  C126  1  0.48291853  0.91548775  0.38362952  1  0  -0.165436  -0.182414  0  3.925227  0
C  C127  1  0.51708217  0.08452914  0.61637511  1  0  -0.165303  -0.182202  0  3.925001  0
C  C128  1  0.42156204  0.94727306  0.31057405  1  0  -0.06545  0.034018  0  3.855304  0
C  C129  1  0.57844111  0.05275049  0.68943259  1  0  -0.065733  0.033303  0  3.855957  0
C  C130  1  0.38726157  0.95666331  0.13174468  1  0  -0.066108  0.029899  0  3.874756  0
C  C131  1  0.61271885  0.04333457  0.86825264  1  0  -0.066106  0.029753  0  3.874935  0
C  C132  1  0.31001869  0.90995934  0.05525003  1  0  -0.168486  -0.188592  0  3.936598  0
C  C133  1  0.68994773  0.09003570  0.94474985  1  0  -0.16834  -0.188338  0  3.936251  0
C  C134  1  0.05994089  0.85426898  0.05631131  1  0  -0.165973  -0.18601  0  3.934475  0
C  C135  1  0.94001468  0.14573654  0.94369408  1  0  -0.166129  -0.186214  0  3.934432  0
C  C136  1  0.99325807  0.95001997  0.10974997  1  0  -0.066657  0.036959  0  3.856869  0
C  C137  1  0.00672467  0.04999217  0.89025701  1  0  -0.066624  0.036977  0  3.856689  0
O  O138  1  0.25791930  0.02999780  0.31667286  1  0  -0.29149  -0.328496  0  2.504471  0
O  O139  1  0.74207943  0.97002193  0.68333651  1  0  -0.291412  -0.328267  0  2.504666  0
O  O140  1  0.19558566  0.99990092  0.15845325  1  0  -0.29671  -0.319664  0  2.50026  0
O  O141  1  0.80440731  0.00009884  0.84154860  1  0  -0.296686  -0.319633  0  2.50034  0
