# generated using pymatgen
data_Mn3H8(C6O5)4
_symmetry_space_group_name_H-M   'P 1'
_cell_length_a   9.26226006
_cell_length_b   9.82596449
_cell_length_c   11.12601172
_cell_angle_alpha   73.86799761
_cell_angle_beta   87.46903916
_cell_angle_gamma   82.07905826
_symmetry_Int_Tables_number   1
_chemical_formula_structural   Mn3H8(C6O5)4
_chemical_formula_sum   'Mn3 H8 C24 O20'
_cell_volume   963.41513825
_cell_formula_units_Z   1
loop_
 _symmetry_equiv_pos_site_id
 _symmetry_equiv_pos_as_xyz
  1  'x, y, z'
loop_
 _atom_site_type_symbol
 _atom_site_label
 _atom_site_symmetry_multiplicity
 _atom_site_fract_x
 _atom_site_fract_y
 _atom_site_fract_z
 _atom_site_occupancy
 _atom_site_pbe_bader_charge
 _atom_site_pbe_bader_spin_density
 _atom_site_pbe_cm5_charge
 _atom_site_pbe_ddec_charge
 _atom_site_pbe_ddec_spin_density
 _atom_site_pbe_ddec_sum_bond_order
 _atom_site_pbe_magmom
Mn  Mn0  1  0.02117889  0.08319411  0.16072318  1  1.699699  3.980072  0.755142  1.181455  4.092826  2.602407  3.952
Mn  Mn1  1  0.97882613  0.91679658  0.83927030  1  1.699517  3.979928  0.755111  1.181434  4.092683  2.602558  3.951
Mn  Mn2  1  0.99999419  0.00000251  0.50000675  1  1.744652  3.872698  0.765055  1.244798  3.984505  2.683063  3.856
H  H3  1  0.13715386  0.42934845  0.47912237  1  0.132987  0.000103  0.116912  0.142115  -5e-05  1.002189  0.0
H  H4  1  0.14046859  0.71498677  0.36636036  1  0.157061  0.000167  0.12056  0.153807  -0.000403  1.003597  0.0
H  H5  1  0.25832501  0.21059084  0.48835951  1  0.144039  0.000345  0.114072  0.141739  -0.000163  1.038931  0.0
H  H6  1  0.54981628  0.23570535  0.44283067  1  0.119846  0.00021  0.125008  0.155132  -1.6e-05  0.964982  0.0
H  H7  1  0.86284061  0.57067319  0.52087528  1  0.133202  0.000103  0.116863  0.142046  -5e-05  1.002321  0.0
H  H8  1  0.85952368  0.28503140  0.63361663  1  0.156673  0.000168  0.120554  0.153787  -0.000403  1.003555  0.0
H  H9  1  0.74167365  0.78939765  0.51164454  1  0.143976  0.000345  0.11412  0.141755  -0.000163  1.038906  0.0
H  H10  1  0.45018451  0.76429066  0.55716786  1  0.119811  0.00021  0.124991  0.155124  -1.6e-05  0.965006  0.0
C  C11  1  0.01423869  0.28872079  0.30781256  1  1.605338  0.020743  0.244317  0.572591  0.018622  4.179838  0.019
C  C12  1  0.03914306  0.43476107  0.30105974  1  0.369343  0.003621  0.07862  0.079051  0.001023  3.920644  0.0
C  C13  1  0.10020785  0.48922700  0.38603293  1  0.070456  0.004467  -0.09542  -0.169995  0.003604  3.990665  0.002
C  C14  1  0.10326524  0.63618971  0.32759404  1  -0.044472  0.01095  -0.090945  -0.155341  0.00826  3.940285  0.006
C  C15  1  0.04413945  0.66254355  0.21016941  1  0.445496  -0.001689  0.083545  0.082994  -0.004142  3.910931  -0.004
C  C16  1  0.02037914  0.79526979  0.10869168  1  1.585908  0.033625  0.249301  0.583144  0.031886  4.178677  0.029
C  C17  1  0.21710207  0.99732784  0.73162514  1  1.540557  0.013856  0.214917  0.537399  0.014366  4.216537  0.011
C  C18  1  0.34227305  0.05576220  0.66115341  1  0.419807  0.00457  0.079147  0.092777  0.002553  3.921273  0.001
C  C19  1  0.35065708  0.15678533  0.54742725  1  0.008159  0.003579  -0.099411  -0.17543  0.002657  3.979418  0.002
C  C20  1  0.50024331  0.16900204  0.52420440  1  0.061471  0.00627  -0.095886  -0.165875  0.004989  3.976248  0.004
C  C21  1  0.57435262  0.07424042  0.62509512  1  0.37668  0.000818  0.076408  0.077531  -0.000716  3.934177  -0.001
C  C22  1  0.73101142  0.03005159  0.64718230  1  1.586563  0.019316  0.234532  0.562583  0.018346  4.208581  0.018
C  C23  1  0.98576461  0.71127858  0.69219407  1  1.605381  0.020743  0.244381  0.572673  0.018622  4.17953  0.019
C  C24  1  0.96085214  0.56524236  0.69894155  1  0.369497  0.003619  0.07859  0.078919  0.001023  3.920672  0.0
C  C25  1  0.89978701  0.51078603  0.61396238  1  0.070313  0.00447  -0.09539  -0.169934  0.003606  3.99104  0.002
C  C26  1  0.89672802  0.36382106  0.67239288  1  -0.044556  0.010947  -0.090929  -0.155268  0.008258  3.940519  0.006
C  C27  1  0.95585156  0.33746073  0.78982006  1  0.44559  -0.001687  0.083436  0.082747  -0.00414  3.9112  -0.004
C  C28  1  0.97961009  0.20472584  0.89129550  1  1.586457  0.033619  0.249423  0.583452  0.03188  4.178692  0.029
C  C29  1  0.78290988  0.00266425  0.26838582  1  1.540736  0.013857  0.21492  0.537341  0.014368  4.216894  0.011
C  C30  1  0.65773100  0.94423933  0.33885267  1  0.419983  0.004567  0.079132  0.092689  0.002551  3.921286  0.001
C  C31  1  0.64934323  0.84321287  0.45257703  1  0.008114  0.00358  -0.099437  -0.175403  0.002658  3.979316  0.002
C  C32  1  0.49975745  0.83100044  0.47579701  1  0.061439  0.006266  -0.095899  -0.165921  0.004986  3.976431  0.004
C  C33  1  0.42565204  0.92576432  0.37490834  1  0.37642  0.000816  0.076378  0.077478  -0.000718  3.934439  -0.001
C  C34  1  0.26899193  0.96994776  0.35282253  1  1.586415  0.019311  0.234604  0.562539  0.018339  4.208812  0.018
O  O35  1  0.04016625  0.19804623  0.41509554  1  -1.148231  0.039257  -0.290094  -0.534461  0.024244  2.391293  0.01
O  O36  1  0.97344937  0.26443873  0.20915159  1  -1.120858  0.035129  -0.280466  -0.488998  0.018655  2.329067  0.005
O  O37  1  0.07678963  0.90030858  0.12583629  1  -1.146778  0.057627  -0.299228  -0.53942  0.03602  2.395892  0.02
O  O38  1  0.95031267  0.79565257  0.01309932  1  -1.114874  0.053525  -0.275611  -0.480073  0.033077  2.287264  0.016
O  O39  1  0.00484900  0.54009457  0.19300675  1  -1.018556  0.003737  -0.09133  -0.066207  0.00203  2.572171  0.003
O  O40  1  0.09235158  0.02499265  0.67271076  1  -1.167446  0.086915  -0.304076  -0.606117  0.069021  2.397842  0.048
O  O41  1  0.22432427  0.92689980  0.84469209  1  -1.125995  0.075703  -0.275567  -0.477075  0.056311  2.110722  0.053
O  O42  1  0.77521404  0.94538782  0.74987176  1  -1.146591  0.071604  -0.276051  -0.500292  0.052916  2.282706  0.041
O  O43  1  0.81161631  0.08428522  0.55221681  1  -1.137319  0.036632  -0.306267  -0.551423  0.020543  2.346285  0.007
O  O44  1  0.47850935  0.00616430  0.71029572  1  -1.024487  0.002579  -0.094623  -0.073995  0.001364  2.570717  0.001
O  O45  1  0.95983802  0.80195966  0.58491664  1  -1.14801  0.039273  -0.290149  -0.534532  0.024264  2.391341  0.01
O  O46  1  0.02656638  0.73555021  0.79085739  1  -1.120886  0.035132  -0.280455  -0.488983  0.018659  2.328934  0.005
O  O47  1  0.92319932  0.09969016  0.87414113  1  -1.14694  0.057608  -0.299144  -0.539435  0.036006  2.395724  0.02
O  O48  1  0.04967458  0.20434193  0.98688818  1  -1.115114  0.053544  -0.27572  -0.480235  0.033092  2.287475  0.016
O  O49  1  0.99514519  0.45990235  0.80699080  1  -1.018736  0.003736  -0.0913  -0.066057  0.002029  2.57223  0.003
O  O50  1  0.90765175  0.97499824  0.32730788  1  -1.167535  0.086935  -0.304056  -0.606069  0.069036  2.397908  0.048
O  O51  1  0.77569344  0.07309027  0.15531746  1  -1.126275  0.075706  -0.275577  -0.476998  0.056307  2.110843  0.053
O  O52  1  0.22478831  0.05459856  0.25012734  1  -1.146492  0.071581  -0.276155  -0.50036  0.0529  2.282817  0.041
O  O53  1  0.18838936  0.91572604  0.44779040  1  -1.137211  0.036613  -0.306223  -0.551301  0.020524  2.346184  0.007
O  O54  1  0.52149470  0.99383723  0.28971036  1  -1.024224  0.002579  -0.09463  -0.073905  0.001364  2.570785  0.001
