# generated using pymatgen
data_GdH22C24(NO4)2
_symmetry_space_group_name_H-M   'P 1'
_cell_length_a   9.68140989
_cell_length_b   17.11217125
_cell_length_c   19.83854065
_cell_angle_alpha   89.99985650
_cell_angle_beta   90.00014001
_cell_angle_gamma   89.99959834
_symmetry_Int_Tables_number   1
_chemical_formula_structural   GdH22C24(NO4)2
_chemical_formula_sum   'Gd4 H88 C96 N8 O32'
_cell_volume   3286.64991896
_cell_formula_units_Z   4
loop_
 _symmetry_equiv_pos_site_id
 _symmetry_equiv_pos_as_xyz
  1  'x, y, z'
loop_
 _atom_site_type_symbol
 _atom_site_label
 _atom_site_symmetry_multiplicity
 _atom_site_fract_x
 _atom_site_fract_y
 _atom_site_fract_z
 _atom_site_occupancy
 _atom_site_pbe_bader_charge
 _atom_site_pbe_bader_spin_density
 _atom_site_pbe_cm5_charge
 _atom_site_pbe_ddec_charge
 _atom_site_pbe_ddec_spin_density
 _atom_site_pbe_ddec_sum_bond_order
 _atom_site_pbe_magmom
Gd  Gd0  1  0.47321114  0.24999913  0.24999874  1  2.195358  0.007193  1.44955  2.072806  0.0127  2.192034  0.011
Gd  Gd1  1  0.02679497  0.75000132  0.75000143  1  2.195327  0.007192  1.449565  2.072786  0.012698  2.192057  0.011
Gd  Gd2  1  0.52679136  0.75000033  0.75000072  1  2.195364  0.007194  1.449531  2.072822  0.012701  2.191968  0.011
Gd  Gd3  1  0.97320960  0.24999990  0.25000105  1  2.195297  0.007194  1.449555  2.072731  0.012701  2.192131  0.011
H  H4  1  0.34954701  0.10256408  0.58116936  1  0.055509  0.000894  0.099031  0.093869  0.000689  0.994517  0.0
H  H5  1  0.22681851  0.15011422  0.08335187  1  0.077002  0.001257  0.123297  0.107981  0.000675  1.026201  0.0
H  H6  1  0.29407383  0.07565354  0.98237326  1  0.054019  0.002324  0.104016  0.109509  0.001271  1.012012  0.0
H  H7  1  0.39709855  0.12132566  0.45859180  1  0.060813  0.000849  0.100149  0.097068  0.000756  1.00671  0.0
H  H8  1  0.97195652  0.23435329  0.56011763  1  0.051711  0.000465  0.094882  0.091545  0.00028  1.022359  0.0
H  H9  1  0.01767776  0.24906418  0.43730962  1  0.100862  3.7e-05  0.102814  0.098112  -7.1e-05  1.052466  0.0
H  H10  1  0.13734835  0.15965830  0.63214418  1  0.084611  0.001038  0.099558  0.093411  0.000877  0.995511  0.0
H  H11  1  0.63321599  0.97895678  0.10045930  1  0.073735  0.002385  0.103727  0.108545  0.001346  1.010566  0.0
H  H12  1  0.54633069  0.05699141  0.19733484  1  0.187822  0.001108  0.130222  0.137605  0.000734  1.01415  0.0
H  H13  1  0.68569756  0.13368670  0.29477194  1  0.631709  0.000785  0.290711  0.380828  0.001062  0.972362  0.001
H  H14  1  0.53573094  0.11880456  0.32923156  1  0.622698  0.000547  0.309673  0.392929  0.000662  0.918331  0.0
H  H15  1  0.34953570  0.39743209  0.91883147  1  0.055571  0.000894  0.09905  0.093854  0.000689  0.994668  0.0
H  H16  1  0.22681088  0.34988852  0.41664330  1  0.076953  0.001257  0.123317  0.107974  0.000675  1.026216  0.0
H  H17  1  0.29406223  0.42434928  0.51762296  1  0.054181  0.002321  0.104024  0.109503  0.00127  1.012052  0.0
H  H18  1  0.39708868  0.37867232  0.04140710  1  0.060985  0.000849  0.100131  0.097093  0.000756  1.006608  0.0
H  H19  1  0.97194488  0.26564568  0.93988192  1  0.051514  0.000465  0.094877  0.091536  0.00028  1.022297  0.0
H  H20  1  0.01766751  0.25093764  0.06269134  1  0.100912  3.7e-05  0.102839  0.098111  -7.1e-05  1.052464  0.0
H  H21  1  0.13734059  0.34033930  0.86785487  1  0.084552  0.001039  0.099567  0.093396  0.000877  0.995476  0.0
H  H22  1  0.63320719  0.52104253  0.39953977  1  0.073871  0.002385  0.103719  0.108534  0.001346  1.010582  0.0
H  H23  1  0.54632856  0.44300715  0.30266373  1  0.1878  0.001107  0.130214  0.137574  0.000734  1.014093  0.0
H  H24  1  0.68569795  0.36631131  0.20522730  1  0.63167  0.000785  0.290691  0.380773  0.001062  0.972443  0.001
H  H25  1  0.53572995  0.38119755  0.17076851  1  0.62269  0.000547  0.309671  0.39295  0.000662  0.918303  0.0
H  H26  1  0.15045619  0.89743684  0.08117039  1  0.055405  0.000894  0.099035  0.093888  0.000689  0.994514  0.0
H  H27  1  0.27317953  0.84989312  0.58335513  1  0.077158  0.001257  0.123259  0.107888  0.000676  1.026265  0.0
H  H28  1  0.20592622  0.92435093  0.48237682  1  0.054086  0.002323  0.104028  0.10958  0.00127  1.012078  0.0
H  H29  1  0.10290757  0.87867186  0.95859429  1  0.060915  0.000849  0.100135  0.097098  0.000756  1.006648  0.0
H  H30  1  0.52804658  0.76564514  0.06012637  1  0.051002  0.000465  0.094842  0.091445  0.00028  1.022414  0.0
H  H31  1  0.48232722  0.75093282  0.93731840  1  0.101256  3.7e-05  0.102882  0.098186  -7.1e-05  1.052385  0.0
H  H32  1  0.36264787  0.84034190  0.13215064  1  0.084446  0.001039  0.099629  0.093557  0.000877  0.995359  0.0
H  H33  1  0.86677905  0.02104678  0.60045797  1  0.073594  0.002387  0.103687  0.108493  0.001346  1.010572  0.0
H  H34  1  0.95366174  0.94301364  0.69733509  1  0.187949  0.001107  0.130224  0.137574  0.000733  1.014226  0.0
H  H35  1  0.81430466  0.86631340  0.79477321  1  0.631624  0.000785  0.290715  0.380798  0.001062  0.972405  0.001
H  H36  1  0.96426628  0.88119895  0.82923347  1  0.622658  0.000547  0.30966  0.392897  0.000662  0.918383  0.0
H  H37  1  0.15046196  0.60256262  0.41883265  1  0.055526  0.000894  0.09902  0.093805  0.000689  0.994665  0.0
H  H38  1  0.27318780  0.65010620  0.91664751  1  0.077027  0.001257  0.123286  0.107972  0.000676  1.026249  0.0
H  H39  1  0.20593445  0.57564540  0.01762528  1  0.054274  0.002321  0.104012  0.109498  0.001271  1.012089  0.0
H  H40  1  0.10290916  0.62132580  0.54140865  1  0.060941  0.000849  0.100118  0.097057  0.000756  1.006641  0.0
H  H41  1  0.52804669  0.73435517  0.43987913  1  0.05161  0.000465  0.094876  0.091516  0.00028  1.022409  0.0
H  H42  1  0.48232733  0.74906860  0.56268752  1  0.100931  3.7e-05  0.102831  0.098146  -7.1e-05  1.052355  0.0
H  H43  1  0.36265371  0.65965789  0.36785567  1  0.084575  0.001039  0.099534  0.093361  0.000877  0.995525  0.0
H  H44  1  0.86678522  0.47895961  0.89954297  1  0.073758  0.002386  0.103757  0.108589  0.001345  1.010603  0.0
H  H45  1  0.95366337  0.55699468  0.80266786  1  0.187744  0.001107  0.13023  0.137615  0.000734  1.014086  0.0
H  H46  1  0.81430381  0.63368846  0.70522605  1  0.631614  0.000785  0.290683  0.380739  0.001062  0.972481  0.001
H  H47  1  0.96426648  0.61880524  0.67076798  1  0.622697  0.000547  0.309661  0.392899  0.000662  0.918375  0.0
H  H48  1  0.65044826  0.89743012  0.41883161  1  0.055208  0.000894  0.099009  0.093801  0.000689  0.994661  0.0
H  H49  1  0.77319122  0.84988699  0.91664154  1  0.077242  0.001256  0.123287  0.107921  0.000675  1.026293  0.0
H  H50  1  0.70594520  0.92434884  0.01762115  1  0.054265  0.002321  0.103992  0.109432  0.00127  1.012078  0.0
H  H51  1  0.60290602  0.87866854  0.54140917  1  0.060929  0.000849  0.100136  0.097092  0.000756  1.006632  0.0
H  H52  1  0.02805011  0.76565202  0.43987628  1  0.051594  0.000465  0.094885  0.091535  0.00028  1.022295  0.0
H  H53  1  0.98233714  0.75094054  0.56268479  1  0.101105  3.7e-05  0.102863  0.09812  -7.1e-05  1.052471  0.0
H  H54  1  0.86264382  0.84034175  0.36785124  1  0.084395  0.001039  0.099568  0.093431  0.000877  0.995488  0.0
H  H55  1  0.36679374  0.02104209  0.89954116  1  0.073869  0.002385  0.103727  0.108603  0.001346  1.010599  0.0
H  H56  1  0.45367181  0.94300922  0.80266411  1  0.187816  0.001107  0.130227  0.137577  0.000734  1.014075  0.0
H  H57  1  0.31430184  0.86631627  0.70522348  1  0.63162  0.000785  0.290691  0.380781  0.001062  0.972421  0.001
H  H58  1  0.46426846  0.88119783  0.67076688  1  0.622658  0.000547  0.309693  0.392975  0.000662  0.918273  0.0
H  H59  1  0.65045854  0.60257204  0.08116799  1  0.055154  0.000894  0.099027  0.093774  0.000689  0.994672  0.0
H  H60  1  0.77318439  0.65010860  0.58335515  1  0.077064  0.001256  0.123272  0.10792  0.000675  1.026269  0.0
H  H61  1  0.70593097  0.57564901  0.48237599  1  0.054202  0.002321  0.104041  0.109542  0.00127  1.012011  0.0
H  H62  1  0.60291176  0.62133123  0.95859084  1  0.06101  0.000849  0.100126  0.097032  0.000756  1.006684  0.0
H  H63  1  0.02805349  0.73435495  0.06012308  1  0.051544  0.000465  0.094826  0.091398  0.00028  1.022406  0.0
H  H64  1  0.98233499  0.74906474  0.93731315  1  0.100986  3.7e-05  0.102848  0.098086  -7.1e-05  1.052524  0.0
H  H65  1  0.86264951  0.65966367  0.13214761  1  0.084543  0.001039  0.099557  0.093422  0.000877  0.995476  0.0
H  H66  1  0.36678292  0.47895986  0.60045867  1  0.073759  0.002386  0.103751  0.108568  0.001346  1.010529  0.0
H  H67  1  0.45366155  0.55699465  0.69733371  1  0.187896  0.001107  0.130198  0.137597  0.000734  1.01405  0.0
H  H68  1  0.31430455  0.63368698  0.79477770  1  0.631604  0.000785  0.290687  0.380765  0.001061  0.972458  0.001
H  H69  1  0.46427152  0.61880425  0.82923448  1  0.622626  0.000547  0.309669  0.392973  0.000662  0.918282  0.0
H  H70  1  0.84956284  0.10256028  0.91883713  1  0.055105  0.000894  0.099001  0.093785  0.000689  0.994624  0.0
H  H71  1  0.72680334  0.15011277  0.41663928  1  0.077187  0.001257  0.123279  0.107873  0.000675  1.026311  0.0
H  H72  1  0.79405666  0.07565379  0.51762012  1  0.054206  0.002321  0.10399  0.10946  0.001271  1.012109  0.0
H  H73  1  0.89710113  0.12132292  0.04141524  1  0.060853  0.000849  0.100108  0.097049  0.000756  1.006602  0.0
H  H74  1  0.47197348  0.23435199  0.93987309  1  0.051252  0.000464  0.094949  0.091545  0.00028  1.022402  0.0
H  H75  1  0.51767734  0.24906313  0.06268206  1  0.101151  3.7e-05  0.10285  0.098175  -7.1e-05  1.052483  0.0
H  H76  1  0.63737839  0.15965697  0.86785235  1  0.084445  0.001038  0.099572  0.093511  0.000877  0.995416  0.0
H  H77  1  0.13320692  0.97895794  0.39953997  1  0.07388  0.002385  0.10372  0.108548  0.001346  1.010614  0.0
H  H78  1  0.04632423  0.05698991  0.30266285  1  0.18778  0.001108  0.130209  0.137565  0.000734  1.014073  0.0
H  H79  1  0.18569784  0.13368781  0.20522423  1  0.631598  0.000785  0.290684  0.380744  0.001062  0.972471  0.001
H  H80  1  0.03573209  0.11880518  0.17076648  1  0.622663  0.000547  0.309657  0.392938  0.000662  0.918333  0.0
H  H81  1  0.84953331  0.39743275  0.58116781  1  0.055284  0.000893  0.099035  0.09385  0.000689  0.994639  0.0
H  H82  1  0.72680127  0.34988975  0.08335749  1  0.077212  0.001256  0.123283  0.107911  0.000675  1.026264  0.0
H  H83  1  0.79405875  0.42435056  0.98237821  1  0.054192  0.002322  0.104041  0.109533  0.001271  1.012002  0.0
H  H84  1  0.89708818  0.37866840  0.45859131  1  0.060967  0.000849  0.100142  0.097082  0.000756  1.006667  0.0
H  H85  1  0.47194548  0.26564370  0.56011730  1  0.05155  0.000465  0.094868  0.091508  0.00028  1.022361  0.0
H  H86  1  0.51767104  0.25093086  0.43730941  1  0.100944  3.7e-05  0.102837  0.098149  -7.1e-05  1.052421  0.0
H  H87  1  0.63733742  0.34033981  0.63214277  1  0.084017  0.001039  0.099578  0.093419  0.000877  0.995447  0.0
H  H88  1  0.13320902  0.52103868  0.10046254  1  0.073871  0.002385  0.103726  0.108558  0.001346  1.010592  0.0
H  H89  1  0.04632261  0.44300595  0.19733814  1  0.187775  0.001107  0.130192  0.137571  0.000734  1.014098  0.0
H  H90  1  0.18569559  0.36631100  0.29477491  1  0.631605  0.000785  0.290705  0.380793  0.001062  0.972409  0.001
H  H91  1  0.03573292  0.38119598  0.32923551  1  0.622626  0.000547  0.309632  0.392901  0.000662  0.918384  0.0
C  C92  1  0.23805386  0.19818660  0.36685705  1  1.568156  0.000789  0.231782  0.643708  0.001041  4.16879  0.0
C  C93  1  0.47544516  0.02021621  0.02909817  1  0.036413  0.116154  -0.022199  0.053823  0.116836  4.027181  0.066
C  C94  1  0.21062836  0.18669240  0.44062104  1  -0.037307  0.001058  -0.019508  -0.052267  0.000979  3.968938  0.0
C  C95  1  0.27767910  0.13580143  0.54995982  1  -0.079701  0.000564  -0.093174  -0.089145  0.000722  4.032545  0.0
C  C96  1  0.31443100  0.11045105  0.08331718  1  0.378863  0.028374  0.019326  -0.067668  0.0258  3.949496  0.005
C  C97  1  0.35544890  0.06872052  0.02791146  1  0.019188  0.053028  -0.096258  -0.17136  0.054588  4.037282  0.026
C  C98  1  0.30416674  0.14568450  0.48141850  1  -0.004911  0.000599  -0.085253  -0.089183  0.000803  3.975038  0.0
C  C99  1  0.06565681  0.20948159  0.53835947  1  -0.023553  0.000857  -0.095168  -0.086141  0.000909  4.017621  0.0
C  C100  1  0.09098450  0.21827654  0.46954443  1  -0.078622  0.001005  -0.085392  -0.097883  0.000889  3.971587  0.0
C  C101  1  0.15847629  0.16792087  0.57862311  1  -0.057811  0.000844  -0.089401  -0.078483  0.000977  4.017189  0.0
C  C102  1  0.54258640  0.01556374  0.09314778  1  0.066508  0.059298  -0.096077  -0.173056  0.061968  4.03144  0.031
C  C103  1  0.49786139  0.05722240  0.14787401  1  0.246447  0.030441  0.025281  -0.055988  0.026812  3.917555  0.005
C  C104  1  0.23804850  0.30181317  0.13314216  1  1.568269  0.00079  0.231841  0.64371  0.001041  4.168639  0.0
C  C105  1  0.47543928  0.47977971  0.47090183  1  -0.023296  0.117929  -0.022133  0.053817  0.116856  4.027044  0.066
C  C106  1  0.21061629  0.31330691  0.05937814  1  -0.043498  0.001057  -0.019564  -0.052425  0.000979  3.969167  0.0
C  C107  1  0.27766938  0.36419444  0.95004041  1  -0.079599  0.000564  -0.093226  -0.089149  0.000722  4.032936  0.0
C  C108  1  0.31442493  0.38955017  0.41668061  1  0.378754  0.028385  0.019241  -0.067679  0.025809  3.949609  0.005
C  C109  1  0.35543950  0.43127821  0.47208637  1  0.018982  0.053008  -0.096276  -0.1714  0.054569  4.037402  0.026
C  C110  1  0.30415809  0.35431385  0.01858029  1  0.001174  0.000598  -0.085182  -0.089123  0.000803  3.975009  0.0
C  C111  1  0.06564910  0.29051688  0.96164051  1  -0.023515  0.000857  -0.09508  -0.086057  0.000909  4.017468  0.0
C  C112  1  0.09097784  0.28172440  0.03045763  1  -0.078891  0.001006  -0.085493  -0.097912  0.000889  3.971813  0.0
C  C113  1  0.15846477  0.33207548  0.92137597  1  -0.057784  0.000843  -0.089377  -0.078416  0.000977  4.017143  0.0
C  C114  1  0.54258324  0.48443133  0.40685128  1  0.066366  0.059307  -0.096069  -0.172979  0.061977  4.031372  0.031
C  C115  1  0.49785847  0.44277401  0.35212651  1  0.246563  0.030439  0.025255  -0.056024  0.026808  3.917641  0.005
C  C116  1  0.26195284  0.80181060  0.86686142  1  1.568174  0.00079  0.231787  0.643638  0.001041  4.168702  0.0
C  C117  1  0.02455778  0.97978954  0.52909782  1  -0.023109  0.117921  -0.022243  0.053724  0.11686  4.027232  0.066
C  C118  1  0.28937561  0.81330343  0.94062441  1  -0.044249  0.001057  -0.019557  -0.052417  0.000978  3.968757  0.0
C  C119  1  0.22231878  0.86419491  0.04996252  1  -0.079732  0.000563  -0.093162  -0.089164  0.000722  4.032779  0.0
C  C120  1  0.18556705  0.88955746  0.58331824  1  0.37847  0.028392  0.019381  -0.067475  0.025812  3.949714  0.005
C  C121  1  0.14455403  0.93128640  0.52791238  1  0.018776  0.053016  -0.096293  -0.171565  0.054582  4.037685  0.026
C  C122  1  0.19583433  0.85431238  0.98142267  1  0.002064  0.000598  -0.08525  -0.089162  0.000803  3.975149  0.0
C  C123  1  0.43434411  0.79051420  0.03836712  1  -0.022952  0.000857  -0.095077  -0.085887  0.000908  4.017535  0.0
C  C124  1  0.40901651  0.78172095  0.96955003  1  -0.07911  0.001005  -0.085432  -0.097908  0.000889  3.97131  0.0
C  C125  1  0.34152483  0.83207480  0.07862855  1  -0.057743  0.000844  -0.089525  -0.078774  0.000978  4.017296  0.0
C  C126  1  0.95740861  0.98444219  0.59314795  1  0.066291  0.059296  -0.096041  -0.172904  0.061961  4.031392  0.031
C  C127  1  0.00213078  0.94278476  0.64787221  1  0.246445  0.030434  0.025299  -0.055993  0.026813  3.917733  0.005
C  C128  1  0.26195186  0.69819053  0.63314222  1  1.568414  0.000789  0.231764  0.643633  0.001041  4.16885  0.0
C  C129  1  0.02455967  0.52021194  0.97090503  1  -0.023305  0.117958  -0.022163  0.053968  0.116891  4.027066  0.066
C  C130  1  0.28937544  0.68669525  0.55938027  1  -0.037631  0.001057  -0.019519  -0.052345  0.000979  3.968883  0.0
C  C131  1  0.22232740  0.63580369  0.45003959  1  -0.079654  0.000563  -0.093168  -0.0891  0.000722  4.032844  0.0
C  C132  1  0.18557684  0.61044571  0.91668480  1  0.378993  0.028386  0.019319  -0.067584  0.025813  3.949722  0.005
C  C133  1  0.14456359  0.56871635  0.97208860  1  0.018578  0.053019  -0.096287  -0.171543  0.054578  4.037595  0.026
C  C134  1  0.19584066  0.64568667  0.51858089  1  -0.004857  0.000599  -0.085179  -0.089134  0.000803  3.975074  0.0
C  C135  1  0.43434568  0.70948473  0.46163776  1  -0.023621  0.000857  -0.095058  -0.08601  0.000909  4.017578  0.0
C  C136  1  0.40901787  0.71827901  0.53045429  1  -0.078697  0.001006  -0.085508  -0.097981  0.00089  3.971335  0.0
C  C137  1  0.34152774  0.66792391  0.42137572  1  -0.057821  0.000844  -0.089395  -0.078403  0.000977  4.017308  0.0
C  C138  1  0.95741127  0.51556437  0.90685299  1  0.066425  0.059296  -0.096127  -0.173218  0.061969  4.031518  0.031
C  C139  1  0.00213266  0.55722323  0.85212910  1  0.246687  0.030451  0.025292  -0.055876  0.026821  3.917438  0.005
C  C140  1  0.76195587  0.80181227  0.63314241  1  1.568382  0.000789  0.231771  0.643593  0.001041  4.168837  0.0
C  C141  1  0.52456663  0.97978267  0.97090179  1  -0.023333  0.117951  -0.022083  0.053918  0.116877  4.027065  0.066
C  C142  1  0.78938551  0.81330590  0.55937690  1  -0.043764  0.001057  -0.019538  -0.052341  0.000979  3.968929  0.0
C  C143  1  0.72231824  0.86419452  0.45003963  1  -0.079375  0.000563  -0.093064  -0.088951  0.000721  4.032825  0.0
C  C144  1  0.68557770  0.88955191  0.91668026  1  0.378697  0.028381  0.019224  -0.067736  0.025811  3.949872  0.005
C  C145  1  0.64457012  0.93127953  0.97208547  1  0.018198  0.05301  -0.096226  -0.171265  0.054566  4.037459  0.026
C  C146  1  0.69583679  0.85431321  0.51857995  1  0.001523  0.000598  -0.085268  -0.08925  0.000803  3.975084  0.0
C  C147  1  0.93434673  0.79051963  0.46163646  1  -0.023573  0.000857  -0.095044  -0.085904  0.000909  4.017532  0.0
C  C148  1  0.90902420  0.78172584  0.53045351  1  -0.078904  0.001006  -0.085506  -0.097935  0.000889  3.971797  0.0
C  C149  1  0.84152414  0.83207742  0.42137382  1  -0.057734  0.000843  -0.089515  -0.078688  0.000977  4.017337  0.0
C  C150  1  0.45742127  0.98443338  0.90685066  1  0.06649  0.059306  -0.096142  -0.173245  0.061979  4.031536  0.031
C  C151  1  0.50214215  0.94277706  0.85212746  1  0.246528  0.030443  0.025305  -0.055869  0.02681  3.917596  0.005
C  C152  1  0.76195503  0.69818921  0.86685780  1  1.567678  0.000789  0.231695  0.643512  0.001041  4.16878  0.0
C  C153  1  0.52455909  0.52021449  0.52909863  1  0.036454  0.116176  -0.022154  0.053861  0.116857  4.027136  0.066
C  C154  1  0.78938621  0.68669489  0.94062132  1  -0.04348  0.001057  -0.019557  -0.052455  0.000979  3.968911  0.0
C  C155  1  0.72232485  0.63580969  0.04996005  1  -0.079294  0.000564  -0.093168  -0.088951  0.000721  4.032927  0.0
C  C156  1  0.68556930  0.61044812  0.58331733  1  0.378211  0.028388  0.019349  -0.067583  0.025806  3.949627  0.005
C  C157  1  0.64455680  0.56871891  0.52791258  1  0.019138  0.053006  -0.096332  -0.171489  0.054572  4.037503  0.026
C  C158  1  0.69584234  0.64568853  0.98142017  1  0.001299  0.000598  -0.085202  -0.089118  0.000803  3.975229  0.0
C  C159  1  0.93435030  0.70948609  0.03836247  1  -0.023512  0.000857  -0.095013  -0.085817  0.000908  4.01742  0.0
C  C160  1  0.90902466  0.71827798  0.96954485  1  -0.07904  0.001006  -0.085461  -0.097813  0.00089  3.97146  0.0
C  C161  1  0.84152844  0.66792866  0.07862500  1  -0.057799  0.000843  -0.089437  -0.078625  0.000978  4.01727  0.0
C  C162  1  0.45741203  0.51556580  0.59314817  1  0.066436  0.059303  -0.09611  -0.173101  0.061975  4.031491  0.031
C  C163  1  0.50213370  0.55722370  0.64787244  1  0.246414  0.030443  0.025308  -0.055923  0.026812  3.917449  0.005
C  C164  1  0.73805173  0.19818770  0.13314207  1  1.568294  0.000789  0.231839  0.643787  0.001041  4.168687  0.0
C  C165  1  0.97543646  0.02022336  0.47090112  1  0.036377  0.116182  -0.022115  0.053859  0.116853  4.02722  0.066
C  C166  1  0.71063102  0.18668961  0.05937958  1  -0.037527  0.001057  -0.019522  -0.05238  0.000979  3.969029  0.0
C  C167  1  0.77769095  0.13579812  0.95004096  1  -0.079078  0.000564  -0.09315  -0.08907  0.000722  4.032576  0.0
C  C168  1  0.81442306  0.11045310  0.41667718  1  0.378633  0.028381  0.01925  -0.067614  0.025809  3.949601  0.005
C  C169  1  0.85543711  0.06872533  0.47208455  1  0.018613  0.05302  -0.096216  -0.171314  0.054576  4.037268  0.026
C  C170  1  0.80416920  0.14568124  0.01858384  1  -0.004922  0.000599  -0.085199  -0.089113  0.000803  3.975086  0.0
C  C171  1  0.56567285  0.20948117  0.96163334  1  -0.023114  0.000856  -0.095141  -0.085931  0.000908  4.017564  0.0
C  C172  1  0.59098909  0.21827617  0.03044943  1  -0.078801  0.001006  -0.085467  -0.097995  0.00089  3.9715  0.0
C  C173  1  0.65849833  0.16792057  0.92137443  1  -0.057937  0.000844  -0.089476  -0.078728  0.000978  4.017289  0.0
C  C174  1  0.04257840  0.01556662  0.40685100  1  0.06644  0.059298  -0.09606  -0.173011  0.061971  4.0314  0.031
C  C175  1  0.99785416  0.05722288  0.35212371  1  0.246546  0.030446  0.025242  -0.056017  0.026813  3.917533  0.005
C  C176  1  0.73804754  0.30180893  0.36685673  1  1.567655  0.000789  0.23175  0.643629  0.001041  4.168757  0.0
C  C177  1  0.97543766  0.47977759  0.02910098  1  0.036509  0.116147  -0.022159  0.053735  0.116823  4.027515  0.066
C  C178  1  0.71061983  0.31330363  0.44061968  1  -0.037432  0.001058  -0.019558  -0.052423  0.000979  3.968998  0.0
C  C179  1  0.77766890  0.36419519  0.54995785  1  -0.079252  0.000564  -0.093208  -0.089141  0.000722  4.03284  0.0
C  C180  1  0.81442359  0.38955024  0.08332070  1  0.378574  0.028382  0.019308  -0.06763  0.025806  3.949754  0.005
C  C181  1  0.85544201  0.43127960  0.02791388  1  0.018943  0.053022  -0.096309  -0.1714  0.054583  4.037422  0.026
C  C182  1  0.80415977  0.35431338  0.48141856  1  -0.004911  0.000599  -0.085171  -0.089103  0.000803  3.975151  0.0
C  C183  1  0.56564753  0.29051415  0.53835967  1  -0.02363  0.000857  -0.095114  -0.086045  0.000909  4.017696  0.0
C  C184  1  0.59097843  0.28171987  0.46954264  1  -0.07889  0.001006  -0.085436  -0.097951  0.00089  3.971525  0.0
C  C185  1  0.65846340  0.33207497  0.57862172  1  -0.057149  0.000844  -0.089386  -0.078416  0.000978  4.017193  0.0
C  C186  1  0.04258090  0.48443217  0.09314898  1  0.066386  0.059295  -0.096038  -0.172905  0.061965  4.031443  0.031
C  C187  1  0.99785228  0.44277506  0.14787489  1  0.246644  0.030436  0.025252  -0.056069  0.026804  3.917548  0.005
N  N188  1  0.38650435  0.10605279  0.14252421  1  -0.717451  0.140116  -0.145457  0.303616  0.143801  3.857041  0.123
N  N189  1  0.38650207  0.39394582  0.35747316  1  -0.719082  0.140114  -0.145375  0.303681  0.143801  3.857082  0.123
N  N190  1  0.11349192  0.89395381  0.64252567  1  -0.716975  0.140133  -0.145417  0.303626  0.143821  3.857124  0.123
N  N191  1  0.11349528  0.60605082  0.85747829  1  -0.717522  0.140136  -0.145432  0.303602  0.143822  3.856875  0.123
N  N192  1  0.61349918  0.89394784  0.85747222  1  -0.718739  0.140125  -0.145376  0.303704  0.143812  3.857201  0.123
N  N193  1  0.61349010  0.60605306  0.64252528  1  -0.717098  0.140127  -0.145411  0.303644  0.143813  3.856975  0.123
N  N194  1  0.88649818  0.10605325  0.35747076  1  -0.718663  0.140111  -0.145456  0.303609  0.143798  3.857204  0.123
N  N195  1  0.88649379  0.39394513  0.14252872  1  -0.719133  0.140104  -0.145399  0.303618  0.143792  3.857416  0.123
O  O196  1  0.34446283  0.14797208  0.19663295  1  -0.722864  0.046419  -0.324692  -0.607086  0.046131  2.132941  0.035
O  O197  1  0.36105661  0.18862887  0.34544578  1  -1.20021  0.001161  -0.38035  -0.666127  0.000883  2.289813  0.0
O  O198  1  0.13771081  0.21898901  0.32972772  1  -1.208396  0.000418  -0.40297  -0.684968  1.7e-05  2.387234  0.0
O  O199  1  0.58286752  0.12532152  0.28617650  1  -1.252829  0.002689  -0.623327  -0.829574  0.002187  2.108758  0.002
O  O200  1  0.34446080  0.35202728  0.30336437  1  -0.721353  0.046422  -0.32471  -0.607095  0.046133  2.13286  0.035
O  O201  1  0.36105330  0.31136984  0.15455257  1  -1.200087  0.001161  -0.380404  -0.666178  0.000883  2.289718  0.0
O  O202  1  0.13770899  0.28101292  0.17027540  1  -1.208452  0.000418  -0.403017  -0.684933  1.7e-05  2.387166  0.0
O  O203  1  0.58286786  0.37467631  0.21382362  1  -1.252791  0.002689  -0.623297  -0.829545  0.002187  2.108742  0.002
O  O204  1  0.15553475  0.85203261  0.69663507  1  -0.722853  0.046423  -0.324686  -0.607039  0.046136  2.13295  0.035
O  O205  1  0.13894688  0.81136956  0.84545099  1  -1.199911  0.001161  -0.380385  -0.666117  0.000883  2.289648  0.0
O  O206  1  0.36229260  0.78100888  0.82973125  1  -1.208387  0.000418  -0.40296  -0.68492  1.7e-05  2.387311  0.0
O  O207  1  0.91713258  0.87467860  0.78617837  1  -1.252824  0.002689  -0.623294  -0.8295  0.002187  2.108811  0.002
O  O208  1  0.15553938  0.64797185  0.80336542  1  -0.722826  0.046415  -0.324725  -0.607105  0.046128  2.132792  0.035
O  O209  1  0.13894613  0.68863438  0.65455200  1  -1.200042  0.001161  -0.38041  -0.666124  0.000883  2.289724  0.0
O  O210  1  0.36228948  0.71899243  0.67027301  1  -1.208508  0.000418  -0.402947  -0.684913  1.7e-05  2.387225  0.0
O  O211  1  0.91713085  0.62532402  0.71382252  1  -1.252821  0.002689  -0.623275  -0.829449  0.002187  2.108848  0.002
O  O212  1  0.65553863  0.85202796  0.80336297  1  -0.721383  0.046423  -0.324747  -0.607141  0.046135  2.132982  0.035
O  O213  1  0.63895209  0.81136943  0.65455317  1  -1.200009  0.001161  -0.380371  -0.666123  0.000883  2.289802  0.0
O  O214  1  0.86229685  0.78100987  0.67027324  1  -1.208554  0.000418  -0.402984  -0.684897  1.7e-05  2.38727  0.0
O  O215  1  0.41712981  0.87467794  0.71382043  1  -1.25279  0.002689  -0.623302  -0.829562  0.002186  2.108713  0.002
O  O216  1  0.65553550  0.64797160  0.69663458  1  -0.722869  0.046422  -0.324713  -0.60709  0.046135  2.132887  0.035
O  O217  1  0.63895229  0.68862845  0.84544840  1  -1.199959  0.001161  -0.38032  -0.666047  0.000883  2.289736  0.0
O  O218  1  0.86229454  0.71899355  0.82972708  1  -1.207946  0.000418  -0.402978  -0.684902  1.8e-05  2.387238  0.0
O  O219  1  0.41713258  0.62532432  0.78618087  1  -1.252779  0.002688  -0.623284  -0.829559  0.002186  2.108737  0.002
O  O220  1  0.84445846  0.14797269  0.30336136  1  -0.721564  0.046414  -0.324644  -0.607033  0.046125  2.132986  0.035
O  O221  1  0.86105665  0.18863282  0.15455300  1  -1.200149  0.001161  -0.380414  -0.666166  0.000883  2.289734  0.0
O  O222  1  0.63770990  0.21899000  0.17027022  1  -1.208389  0.000418  -0.402978  -0.684969  1.7e-05  2.38726  0.0
O  O223  1  0.08287095  0.12532378  0.21382007  1  -1.252752  0.002689  -0.623281  -0.829477  0.002186  2.108789  0.002
O  O224  1  0.84445795  0.35202702  0.19663655  1  -0.721484  0.046421  -0.324665  -0.606975  0.046132  2.133077  0.035
O  O225  1  0.86105430  0.31136625  0.34544846  1  -1.20003  0.001161  -0.380424  -0.666136  0.000883  2.289764  0.0
O  O226  1  0.63770888  0.28100528  0.32972694  1  -1.20794  0.000418  -0.402974  -0.684913  1.7e-05  2.387161  0.0
O  O227  1  0.08286752  0.37467602  0.28618046  1  -1.252791  0.002689  -0.623274  -0.82951  0.002187  2.108831  0.002
