# generated using pymatgen
data_Cu2H20C12N2Cl2O
_symmetry_space_group_name_H-M   'P 1'
_cell_length_a   7.22233240
_cell_length_b   10.04732157
_cell_length_c   10.51444600
_cell_angle_alpha   89.99991004
_cell_angle_beta   89.99982802
_cell_angle_gamma   98.99988460
_symmetry_Int_Tables_number   1
_chemical_formula_structural   Cu2H20C12N2Cl2O
_chemical_formula_sum   'Cu4 H40 C24 N4 Cl4 O2'
_cell_volume   753.58845322
_cell_formula_units_Z   2
loop_
 _symmetry_equiv_pos_site_id
 _symmetry_equiv_pos_as_xyz
  1  'x, y, z'
loop_
 _atom_site_type_symbol
 _atom_site_label
 _atom_site_symmetry_multiplicity
 _atom_site_fract_x
 _atom_site_fract_y
 _atom_site_fract_z
 _atom_site_occupancy
 _atom_site_hle17_bader_spin_density
 _atom_site_hle17_ddec_charge
 _atom_site_hle17_ddec_spin_density
 _atom_site_hle17_ddec_sum_bond_order
 _atom_site_hle17_magmom
 _atom_site_hse06_10hf_bader_spin_density
 _atom_site_hse06_10hf_ddec_charge
 _atom_site_hse06_10hf_ddec_spin_density
 _atom_site_hse06_10hf_ddec_sum_bond_order
 _atom_site_hse06_10hf_magmom
 _atom_site_hse06_bader_spin_density
 _atom_site_hse06_ddec_charge
 _atom_site_hse06_ddec_spin_density
 _atom_site_hse06_ddec_sum_bond_order
 _atom_site_hse06_magmom
 _atom_site_pbe_bader_spin_density
 _atom_site_pbe_cm5_charge
 _atom_site_pbe_ddec_charge
 _atom_site_pbe_ddec_spin_density
 _atom_site_pbe_ddec_sum_bond_order
 _atom_site_pbe_magmom
Cu  Cu0  1  0.33028965  0.93409637  0.91979158  1  0  0.412552  0  1.928961  0  0  0.316028  0  2.409797  0  0  0.321167  0  2.358684  0  0  0.391048  0.313831  0  2.44341  0
Cu  Cu1  1  0.66971326  0.06590352  0.41978934  1  0  0.412552  0  1.929007  0  0  0.316049  0  2.409834  0  0  0.321174  0  2.35872  0  0  0.391027  0.313848  0  2.443443  0
Cu  Cu2  1  0.41673468  0.97526402  0.17917231  1  0  0.442161  0  1.75052  0  0  0.326746  0  2.240021  0  0  0.351714  0  2.179777  0  0  0.299173  0.309924  0  2.281755  0
Cu  Cu3  1  0.58327987  0.02473342  0.67917260  1  0  0.442168  0  1.750565  0  0  0.32673  0  2.240094  0  0  0.351705  0  2.17984  0  0  0.29919  0.30991  0  2.281832  0
H  H4  1  0.53319199  0.56741243  0.90731929  1  0  0.109244  0  0.951227  0  0  0.129187  0  1.015288  0  0  0.131312  0  1.015163  0  0  0.08555  0.127583  0  1.015489  0
H  H5  1  0.46679272  0.43259948  0.40731214  1  0  0.109365  0  0.951133  0  0  0.129262  0  1.015245  0  0  0.13141  0  1.015094  0  0  0.085629  0.12766  0  1.015446  0
H  H6  1  0.58097367  0.43878157  0.80033225  1  0  0.105167  0  0.960155  0  0  0.12382  0  1.028936  0  0  0.125224  0  1.029267  0  0  0.085561  0.122882  0  1.028423  0
H  H7  1  0.41902648  0.56123567  0.30032975  1  0  0.105117  0  0.960221  0  0  0.123771  0  1.02899  0  0  0.125171  0  1.02933  0  0  0.085514  0.122835  0  1.02847  0
H  H8  1  0.65035630  0.43476569  0.96142199  1  0  0.104543  0  0.946125  0  0  0.127768  0  1.007115  0  0  0.129322  0  1.0067  0  0  0.088643  0.126396  0  1.007792  0
H  H9  1  0.34963860  0.56524314  0.46142247  1  0  0.104689  0  0.945899  0  0  0.127941  0  1.006852  0  0  0.129496  0  1.006435  0  0  0.088747  0.12656  0  1.007539  0
H  H10  1  0.35556924  0.35013141  0.14092263  1  0  0.082161  0  0.96499  0  0  0.097175  0  1.028379  0  0  0.098518  0  1.02918  0  0  0.080412  0.096074  0  1.028183  0
H  H11  1  0.64441685  0.64985490  0.64092277  1  0  0.082167  0  0.965072  0  0  0.097195  0  1.02845  0  0  0.098537  0  1.029255  0  0  0.080371  0.096092  0  1.028253  0
H  H12  1  0.30327168  0.50769720  0.08869917  1  0  0.082718  0  0.965604  0  0  0.09751  0  1.031544  0  0  0.099876  0  1.030743  0  0  0.084254  0.096818  0  1.030169  0
H  H13  1  0.69672084  0.49229228  0.58869184  1  0  0.082769  0  0.965611  0  0  0.097591  0  1.031531  0  0  0.09996  0  1.030731  0  0  0.084246  0.096904  0  1.030155  0
H  H14  1  0.97873970  0.41950659  0.07752821  1  0  0.073422  0  0.954471  0  0  0.090378  0  1.018489  0  0  0.091907  0  1.018185  0  0  0.090244  0.089583  0  1.018366  0
H  H15  1  0.02125011  0.58048289  0.57752877  1  0  0.073387  0  0.954419  0  0  0.090329  0  1.018487  0  0  0.091859  0  1.018183  0  0  0.090225  0.089556  0  1.018339  0
H  H16  1  0.02536181  0.26428535  0.13776452  1  0  0.065449  0  0.967757  0  0  0.084531  0  1.03103  0  0  0.085247  0  1.032068  0  0  0.085066  0.084085  0  1.030236  0
H  H17  1  0.97462333  0.73570298  0.63776671  1  0  0.065475  0  0.967711  0  0  0.084557  0  1.030994  0  0  0.085278  0  1.032025  0  0  0.085096  0.084112  0  1.0302  0
H  H18  1  0.89764729  0.25851925  0.89373880  1  0  0.092199  0  0.927149  0  0  0.103268  0  0.984048  0  0  0.106092  0  0.982539  0  0  0.103664  0.100859  0  0.98586  0
H  H19  1  0.10235054  0.74147565  0.39374332  1  0  0.092271  0  0.927111  0  0  0.103352  0  0.984029  0  0  0.106175  0  0.982521  0  0  0.103692  0.100938  0  0.985836  0
H  H20  1  0.11499341  0.56983042  0.94715824  1  0  0.10153  0  0.985082  0  0  0.119611  0  1.051885  0  0  0.120967  0  1.0525  0  0  0.082216  0.119029  0  1.050635  0
H  H21  1  0.88498912  0.43016530  0.44715025  1  0  0.101512  0  0.985039  0  0  0.119579  0  1.05189  0  0  0.120934  0  1.052512  0  0  0.08221  0.118997  0  1.050645  0
H  H22  1  0.97244139  0.51968205  0.81269288  1  0  0.105043  0  0.941404  0  0  0.134436  0  0.991193  0  0  0.134955  0  0.99266  0  0  0.091108  0.133905  0  0.990265  0
H  H23  1  0.02754256  0.48031094  0.31268179  1  0  0.105097  0  0.94126  0  0  0.134484  0  0.99105  0  0  0.135004  0  0.992515  0  0  0.091123  0.13395  0  0.990121  0
H  H24  1  0.20896126  0.59713486  0.79281903  1  0  0.105677  0  0.963625  0  0  0.125788  0  1.027857  0  0  0.127289  0  1.028413  0  0  0.081811  0.124805  0  1.027609  0
H  H25  1  0.79101434  0.40286417  0.29280937  1  0  0.105551  0  0.963538  0  0  0.125649  0  1.027821  0  0  0.12718  0  1.028347  0  0  0.081764  0.124669  0  1.027576  0
H  H26  1  0.05760325  0.34166680  0.66226662  1  0  0.099765  0  0.973313  0  0  0.11917  0  1.040762  0  0  0.121467  0  1.04  0  0  0.080022  0.117862  0  1.04053  0
H  H27  1  0.94240005  0.65834271  0.16227052  1  0  0.0998  0  0.973214  0  0  0.119247  0  1.040638  0  0  0.121527  0  1.039888  0  0  0.080026  0.117938  0  1.040405  0
H  H28  1  0.23544939  0.24475945  0.70089337  1  0  0.097806  0  0.970159  0  0  0.117978  0  1.036706  0  0  0.118595  0  1.038004  0  0  0.082585  0.117546  0  1.035933  0
H  H29  1  0.76456107  0.75525202  0.20089938  1  0  0.097722  0  0.970172  0  0  0.117924  0  1.036714  0  0  0.118549  0  1.038003  0  0  0.08257  0.117493  0  1.035942  0
H  H30  1  0.29805851  0.41693626  0.66038795  1  0  0.106074  0  0.952615  0  0  0.128839  0  1.012328  0  0  0.130517  0  1.012438  0  0  0.087676  0.127736  0  1.012028  0
H  H31  1  0.70194288  0.58307727  0.16038580  1  0  0.106063  0  0.952498  0  0  0.128865  0  1.012195  0  0  0.130545  0  1.012302  0  0  0.087699  0.127762  0  1.011898  0
H  H32  1  0.01928651  0.80247654  0.82739721  1  0  0.097816  0  0.970132  0  0  0.113597  0  1.044609  0  0  0.115776  0  1.041381  0  0  0.099297  0.11168  0  1.047195  0
H  H33  1  0.98072156  0.19751955  0.32740080  1  0  0.097861  0  0.97019  0  0  0.113625  0  1.044645  0  0  0.11583  0  1.04139  0  0  0.099327  0.111713  0  1.047231  0
H  H34  1  0.77631559  0.78441300  0.86798728  1  0  0.109387  0  0.969174  0  0  0.127969  0  1.03236  0  0  0.128548  0  1.033204  0  0  0.095746  0.127333  0  1.031793  0
H  H35  1  0.22369026  0.21557997  0.36798761  1  0  0.109361  0  0.969226  0  0  0.127949  0  1.032397  0  0  0.128527  0  1.033245  0  0  0.095728  0.127311  0  1.031832  0
H  H36  1  0.94814789  0.76900442  0.98841572  1  0  0.095302  0  0.96816  0  0  0.116265  0  1.030913  0  0  0.115654  0  1.032479  0  0  0.094507  0.116384  0  1.029574  0
H  H37  1  0.05186119  0.23099335  0.48841922  1  0  0.095367  0  0.968122  0  0  0.116303  0  1.030896  0  0  0.11569  0  1.03247  0  0  0.094495  0.11642  0  1.029562  0
H  H38  1  0.76758626  0.10408139  0.99897807  1  0  0.117717  0  0.97631  0  0  0.135419  0  1.039397  0  0  0.135819  0  1.039651  0  0  0.103546  0.13489  0  1.039477  0
H  H39  1  0.23242159  0.89591735  0.49898304  1  0  0.117716  0  0.976336  0  0  0.13541  0  1.039429  0  0  0.13581  0  1.039685  0  0  0.103538  0.134881  0  1.039507  0
H  H40  1  0.88077661  0.00976958  0.11234834  1  0  0.094846  0  0.926895  0  0  0.113344  0  0.995261  0  0  0.113457  0  0.995436  0  0  0.097109  0.113237  0  0.994945  0
H  H41  1  0.11923475  0.99023100  0.61235282  1  0  0.094899  0  0.926794  0  0  0.113402  0  0.99515  0  0  0.113508  0  0.995341  0  0  0.097142  0.113294  0  0.994833  0
H  H42  1  0.68505373  0.93094314  0.02104582  1  0  0.091952  0  0.993782  0  0  0.108344  0  1.068887  0  0  0.111448  0  1.06454  0  0  0.090743  0.105907  0  1.072231  0
H  H43  1  0.31495702  0.06905260  0.52104467  1  0  0.091939  0  0.99381  0  0  0.108343  0  1.068884  0  0  0.111443  0  1.064542  0  0  0.090748  0.105905  0  1.072224  0
C  C44  1  0.15218082  0.16430746  0.92633193  1  0  0.061516  0  3.677367  0  0  0.048744  0  3.944256  0  0  0.051066  0  3.956393  0  0  0.093404  0.046454  0  3.936112  0
C  C45  1  0.84781790  0.83569240  0.42633480  1  0  0.061542  0  3.677543  0  0  0.048809  0  3.944399  0  0  0.051126  0  3.956528  0  0  0.093479  0.046516  0  3.93625  0
C  C46  1  0.34967249  0.22397692  0.92643060  1  0  0.339491  0  3.698966  0  0  0.316353  0  3.965406  0  0  0.342609  0  3.962728  0  0  0.137868  0.298891  0  3.967278  0
C  C47  1  0.65033689  0.77602098  0.42644346  1  0  0.339625  0  3.69866  0  0  0.316518  0  3.965013  0  0  0.34278  0  3.962334  0  0  0.137997  0.299077  0  3.966841  0
C  C48  1  0.35350860  0.37546135  0.93179262  1  0  0.026473  0  3.547715  0  0  0.053715  0  3.772381  0  0  0.048656  0  3.790688  0  0  -0.014515  0.056966  0  3.759587  0
C  C49  1  0.64648359  0.62454048  0.43179242  1  0  0.026382  0  3.54805  0  0  0.053633  0  3.772749  0  0  0.048573  0  3.791059  0  0  -0.014532  0.056876  0  3.75996  0
C  C50  1  0.53949130  0.45932742  0.89797699  1  0  -0.310612  0  3.680405  0  0  -0.395301  0  3.921272  0  0  -0.397334  0  3.930422  0  0  -0.243325  -0.393563  0  3.915353  0
C  C51  1  0.46049719  0.54068252  0.39797253  1  0  -0.310779  0  3.680325  0  0  -0.395468  0  3.921211  0  0  -0.39752  0  3.930335  0  0  -0.243461  -0.393725  0  3.915301  0
C  C52  1  0.27912348  0.39901079  0.06892078  1  0  -0.168926  0  3.58469  0  0  -0.209907  0  3.835323  0  0  -0.211936  0  3.846819  0  0  -0.164473  -0.208852  0  3.826869  0
C  C53  1  0.72086583  0.60098274  0.56891894  1  0  -0.168918  0  3.584733  0  0  -0.209934  0  3.835382  0  0  -0.211967  0  3.846879  0  0  -0.164405  -0.208879  0  3.826934  0
C  C54  1  0.06670884  0.34083396  0.06469447  1  0  -0.129299  0  3.639172  0  0  -0.177275  0  3.899356  0  0  -0.178135  0  3.911611  0  0  -0.165558  -0.176524  0  3.89047  0
C  C55  1  0.93328838  0.65915760  0.56469211  1  0  -0.129299  0  3.63902  0  0  -0.177272  0  3.899317  0  0  -0.178135  0  3.911568  0  0  -0.165623  -0.176542  0  3.890425  0
C  C56  1  0.04185732  0.28007435  0.92914808  1  0  -0.097474  0  3.587876  0  0  -0.106244  0  3.824574  0  0  -0.10912  0  3.839088  0  0  -0.082231  -0.103709  0  3.81449  0
C  C57  1  0.95814054  0.71992148  0.42915375  1  0  -0.097567  0  3.587956  0  0  -0.106435  0  3.824782  0  0  -0.109307  0  3.839293  0  0  -0.082283  -0.103889  0  3.814678  0
C  C58  1  0.17528328  0.38698109  0.84909989  1  0  0.153604  0  3.510105  0  0  0.18342  0  3.737763  0  0  0.183341  0  3.75764  0  0  -0.00677  0.183038  0  3.724506  0
C  C59  1  0.82471805  0.61302297  0.34910220  1  0  0.153545  0  3.510087  0  0  0.183405  0  3.737729  0  0  0.183317  0  3.757614  0  0  -0.006742  0.183024  0  3.724471  0
C  C60  1  0.11479356  0.52603026  0.85181516  1  0  -0.332801  0  3.649082  0  0  -0.413135  0  3.883141  0  0  -0.416273  0  3.894253  0  0  -0.246472  -0.410839  0  3.875624  0
C  C61  1  0.88519402  0.47396770  0.35180805  1  0  -0.332645  0  3.648674  0  0  -0.41295  0  3.882753  0  0  -0.416112  0  3.893848  0  0  -0.24642  -0.410656  0  3.875242  0
C  C62  1  0.19320514  0.34470291  0.71060379  1  0  -0.346854  0  3.679874  0  0  -0.428748  0  3.916462  0  0  -0.432423  0  3.926755  0  0  -0.248387  -0.425797  0  3.908994  0
C  C63  1  0.80679973  0.65530851  0.21060607  1  0  -0.346771  0  3.679631  0  0  -0.428791  0  3.916251  0  0  -0.432458  0  3.92655  0  0  -0.248417  -0.425836  0  3.908775  0
C  C64  1  0.91905702  0.82170299  0.90072397  1  0  -0.213308  0  3.670037  0  0  -0.316133  0  3.921032  0  0  -0.312796  0  3.930577  0  0  -0.14747  -0.317966  0  3.914759  0
C  C65  1  0.08095333  0.17829899  0.40072655  1  0  -0.21331  0  3.670177  0  0  -0.316089  0  3.921154  0  0  -0.312774  0  3.930677  0  0  -0.147499  -0.31791  0  3.914855  0
C  C66  1  0.81142426  0.00702239  0.01858789  1  0  -0.212146  0  3.652828  0  0  -0.311597  0  3.900148  0  0  -0.308918  0  3.91084  0  0  -0.146775  -0.312763  0  3.893138  0
C  C67  1  0.18858596  0.99297738  0.51859222  1  0  -0.212042  0  3.652738  0  0  -0.311461  0  3.899955  0  0  -0.308784  0  3.910646  0  0  -0.146751  -0.312633  0  3.892942  0
N  N68  1  0.11286773  0.03253451  0.91508754  1  0  -0.205146  0  3.386615  0  0  -0.167574  0  3.69846  0  0  -0.162798  0  3.701202  0  0  -0.24976  -0.170734  0  3.696268  0
N  N69  1  0.88714385  0.96746040  0.41509393  1  0  -0.205107  0  3.386867  0  0  -0.16758  0  3.698739  0  0  -0.162793  0  3.701474  0  0  -0.249911  -0.170744  0  3.696552  0
N  N70  1  0.93581007  0.96653630  0.92087421  1  0  0.061875  0  3.363267  0  0  0.152844  0  3.604704  0  0  0.133858  0  3.633305  0  0  -0.185585  0.164735  0  3.585732  0
N  N71  1  0.06419935  0.03346161  0.42087991  1  0  0.061656  0  3.363482  0  0  0.152634  0  3.604882  0  0  0.133646  0  3.633487  0  0  -0.185496  0.164526  0  3.585914  0
Cl  Cl72  1  0.32721639  0.78617301  0.09278949  1  0  -0.477204  0  1.411169  0  0  -0.386329  0  1.783303  0  0  -0.408441  0  1.747004  0  0  -0.270668  -0.371556  0  1.807116  0
Cl  Cl73  1  0.67279678  0.21382259  0.59278550  1  0  -0.477226  0  1.411256  0  0  -0.38636  0  1.783421  0  0  -0.40847  0  1.747116  0  0  -0.270677  -0.371589  0  1.807236  0
Cl  Cl74  1  0.46992339  0.83532737  0.75807971  1  0  -0.462226  0  1.496484  0  0  -0.366664  0  1.886267  0  0  -0.38893  0  1.848817  0  0  -0.262746  -0.351691  0  1.912402  0
Cl  Cl75  1  0.53009056  0.16466889  0.25807570  1  0  -0.462206  0  1.496519  0  0  -0.366667  0  1.886323  0  0  -0.388922  0  1.848861  0  0  -0.262741  -0.351696  0  1.912459  0
O  O76  1  0.48411349  0.15948612  0.92562971  1  0  -0.479512  0  2.074488  0  0  -0.433333  0  2.334654  0  0  -0.447291  0  2.320402  0  0  -0.27651  -0.424439  0  2.345205  0
O  O77  1  0.51588818  0.84052785  0.42563894  1  0  -0.479712  0  2.074023  0  0  -0.433556  0  2.334232  0  0  -0.447516  0  2.31997  0  0  -0.276637  -0.424668  0  2.344777  0
