# generated using pymatgen
data_MnH4C7O5
_symmetry_space_group_name_H-M   'P 1'
_cell_length_a   7.24591924
_cell_length_b   9.75361624
_cell_length_c   10.04395186
_cell_angle_alpha   89.99922615
_cell_angle_beta   90.00112616
_cell_angle_gamma   89.99612608
_symmetry_Int_Tables_number   1
_chemical_formula_structural   MnH4C7O5
_chemical_formula_sum   'Mn4 H16 C28 O20'
_cell_volume   709.84540336
_cell_formula_units_Z   4
loop_
 _symmetry_equiv_pos_site_id
 _symmetry_equiv_pos_as_xyz
  1  'x, y, z'
loop_
 _atom_site_type_symbol
 _atom_site_label
 _atom_site_symmetry_multiplicity
 _atom_site_fract_x
 _atom_site_fract_y
 _atom_site_fract_z
 _atom_site_occupancy
 _atom_site_pbe_cm5_charge
 _atom_site_pbe_ddec_charge
 _atom_site_pbe_ddec_spin_density
 _atom_site_pbe_ddec_sum_bond_order
 _atom_site_pbe_magmom
Mn  Mn0  1  0.10103525  0.26189316  0.00000800  1  0.606334  1.06971  4.670073  2.230458  4.494
Mn  Mn1  1  0.89979395  0.73855287  0.99995863  1  0.606783  1.068563  4.641827  2.238939  4.472
Mn  Mn2  1  0.39986462  0.76144201  0.99997586  1  0.606846  1.068615  -4.631565  2.239156  -4.471
Mn  Mn3  1  0.60101002  0.23810493  0.99999856  1  0.60627  1.069625  4.670285  2.230359  4.494
H  H4  1  0.82651669  0.44726431  0.92293751  1  0.316247  0.404472  0.0005  0.924981  0.003
H  H5  1  0.17341734  0.55331413  0.92289637  1  0.316207  0.40419  -7.8e-05  0.925036  0.0
H  H6  1  0.67343340  0.94669200  0.07710082  1  0.316229  0.404412  -0.00028  0.924845  0.0
H  H7  1  0.32649138  0.05273275  0.07705730  1  0.316232  0.404421  0.001283  0.924993  0.003
H  H8  1  0.17343339  0.55333860  0.07710279  1  0.316305  0.40432  -7.7e-05  0.924863  0.0
H  H9  1  0.82649271  0.44729699  0.07703441  1  0.316187  0.404318  0.000501  0.925009  0.003
H  H10  1  0.32650707  0.05269085  0.92296438  1  0.316272  0.404538  0.001283  0.924897  0.003
H  H11  1  0.67342287  0.94663677  0.92289241  1  0.316387  0.404529  -0.000279  0.9246  0.0
H  H12  1  0.09172853  0.33088154  0.37541650  1  0.107624  0.115284  -0.000392  1.009294  0.0
H  H13  1  0.90834514  0.66913054  0.37547387  1  0.107584  0.115214  -0.000385  1.009331  0.0
H  H14  1  0.40842114  0.83088640  0.62451967  1  0.107765  0.115422  0.000436  1.009492  0.0
H  H15  1  0.59170212  0.16912726  0.62457200  1  0.107659  0.115352  -0.000394  1.009146  0.0
H  H16  1  0.90839684  0.66912672  0.62453121  1  0.107751  0.11546  -0.000385  1.009371  0.0
H  H17  1  0.09175126  0.33089618  0.62455748  1  0.107674  0.115394  -0.000392  1.009452  0.0
H  H18  1  0.59172218  0.16912903  0.37543501  1  0.10765  0.115318  -0.000394  1.009426  0.0
H  H19  1  0.40839013  0.83086152  0.37547527  1  0.107695  0.115295  0.000436  1.009465  0.0
C  C20  1  0.20321322  0.38034617  0.43015936  1  -0.078502  -0.082011  0.004454  3.960355  0.003
C  C21  1  0.79676672  0.61974613  0.43019090  1  -0.078515  -0.081961  0.00136  3.960315  0.001
C  C22  1  0.29681186  0.88024666  0.56982595  1  -0.078601  -0.082213  -0.000293  3.95985  0.0
C  C23  1  0.70323400  0.11968371  0.56983768  1  -0.078605  -0.082286  0.00391  3.9605  0.003
C  C24  1  0.79679208  0.61976769  0.56983116  1  -0.078516  -0.082175  0.001366  3.96007  0.001
C  C25  1  0.20323997  0.38034518  0.56980958  1  -0.078544  -0.082169  0.004453  3.961022  0.003
C  C26  1  0.70322657  0.11969086  0.43018548  1  -0.078312  -0.081739  0.003911  3.960318  0.003
C  C27  1  0.29680858  0.88025790  0.43017574  1  -0.078607  -0.08212  -0.000288  3.959984  0.0
C  C28  1  0.35249530  0.43219243  0.35997954  1  -0.009151  -0.075674  0.005362  3.934716  0.004
C  C29  1  0.64743717  0.56808542  0.35995288  1  -0.009002  -0.075595  0.000233  3.934275  0.0
C  C30  1  0.14742293  0.93189330  0.64005091  1  -0.009096  -0.075596  0.000109  3.934242  0.0
C  C31  1  0.85249927  0.06783512  0.64002260  1  -0.009069  -0.07549  0.005264  3.934592  0.004
C  C32  1  0.64742305  0.56810598  0.64006474  1  -0.009134  -0.075638  0.000225  3.933944  0.0
C  C33  1  0.35250188  0.43217608  0.63999881  1  -0.009268  -0.075978  0.005362  3.934908  0.004
C  C34  1  0.85250235  0.06784019  0.35999935  1  -0.009313  -0.075991  0.005264  3.935168  0.004
C  C35  1  0.14745360  0.93191785  0.35994502  1  -0.00893  -0.075282  0.0001  3.933648  0.0
C  C36  1  0.49992093  0.50017740  0.42824810  1  0.005956  0.0391  0.001704  3.921902  0.001
C  C37  1  0.99994426  0.99983394  0.57175868  1  0.005919  0.039066  0.001149  3.922301  0.001
C  C38  1  0.49992841  0.50020406  0.57176133  1  0.005878  0.039098  0.001706  3.921939  0.001
C  C39  1  0.99995334  0.99985136  0.42824545  1  0.005784  0.038948  0.001152  3.922276  0.001
C  C40  1  0.35978605  0.39445137  0.21576071  1  0.234844  0.618851  0.019507  4.155349  0.017
C  C41  1  0.64016317  0.60586441  0.21575934  1  0.234476  0.618445  0.002815  4.153808  0.002
C  C42  1  0.14015081  0.89412083  0.78425031  1  0.234603  0.618513  -0.001371  4.154342  0.0
C  C43  1  0.85979328  0.10553685  0.78426046  1  0.234932  0.618909  0.018535  4.154616  0.017
C  C44  1  0.64015024  0.60587780  0.78427362  1  0.234656  0.618367  0.002829  4.153928  0.002
C  C45  1  0.35982556  0.39443195  0.78422321  1  0.23519  0.619431  0.019501  4.154192  0.017
C  C46  1  0.85979103  0.10555217  0.21576709  1  0.234897  0.619098  0.018535  4.154952  0.017
C  C47  1  0.14017202  0.89412692  0.21573704  1  0.234651  0.618354  -0.001382  4.153634  0.0
O  O48  1  0.20968231  0.40334051  0.14838073  1  -0.31118  -0.597727  0.040971  2.369439  0.025
O  O49  1  0.79020710  0.59724382  0.14834178  1  -0.310557  -0.596615  0.032864  2.370314  0.017
O  O50  1  0.29022063  0.90279030  0.85165208  1  -0.310774  -0.59693  -0.032996  2.370037  -0.015
O  O51  1  0.70968115  0.09658550  0.85164229  1  -0.311262  -0.597852  0.040504  2.368822  0.024
O  O52  1  0.79026087  0.59723062  0.85167351  1  -0.310735  -0.596842  0.032898  2.369858  0.017
O  O53  1  0.20970433  0.40334064  0.85159498  1  -0.311318  -0.598127  0.040966  2.3689  0.025
O  O54  1  0.70969500  0.09660793  0.14837329  1  -0.311148  -0.597977  0.040502  2.369446  0.024
O  O55  1  0.29019860  0.90277685  0.14830841  1  -0.310806  -0.596833  -0.032993  2.370442  -0.015
O  O56  1  0.51029718  0.34643804  0.17106453  1  -0.298397  -0.560858  0.047527  2.332962  0.031
O  O57  1  0.48943416  0.65368768  0.17108133  1  -0.299137  -0.561311  -0.035392  2.335383  -0.017
O  O58  1  0.98949512  0.84626061  0.82892231  1  -0.299056  -0.561098  0.03662  2.336562  0.019
O  O59  1  0.01026387  0.15356663  0.82896264  1  -0.298381  -0.560847  0.04708  2.333064  0.031
O  O60  1  0.48948869  0.65371376  0.82894391  1  -0.299077  -0.560979  -0.035399  2.336887  -0.017
O  O61  1  0.51033653  0.34644669  0.82893109  1  -0.298593  -0.561009  0.047524  2.332919  0.031
O  O62  1  0.01029215  0.15357028  0.17107418  1  -0.298381  -0.560855  0.047092  2.332839  0.031
O  O63  1  0.98945439  0.84625401  0.17107965  1  -0.299132  -0.561194  0.036583  2.335194  0.018
O  O64  1  0.84112343  0.38191635  0.99998739  1  -0.535679  -0.753786  0.082827  2.244067  0.049
O  O65  1  0.15889827  0.61870508  0.99999498  1  -0.534474  -0.751855  0.000431  2.244941  0.001
O  O66  1  0.65884368  0.88128435  0.00001096  1  -0.534561  -0.752258  0.000584  2.24491  0.0
O  O67  1  0.34114234  0.11808210  0.99999052  1  -0.535675  -0.753762  0.08433  2.243764  0.05
