# generated using pymatgen
data_SmCuH15C25(N3O4)2
_symmetry_space_group_name_H-M   'P 1'
_cell_length_a   7.62834357
_cell_length_b   12.18757831
_cell_length_c   14.20933091
_cell_angle_alpha   69.05286637
_cell_angle_beta   88.02971593
_cell_angle_gamma   82.62481623
_symmetry_Int_Tables_number   1
_chemical_formula_structural   SmCuH15C25(N3O4)2
_chemical_formula_sum   'Sm2 Cu2 H30 C50 N12 O16'
_cell_volume   1223.44703146
_cell_formula_units_Z   2
loop_
 _symmetry_equiv_pos_site_id
 _symmetry_equiv_pos_as_xyz
  1  'x, y, z'
loop_
 _atom_site_type_symbol
 _atom_site_label
 _atom_site_symmetry_multiplicity
 _atom_site_fract_x
 _atom_site_fract_y
 _atom_site_fract_z
 _atom_site_occupancy
 _atom_site_hle17_bader_spin_density
 _atom_site_hle17_ddec_charge
 _atom_site_hle17_ddec_spin_density
 _atom_site_hle17_ddec_sum_bond_order
 _atom_site_hle17_magmom
 _atom_site_hse06_10hf_bader_spin_density
 _atom_site_hse06_10hf_ddec_charge
 _atom_site_hse06_10hf_ddec_spin_density
 _atom_site_hse06_10hf_ddec_sum_bond_order
 _atom_site_hse06_10hf_magmom
 _atom_site_hse06_bader_spin_density
 _atom_site_hse06_ddec_charge
 _atom_site_hse06_ddec_spin_density
 _atom_site_hse06_ddec_sum_bond_order
 _atom_site_hse06_magmom
 _atom_site_pbe_bader_spin_density
 _atom_site_pbe_cm5_charge
 _atom_site_pbe_ddec_charge
 _atom_site_pbe_ddec_spin_density
 _atom_site_pbe_ddec_sum_bond_order
 _atom_site_pbe_magmom
Sm  Sm0  1  0.20004292  0.41336952  0.65346919  1  0  2.241377  0  1.619333  0  0  2.084257  0  2.090961  0  0  2.198792  0  1.923621  0  0  1.490687  2.047762  0  2.125619  0
Sm  Sm1  1  0.79995854  0.58662775  0.34653076  1  0  2.241393  0  1.619305  0  0  2.084282  0  2.090938  0  0  2.198823  0  1.923594  0  0  1.49067  2.047808  0  2.125541  0
Cu  Cu2  1  0.71468093  0.14310422  0.19856631  1  0  0.428269  0  1.83653  0  0  0.293185  0  2.311168  0  0  0.3021  0  2.264802  0  0  0.515339  0.290554  0  2.340412  0
Cu  Cu3  1  0.28532730  0.85689838  0.80144105  1  0  0.428115  0  1.836385  0  0  0.29306  0  2.311072  0  0  0.30196  0  2.264666  0  0  0.515329  0.290423  0  2.340381  0
H  H4  1  0.51866363  0.35149585  0.26393038  1  0  0.094529  0  0.91297  0  0  0.106328  0  0.970468  0  0  0.109688  0  0.96539  0  0  0.142944  0.103769  0  0.974172  0
H  H5  1  0.48135429  0.64850427  0.73606839  1  0  0.094381  0  0.912997  0  0  0.106226  0  0.970448  0  0  0.109585  0  0.965373  0  0  0.142938  0.103671  0  0.974152  0
H  H6  1  0.68984534  0.69533436  0.97053184  1  0  0.101952  0  0.96044  0  0  0.112033  0  1.024385  0  0  0.115161  0  1.022498  0  0  0.101907  0.109753  0  1.025844  0
H  H7  1  0.31014995  0.30466729  0.02946549  1  0  0.102025  0  0.960371  0  0  0.112104  0  1.024304  0  0  0.115229  0  1.02243  0  0  0.10194  0.109826  0  1.025756  0
H  H8  1  0.87813691  0.65397246  0.83481525  1  0  0.096167  0  0.946811  0  0  0.107897  0  1.005868  0  0  0.111751  0  1.002735  0  0  0.101512  0.105096  0  1.008086  0
H  H9  1  0.12186157  0.34603276  0.16518165  1  0  0.096189  0  0.946719  0  0  0.107909  0  1.005805  0  0  0.111771  0  1.002659  0  0  0.101533  0.105105  0  1.008021  0
H  H10  1  0.86642498  0.27817257  0.98080388  1  0  0.103632  0  0.969852  0  0  0.111842  0  1.038176  0  0  0.115563  0  1.034683  0  0  0.103027  0.109163  0  1.040623  0
H  H11  1  0.13360494  0.72182673  0.01920265  1  0  0.103558  0  0.969969  0  0  0.111768  0  1.038309  0  0  0.115491  0  1.034816  0  0  0.102995  0.1091  0  1.040751  0
H  H12  1  0.91340192  0.88775125  0.23312748  1  0  0.09294  0  0.957958  0  0  0.101631  0  1.023433  0  0  0.10479  0  1.01911  0  0  0.14138  0.099018  0  1.027142  0
H  H13  1  0.08658703  0.11225564  0.76686980  1  0  0.092949  0  0.957953  0  0  0.101684  0  1.023379  0  0  0.104881  0  1.019006  0  0  0.141408  0.099074  0  1.02711  0
H  H14  1  0.56186568  0.22653390  0.96837664  1  0  0.111455  0  0.95597  0  0  0.119921  0  1.023157  0  0  0.123892  0  1.019213  0  0  0.107443  0.117089  0  1.025894  0
H  H15  1  0.43813487  0.77347399  0.03162293  1  0  0.111514  0  0.956045  0  0  0.119974  0  1.023235  0  0  0.123946  0  1.01929  0  0  0.10747  0.117141  0  1.025971  0
H  H16  1  0.61878352  0.03110199  0.76728144  1  0  0.088799  0  0.982311  0  0  0.09667  0  1.053308  0  0  0.099855  0  1.050686  0  0  0.099832  0.094343  0  1.055213  0
H  H17  1  0.38120339  0.96890841  0.23271763  1  0  0.088798  0  0.982365  0  0  0.096656  0  1.053381  0  0  0.099821  0  1.050787  0  0  0.099831  0.094332  0  1.055271  0
H  H18  1  0.81219389  0.86441446  0.89213354  1  0  0.104431  0  0.951332  0  0  0.118871  0  1.006  0  0  0.122272  0  1.003923  0  0  0.105043  0.11635  0  1.007701  0
H  H19  1  0.18781787  0.13559624  0.10786145  1  0  0.104322  0  0.95134  0  0  0.118749  0  1.006037  0  0  0.122149  0  1.003962  0  0  0.104945  0.116231  0  1.007729  0
H  H20  1  0.63067009  0.89793590  0.34686821  1  0  0.110845  0  0.993853  0  0  0.118776  0  1.057234  0  0  0.122843  0  1.052184  0  0  0.139357  0.115816  0  1.060846  0
H  H21  1  0.36933230  0.10205694  0.65313236  1  0  0.110968  0  0.993664  0  0  0.118829  0  1.057121  0  0  0.122894  0  1.052082  0  0  0.139402  0.11587  0  1.060764  0
H  H22  1  0.83332279  0.27203570  0.36069119  1  0  0.129644  0  0.946888  0  0  0.136725  0  1.013686  0  0  0.140664  0  1.010203  0  0  0.115458  0.133754  0  1.016395  0
H  H23  1  0.16667867  0.72795536  0.63930923  1  0  0.129722  0  0.946834  0  0  0.13681  0  1.013601  0  0  0.140752  0  1.010119  0  0  0.115487  0.133859  0  1.016293  0
H  H24  1  0.89189682  0.10560982  0.68292045  1  0  0.089053  0  0.984589  0  0  0.099785  0  1.048923  0  0  0.102241  0  1.047439  0  0  0.101283  0.098093  0  1.049793  0
H  H25  1  0.10809995  0.89437232  0.31708205  1  0  0.089199  0  0.98436  0  0  0.099884  0  1.048732  0  0  0.102346  0  1.047238  0  0  0.101302  0.098185  0  1.049598  0
H  H26  1  0.79310916  0.91914130  0.68073783  1  0  0.104597  0  0.940969  0  0  0.120857  0  0.991911  0  0  0.12418  0  0.989843  0  0  0.106913  0.118378  0  0.993612  0
H  H27  1  0.20686799  0.08085305  0.31926135  1  0  0.104565  0  0.940749  0  0  0.120826  0  0.9917  0  0  0.12415  0  0.989629  0  0  0.106913  0.118346  0  0.993409  0
H  H28  1  0.54577096  0.56803410  0.16144316  1  0  0.334811  0  0.912509  0  0  0.315794  0  0.971247  0  0  0.324787  0  0.964097  0  0  0.324054  0.309431  0  0.976564  0
H  H29  1  0.45423405  0.43196500  0.83855476  1  0  0.334916  0  0.912446  0  0  0.315897  0  0.971194  0  0  0.324895  0  0.964036  0  0  0.32412  0.309535  0  0.976514  0
H  H30  1  0.93500590  0.78961537  0.10889924  1  0  0.328907  0  0.920683  0  0  0.308412  0  0.98276  0  0  0.317988  0  0.974904  0  0  0.314118  0.301745  0  0.988214  0
H  H31  1  0.06499164  0.21039431  0.89109281  1  0  0.328794  0  0.920726  0  0  0.308324  0  0.982778  0  0  0.317898  0  0.974924  0  0  0.314098  0.30166  0  0.988234  0
H  H32  1  0.67952429  0.82252692  0.53379156  1  0  0.325298  0  0.831785  0  0  0.319257  0  0.869324  0  0  0.325656  0  0.865564  0  0  0.351414  0.314693  0  0.87208  0
H  H33  1  0.32046855  0.17746762  0.46620445  1  0  0.325234  0  0.831649  0  0  0.319314  0  0.869044  0  0  0.325713  0  0.865279  0  0  0.351417  0.31476  0  0.871799  0
C  C34  1  0.58062695  0.38195885  0.19076780  1  0  0.279591  0  3.657745  0  0  0.215146  0  3.938043  0  0  0.233059  0  3.945834  0  0  0.169264  0.203479  0  3.932497  0
C  C35  1  0.41939360  0.61804128  0.80923303  1  0  0.279878  0  3.657429  0  0  0.215412  0  3.937796  0  0  0.233325  0  3.945586  0  0  0.169291  0.203735  0  3.932267  0
C  C36  1  0.67773593  0.50794910  0.05096767  1  0  0.175415  0  3.772071  0  0  0.165122  0  4.014182  0  0  0.170977  0  4.036522  0  0  0.103299  0.161301  0  3.999003  0
C  C37  1  0.32227584  0.49205536  0.94903343  1  0  0.175283  0  3.77241  0  0  0.16501  0  4.014493  0  0  0.170868  0  4.036825  0  0  0.103259  0.161188  0  3.999306  0
C  C38  1  0.72836532  0.60547970  0.97229005  1  0  -0.149162  0  3.752973  0  0  -0.168232  0  4.012164  0  0  -0.172852  0  4.033029  0  0  -0.094015  -0.165188  0  3.997985  0
C  C39  1  0.27164122  0.39452470  0.02771116  1  0  -0.149204  0  3.753034  0  0  -0.168258  0  4.012218  0  0  -0.172879  0  4.033085  0  0  -0.094052  -0.165204  0  3.998031  0
C  C40  1  0.83120543  0.58216624  0.89744563  1  0  -0.071625  0  3.761352  0  0  -0.099157  0  4.016921  0  0  -0.099094  0  4.038586  0  0  -0.089949  -0.098843  0  4.001797  0
C  C41  1  0.16880485  0.41783909  0.10255594  1  0  -0.071583  0  3.76149  0  0  -0.099155  0  4.017028  0  0  -0.099095  0  4.038692  0  0  -0.08997  -0.098846  0  4.001901  0
C  C42  1  0.87910415  0.46539612  0.89929337  1  0  -0.067477  0  3.771102  0  0  -0.047108  0  4.007237  0  0  -0.055878  0  4.031706  0  0  -0.025289  -0.041132  0  3.990115  0
C  C43  1  0.12091827  0.53460758  0.10070564  1  0  -0.067678  0  3.771286  0  0  -0.047165  0  4.007287  0  0  -0.055944  0  4.03177  0  0  -0.025277  -0.041181  0  3.990166  0
C  C44  1  0.98697355  0.44638000  0.81591037  1  0  0.648684  0  3.918817  0  0  0.606226  0  4.2049  0  0  0.639409  0  4.203647  0  0  0.196865  0.582988  0  4.210063  0
C  C45  1  0.01304103  0.55362360  0.18409164  1  0  0.649088  0  3.919009  0  0  0.606604  0  4.205072  0  0  0.639793  0  4.203808  0  0  0.19702  0.583351  0  4.210263  0
C  C46  1  0.82853609  0.36819925  0.97873175  1  0  -0.135682  0  3.71445  0  0  -0.166724  0  3.966847  0  0  -0.165489  0  3.983805  0  0  -0.086725  -0.167268  0  3.955025  0
C  C47  1  0.17148670  0.63180268  0.02126849  1  0  -0.135557  0  3.71466  0  0  -0.166715  0  3.96709  0  0  -0.165482  0  3.984052  0  0  -0.086725  -0.167264  0  3.955262  0
C  C48  1  0.72997442  0.39019297  0.05576293  1  0  0.129621  0  3.825327  0  0  0.130537  0  4.068543  0  0  0.13147  0  4.091954  0  0  0.080885  0.129844  0  4.052807  0
C  C49  1  0.27003978  0.60981240  0.94423714  1  0  0.129587  0  3.825655  0  0  0.130597  0  4.06875  0  0  0.131541  0  4.09215  0  0  0.080926  0.129906  0  4.053017  0
C  C50  1  0.86148083  0.93193090  0.15689079  1  0  0.2642  0  3.654352  0  0  0.201091  0  3.932032  0  0  0.217972  0  3.941869  0  0  0.164322  0.189969  0  3.925505  0
C  C51  1  0.13851279  0.06807250  0.84310745  1  0  0.264133  0  3.654154  0  0  0.201004  0  3.93185  0  0  0.217857  0  3.941662  0  0  0.1643  0.189877  0  3.925358  0
C  C52  1  0.72168963  0.05556562  0.02292217  1  0  0.123855  0  3.821989  0  0  0.125395  0  4.06469  0  0  0.125359  0  4.089335  0  0  0.081066  0.125299  0  4.04818  0
C  C53  1  0.27831205  0.94444317  0.97707640  1  0  0.123854  0  3.821988  0  0  0.125379  0  4.064779  0  0  0.125339  0  4.089429  0  0  0.081141  0.125284  0  4.048266  0
C  C54  1  0.61765178  0.14857143  0.95215907  1  0  -0.118504  0  3.699294  0  0  -0.149898  0  3.951047  0  0  -0.147578  0  3.967385  0  0  -0.078874  -0.151163  0  3.939675  0
C  C55  1  0.38234372  0.85143553  0.04783948  1  0  -0.118587  0  3.699748  0  0  -0.150046  0  3.951485  0  0  -0.147735  0  3.96783  0  0  -0.079011  -0.151312  0  3.94011  0
C  C56  1  0.58222720  0.13784289  0.86010423  1  0  -0.066173  0  3.748266  0  0  -0.046438  0  3.984186  0  0  -0.055585  0  4.007501  0  0  -0.025085  -0.040312  0  3.967993  0
C  C57  1  0.41775970  0.86216753  0.13989203  1  0  -0.0662  0  3.748444  0  0  -0.04625  0  3.984069  0  0  -0.055383  0  4.007373  0  0  -0.024967  -0.040121  0  3.967871  0
C  C58  1  0.46066681  0.23235785  0.78630317  1  0  0.650014  0  3.925076  0  0  0.605373  0  4.212734  0  0  0.63859  0  4.211742  0  0  0.200182  0.582188  0  4.21741  0
C  C59  1  0.53931840  0.76763567  0.21370104  1  0  0.649987  0  3.924638  0  0  0.605303  0  4.212308  0  0  0.638516  0  4.211313  0  0  0.200218  0.58211  0  4.216996  0
C  C60  1  0.65204969  0.03570610  0.83946531  1  0  -0.064703  0  3.753733  0  0  -0.093119  0  4.011288  0  0  -0.091557  0  4.031476  0  0  -0.088567  -0.093888  0  3.997322  0
C  C61  1  0.34794674  0.96429644  0.16053385  1  0  -0.064765  0  3.754063  0  0  -0.093235  0  4.011566  0  0  -0.091666  0  4.031769  0  0  -0.088639  -0.094002  0  3.99759  0
C  C62  1  0.75795555  0.94253949  0.90883823  1  0  -0.165611  0  3.763356  0  0  -0.182087  0  4.019548  0  0  -0.187351  0  4.039286  0  0  -0.097636  -0.178672  0  4.006278  0
C  C63  1  0.24205172  0.05746761  0.09115794  1  0  -0.165594  0  3.76321  0  0  -0.182051  0  4.019452  0  0  -0.187314  0  4.039185  0  0  -0.097642  -0.178642  0  4.006173  0
C  C64  1  0.79009716  0.95302013  0.00144446  1  0  0.17256  0  3.775744  0  0  0.161216  0  4.020943  0  0  0.167357  0  4.043902  0  0  0.099737  0.157242  0  4.005271  0
C  C65  1  0.20989703  0.04699302  0.99855223  1  0  0.172667  0  3.775622  0  0  0.161293  0  4.020892  0  0  0.167433  0  4.043851  0  0  0.099867  0.157326  0  4.005214  0
C  C66  1  0.67405812  0.95059094  0.38761662  1  0  0.253402  0  3.638933  0  0  0.189996  0  3.918112  0  0  0.207174  0  3.925582  0  0  0.157989  0.178796  0  3.912646  0
C  C67  1  0.32593154  0.04940624  0.61237583  1  0  0.253299  0  3.639139  0  0  0.189917  0  3.918388  0  0  0.207088  0  3.925862  0  0  0.157924  0.178718  0  3.912968  0
C  C68  1  0.82173622  0.19562979  0.42922607  1  0  -0.126603  0  3.66675  0  0  -0.158628  0  3.916424  0  0  -0.156935  0  3.933271  0  0  -0.076713  -0.159428  0  3.904688  0
C  C69  1  0.17826412  0.80436036  0.57077606  1  0  -0.126696  0  3.666747  0  0  -0.158715  0  3.916413  0  0  -0.157028  0  3.933266  0  0  -0.076712  -0.159545  0  3.904674  0
C  C70  1  0.86951481  0.19780994  0.52293936  1  0  -0.074495  0  3.729347  0  0  -0.054914  0  3.967222  0  0  -0.063909  0  3.989942  0  0  -0.02084  -0.04883  0  3.950766  0
C  C71  1  0.13047787  0.80217924  0.47706391  1  0  -0.074471  0  3.729374  0  0  -0.054832  0  3.967189  0  0  -0.063821  0  3.989919  0  0  -0.020784  -0.048727  0  3.950693  0
C  C72  1  0.93991436  0.30391352  0.53110228  1  0  0.729195  0  3.848335  0  0  0.685212  0  4.134835  0  0  0.721477  0  4.127503  0  0  0.238739  0.660795  0  4.141879  0
C  C73  1  0.06007887  0.69607300  0.46890249  1  0  0.729007  0  3.848438  0  0  0.684898  0  4.13512  0  0  0.721135  0  4.127844  0  0  0.238534  0.660474  0  4.142136  0
C  C74  1  0.85735105  0.09866572  0.61197068  1  0  -0.056068  0  3.751309  0  0  -0.086089  0  4.00705  0  0  -0.085087  0  4.028436  0  0  -0.088655  -0.086392  0  3.991999  0
C  C75  1  0.14263508  0.90132338  0.38803274  1  0  -0.05626  0  3.7513  0  0  -0.086249  0  4.007028  0  0  -0.085246  0  4.02841  0  0  -0.088627  -0.086545  0  3.991943  0
C  C76  1  0.80021674  0.99524727  0.61153816  1  0  -0.16415  0  3.785134  0  0  -0.180016  0  4.040187  0  0  -0.185053  0  4.060527  0  0  -0.09648  -0.176743  0  4.026552  0
C  C77  1  0.19976902  0.00474360  0.38846614  1  0  -0.164133  0  3.7848  0  0  -0.179945  0  4.039846  0  0  -0.184975  0  4.060189  0  0  -0.096567  -0.176688  0  4.0262  0
C  C78  1  0.75457319  0.99309846  0.51811175  1  0  0.162567  0  3.807682  0  0  0.149991  0  4.058235  0  0  0.155426  0  4.08206  0  0  0.096694  0.146434  0  4.042115  0
C  C79  1  0.24542622  0.00688989  0.48189305  1  0  0.162689  0  3.807735  0  0  0.149984  0  4.058476  0  0  0.155403  0  4.082319  0  0  0.096835  0.146448  0  4.042346  0
C  C80  1  0.53370676  0.53140551  0.53436199  1  0  0.568112  0  3.925187  0  0  0.530185  0  4.217531  0  0  0.559532  0  4.21553  0  0  0.214786  0.510028  0  4.22269  0
C  C81  1  0.46627122  0.46861005  0.46564554  1  0  0.568125  0  3.924842  0  0  0.530119  0  4.217269  0  0  0.559467  0  4.215269  0  0  0.21482  0.509956  0  4.222439  0
C  C82  1  0.76437619  0.09174415  0.42734929  1  0  0.121796  0  3.809385  0  0  0.124077  0  4.053917  0  0  0.124109  0  4.079021  0  0  0.079431  0.123964  0  4.037062  0
C  C83  1  0.23562564  0.90824515  0.57265096  1  0  0.121844  0  3.809472  0  0  0.124096  0  4.054095  0  0  0.124131  0  4.079204  0  0  0.07931  0.123981  0  4.03725  0
N  N84  1  0.58031969  0.49832632  0.13621349  1  0  -0.342279  0  3.395157  0  0  -0.280835  0  3.631843  0  0  -0.300342  0  3.64601  0  0  -0.373231  -0.267959  0  3.622429  0
N  N85  1  0.41969749  0.50167732  0.86378634  1  0  -0.342438  0  3.395346  0  0  -0.281089  0  3.632181  0  0  -0.300599  0  3.646342  0  0  -0.373276  -0.26821  0  3.622777  0
N  N86  1  0.66752864  0.31290225  0.14534021  1  0  -0.422806  0  3.380375  0  0  -0.356375  0  3.715821  0  0  -0.370532  0  3.717053  0  0  -0.40406  -0.347473  0  3.714357  0
N  N87  1  0.33249266  0.68710054  0.85466051  1  0  -0.422754  0  3.38003  0  0  -0.356334  0  3.715464  0  0  -0.370489  0  3.716678  0  0  -0.4041  -0.347425  0  3.714022  0
N  N88  1  0.76997461  0.03941614  0.12151627  1  0  -0.415948  0  3.348551  0  0  -0.347771  0  3.676684  0  0  -0.362139  0  3.680008  0  0  -0.395685  -0.338738  0  3.673919  0
N  N89  1  0.23002351  0.96059084  0.87848292  1  0  -0.415772  0  3.3485  0  0  -0.347627  0  3.676701  0  0  -0.361984  0  3.680013  0  0  -0.395655  -0.338596  0  3.673971  0
N  N90  1  0.87877111  0.87794093  0.08796856  1  0  -0.34223  0  3.368172  0  0  -0.278857  0  3.603403  0  0  -0.298166  0  3.616187  0  0  -0.372389  -0.265866  0  3.594373  0
N  N91  1  0.12122047  0.12206597  0.91203077  1  0  -0.342173  0  3.368093  0  0  -0.278812  0  3.603346  0  0  -0.298125  0  3.616161  0  0  -0.37244  -0.265823  0  3.594325  0
N  N92  1  0.69594084  0.90683778  0.48955595  1  0  -0.327765  0  3.377183  0  0  -0.269611  0  3.614961  0  0  -0.287097  0  3.62672  0  0  -0.371162  -0.257797  0  3.60662  0
N  N93  1  0.30404640  0.09315224  0.51044435  1  0  -0.327737  0  3.37756  0  0  -0.269676  0  3.615399  0  0  -0.287153  0  3.627163  0  0  -0.371231  -0.257882  0  3.607084  0
N  N94  1  0.71293465  0.06111594  0.34690749  1  0  -0.415464  0  3.310753  0  0  -0.348913  0  3.63451  0  0  -0.363032  0  3.637567  0  0  -0.38864  -0.340065  0  3.632087  0
N  N95  1  0.28706156  0.93887509  0.65308881  1  0  -0.415456  0  3.310674  0  0  -0.348861  0  3.634375  0  0  -0.362974  0  3.637414  0  0  -0.388511  -0.340002  0  3.63199  0
O  O96  1  0.06281691  0.53035487  0.75456001  1  0  -0.680075  0  1.959942  0  0  -0.63377  0  2.196501  0  0  -0.664948  0  2.187723  0  0  -0.375819  -0.617224  0  2.202371  0
O  O97  1  0.93721880  0.46964184  0.24544720  1  0  -0.680276  0  1.960045  0  0  -0.633996  0  2.196648  0  0  -0.665176  0  2.187861  0  0  -0.375993  -0.617445  0  2.202517  0
O  O98  1  0.00228635  0.34438133  0.80595057  1  0  -0.719599  0  2.005176  0  0  -0.665996  0  2.2374  0  0  -0.697754  0  2.228257  0  0  -0.37739  -0.6487  0  2.243532  0
O  O99  1  0.99770651  0.65562564  0.19404168  1  0  -0.719752  0  2.005403  0  0  -0.666139  0  2.23764  0  0  -0.697901  0  2.228493  0  0  -0.377351  -0.648838  0  2.243777  0
O  O100  1  0.39362253  0.32249284  0.80812837  1  0  -0.71855  0  2.071746  0  0  -0.666517  0  2.315313  0  0  -0.698232  0  2.307323  0  0  -0.377688  -0.649006  0  2.320503  0
O  O101  1  0.60639333  0.67751705  0.19186256  1  0  -0.718596  0  2.071737  0  0  -0.666561  0  2.31532  0  0  -0.698272  0  2.307324  0  0  -0.377742  -0.64905  0  2.320509  0
O  O102  1  0.41608424  0.22330527  0.70404339  1  0  -0.68285  0  1.993929  0  0  -0.632946  0  2.230977  0  0  -0.665221  0  2.223473  0  0  -0.359025  -0.615346  0  2.2358  0
O  O103  1  0.58387199  0.77667635  0.29597061  1  0  -0.682719  0  1.993726  0  0  -0.632846  0  2.230726  0  0  -0.665119  0  2.223214  0  0  -0.359022  -0.615246  0  2.235544  0
O  O104  1  0.02482194  0.28892705  0.61185464  1  0  -0.738345  0  1.982087  0  0  -0.68737  0  2.236324  0  0  -0.722369  0  2.220891  0  0  -0.403253  -0.669737  0  2.244943  0
O  O105  1  0.97521424  0.71105473  0.38813455  1  0  -0.738282  0  1.981991  0  0  -0.687268  0  2.236269  0  0  -0.722261  0  2.22085  0  0  -0.403225  -0.669652  0  2.244874  0
O  O106  1  0.91510460  0.40224074  0.45867772  1  0  -0.762746  0  2.091732  0  0  -0.711579  0  2.355809  0  0  -0.748644  0  2.340884  0  0  -0.409692  -0.693895  0  2.364598  0
O  O107  1  0.08486043  0.59775519  0.54132967  1  0  -0.762614  0  2.091829  0  0  -0.711378  0  2.35588  0  0  -0.74842  0  2.340958  0  0  -0.409603  -0.693724  0  2.364685  0
O  O108  1  0.45675085  0.51534429  0.61802626  1  0  -0.676948  0  2.024896  0  0  -0.630584  0  2.266615  0  0  -0.662117  0  2.253938  0  0  -0.391701  -0.614036  0  2.272888  0
O  O109  1  0.54323402  0.48468207  0.38196661  1  0  -0.677069  0  2.024257  0  0  -0.630679  0  2.266016  0  0  -0.662218  0  2.253337  0  0  -0.391847  -0.614125  0  2.272292  0
O  O110  1  0.65900867  0.59292234  0.50147788  1  0  -0.659812  0  2.012319  0  0  -0.618187  0  2.24985  0  0  -0.647094  0  2.236186  0  0  -0.376379  -0.603348  0  2.257293  0
O  O111  1  0.34098197  0.40708901  0.49851732  1  0  -0.659764  0  2.012612  0  0  -0.618117  0  2.250188  0  0  -0.647021  0  2.236524  0  0  -0.376301  -0.60327  0  2.257631  0
