# generated using pymatgen
data_CoMo4H24C36N12O13
_symmetry_space_group_name_H-M   'P 1'
_cell_length_a   8.08675727
_cell_length_b   8.63369947
_cell_length_c   13.57731091
_cell_angle_alpha   80.87069291
_cell_angle_beta   83.59604595
_cell_angle_gamma   82.33345383
_symmetry_Int_Tables_number   1
_chemical_formula_structural   CoMo4H24C36N12O13
_chemical_formula_sum   'Co1 Mo4 H24 C36 N12 O13'
_cell_volume   923.61087913
_cell_formula_units_Z   1
loop_
 _symmetry_equiv_pos_site_id
 _symmetry_equiv_pos_as_xyz
  1  'x, y, z'
loop_
 _atom_site_type_symbol
 _atom_site_label
 _atom_site_symmetry_multiplicity
 _atom_site_fract_x
 _atom_site_fract_y
 _atom_site_fract_z
 _atom_site_occupancy
 _atom_site_hse06_10hf_ddec_charge
 _atom_site_hse06_10hf_ddec_spin_density
 _atom_site_hse06_10hf_ddec_sum_bond_order
 _atom_site_hse06_10hf_magmom
 _atom_site_hse06_ddec_charge
 _atom_site_hse06_ddec_spin_density
 _atom_site_hse06_ddec_sum_bond_order
 _atom_site_hse06_magmom
 _atom_site_pbe_cm5_charge
 _atom_site_pbe_ddec_charge
 _atom_site_pbe_ddec_spin_density
 _atom_site_pbe_ddec_sum_bond_order
 _atom_site_pbe_magmom
Co  Co0  1  0.99999645  0.99999826  0.49999991  1  1.010541  1.061218  2.782427  0.985  1.055302  1.040212  2.715947  0.973  0.692852  0.987181  1.05922  2.821091  0.973
Mo  Mo1  1  0.35067201  0.68358694  0.57583599  1  2.168627  0.012867  4.702935  0.023  2.275588  0.011112  4.656234  0.02  1.529974  2.094312  0.014851  4.735411  0.026
Mo  Mo2  1  0.64932514  0.31641195  0.42416379  1  2.168356  0.012869  4.703117  0.023  2.275337  0.011113  4.656398  0.02  1.52989  2.094049  0.014853  4.735597  0.026
Mo  Mo3  1  0.80930586  0.63090871  0.54809198  1  2.225694  -0.030913  4.554293  -0.024  2.333935  -0.020849  4.518669  -0.016  1.549161  2.150216  -0.033942  4.581015  -0.027
Mo  Mo4  1  0.19069022  0.36908898  0.45190800  1  2.225778  -0.030894  4.554134  -0.024  2.334013  -0.02084  4.518519  -0.016  1.549176  2.150285  -0.03393  4.580878  -0.027
H  H5  1  0.15729760  0.73576761  0.40858370  1  0.082646  -0.000332  1.094446  0.0  0.0842  -0.000259  1.092473  0.0  0.114699  0.081259  -0.000353  1.096319  0.0
H  H6  1  0.84270218  0.26423016  0.59141678  1  0.082614  -0.000332  1.094477  0.0  0.084168  -0.000259  1.092502  0.0  0.11466  0.081228  -0.000353  1.096347  0.0
H  H7  1  0.30225600  0.69022404  0.24377499  1  0.13499  -9.4e-05  1.007033  0.0  0.138062  -7.4e-05  1.005405  0.0  0.116552  0.132731  -0.000102  1.008456  0.0
H  H8  1  0.69774700  0.30977734  0.75622491  1  0.134992  -9.4e-05  1.007065  0.0  0.138064  -7.4e-05  1.005438  0.0  0.116561  0.132734  -0.000102  1.00849  0.0
H  H9  1  0.08640932  0.15536982  0.12198225  1  0.125866  -9.2e-05  1.030977  0.0  0.12879  -7.5e-05  1.029945  0.0  0.113566  0.123826  -9.4e-05  1.03178  0.0
H  H10  1  0.91358872  0.84463147  0.87801796  1  0.125861  -9.2e-05  1.030972  0.0  0.128783  -7.6e-05  1.029942  0.0  0.113559  0.123815  -9.4e-05  1.03179  0.0
H  H11  1  0.96731112  0.19300761  0.29698646  1  0.092498  -0.00027  1.040957  0.0  0.094034  -0.000204  1.038854  0.0  0.120743  0.091184  -0.000297  1.042773  0.0
H  H12  1  0.03268246  0.80699006  0.70301442  1  0.092523  -0.00027  1.040963  0.0  0.094059  -0.000204  1.038857  0.0  0.120787  0.091213  -0.000297  1.042773  0.0
H  H13  1  0.62132032  0.54400505  0.14824629  1  0.126889  4e-06  1.013945  0.0  0.130807  3e-06  1.011476  0.0  0.108102  0.123991  5e-06  1.015901  0.0
H  H14  1  0.37867915  0.45599505  0.85175248  1  0.126947  4e-06  1.013865  0.0  0.130864  3e-06  1.011398  0.0  0.108133  0.124052  5e-06  1.015818  0.0
H  H15  1  0.84456206  0.32077678  0.14029056  1  0.082846  -2e-06  1.013889  0.0  0.085171  0.0  1.012291  0.0  0.106126  0.081127  -5e-06  1.015089  0.0
H  H16  1  0.15543808  0.67922696  0.85971147  1  0.082873  -2e-06  1.01388  0.0  0.085199  0.0  1.012276  0.0  0.10615  0.081165  -5e-06  1.015061  0.0
H  H17  1  0.92760316  0.42789037  0.83114307  1  0.077022  8e-06  1.034267  0.0  0.078705  7e-06  1.033211  0.0  0.106902  0.075769  8e-06  1.035091  0.0
H  H18  1  0.07240373  0.57210989  0.16885671  1  0.077045  8e-06  1.034323  0.0  0.078727  7e-06  1.033268  0.0  0.106921  0.075795  8e-06  1.035141  0.0
H  H19  1  0.70376181  0.65219351  0.82592236  1  0.125414  2e-06  1.022992  0.0  0.129235  3e-06  1.02031  0.0  0.108365  0.122579  -1e-06  1.025158  0.0
H  H20  1  0.29624612  0.34780797  0.17407870  1  0.125446  2e-06  1.022922  0.0  0.129269  3e-06  1.020241  0.0  0.108386  0.122611  -1e-06  1.025087  0.0
H  H21  1  0.09177570  0.39295063  0.70229707  1  0.091705  5e-06  1.023466  0.0  0.09431  6e-06  1.020405  0.0  0.114907  0.089651  4e-06  1.025887  0.0
H  H22  1  0.90822260  0.60704938  0.29769811  1  0.091751  5e-06  1.023454  0.0  0.09436  6e-06  1.020386  0.0  0.114904  0.089656  4e-06  1.025923  0.0
H  H23  1  0.13202122  0.22886888  0.87124680  1  0.118688  -8e-06  1.049629  0.0  0.123474  -6e-06  1.046192  0.0  0.109992  0.115315  -1e-05  1.052149  0.0
H  H24  1  0.86797672  0.77113351  0.12874888  1  0.11867  -8e-06  1.049671  0.0  0.123457  -6e-06  1.04623  0.0  0.109988  0.115294  -1e-05  1.052192  0.0
H  H25  1  0.49910854  0.91584330  0.71973951  1  0.126717  -5e-06  1.014222  0.0  0.131216  -3e-06  1.011301  0.0  0.112706  0.123436  -6e-06  1.016567  0.0
H  H26  1  0.50089248  0.08415451  0.28026163  1  0.126751  -4e-06  1.014212  0.0  0.131249  -3e-06  1.011292  0.0  0.112706  0.123467  -6e-06  1.016558  0.0
H  H27  1  0.43683780  0.08484642  0.55876837  1  0.092783  5e-06  1.027241  0.0  0.095723  -2e-06  1.024149  0.0  0.114714  0.090419  1e-05  1.02979  0.0
H  H28  1  0.56316466  0.91515019  0.44123060  1  0.092813  5e-06  1.027245  0.0  0.09576  -2e-06  1.024143  0.0  0.114744  0.090451  1e-05  1.029788  0.0
C  C29  1  0.14917999  0.82835679  0.34480492  1  0.089749  -0.004206  3.937875  -0.003  0.097575  -0.003397  3.956543  -0.002  0.044264  0.084069  -0.004784  3.926305  -0.003
C  C30  1  0.85082216  0.17164215  0.65519235  1  0.089814  -0.004208  3.937778  -0.003  0.097661  -0.003397  3.956455  -0.002  0.044379  0.084134  -0.004784  3.926206  -0.003
C  C31  1  0.22810876  0.80276759  0.25204568  1  -0.148267  -4.3e-05  3.939745  0.0  -0.155775  0.000342  3.961814  0.001  -0.072034  -0.143339  -0.000379  3.925337  0.0
C  C32  1  0.77189566  0.19723261  0.74795352  1  -0.148237  -4.3e-05  3.939751  0.0  -0.155744  0.000342  3.961817  0.001  -0.072075  -0.143308  -0.000379  3.925344  0.0
C  C33  1  0.20968677  0.92159591  0.16981354  1  0.054436  -0.003793  3.948995  -0.002  0.055919  -0.002827  3.969254  -0.002  0.018067  0.053294  -0.004748  3.935403  -0.003
C  C34  1  0.79031466  0.07840779  0.83018547  1  0.054292  -0.003793  3.948945  -0.002  0.055772  -0.002826  3.969206  -0.002  0.018002  0.053147  -0.004747  3.935354  -0.003
C  C35  1  0.10811609  0.06202262  0.18494254  1  -0.138163  0.00014  3.895017  0.001  -0.145144  0.000425  3.916217  0.001  -0.066243  -0.133431  -9.3e-05  3.880844  0.0
C  C36  1  0.89188549  0.93797992  0.81505732  1  -0.138098  0.000141  3.895164  0.001  -0.145077  0.000425  3.91636  0.001  -0.06622  -0.133379  -9.3e-05  3.881021  0.0
C  C37  1  0.04029367  0.08266462  0.28165793  1  0.102585  -0.004425  3.877825  -0.003  0.110869  -0.003584  3.896446  -0.002  0.054678  0.096785  -0.004992  3.866012  -0.003
C  C38  1  0.95969915  0.91732950  0.71834484  1  0.102505  -0.004426  3.877985  -0.003  0.110811  -0.003583  3.896614  -0.002  0.054578  0.096707  -0.00499  3.866166  -0.003
C  C39  1  0.30075801  0.89501022  0.07207281  1  0.385363  -0.000356  4.012407  0.0  0.403441  -4.1e-05  4.020729  0.0  0.262388  0.373214  -0.0009  4.006922  0.0
C  C40  1  0.69924307  0.10499586  0.92792670  1  0.385396  -0.000356  4.012186  0.0  0.403474  -4.1e-05  4.02051  0.0  0.262453  0.373245  -0.0009  4.0067  0.0
C  C41  1  0.50809968  0.74965144  0.98740077  1  0.387751  3.7e-05  4.029556  0.0  0.40548  8.6e-05  4.040251  0.0  0.263912  0.375996  -3.8e-05  4.022204  0.0
C  C42  1  0.49190190  0.25035111  0.01259983  1  0.387749  3.7e-05  4.029605  0.0  0.405481  8.6e-05  4.040298  0.0  0.263905  0.375992  -3.8e-05  4.022251  0.0
C  C43  1  0.35232701  0.95804953  0.90408609  1  0.382551  3.7e-05  4.004518  0.0  0.399621  9.1e-05  4.01459  0.0  0.261682  0.371139  -4.1e-05  3.997733  0.0
C  C44  1  0.64767137  0.04194940  0.09591436  1  0.382638  3.7e-05  4.004403  0.0  0.399726  9.1e-05  4.014447  0.0  0.261713  0.371231  -4.1e-05  3.997605  0.0
C  C45  1  0.64513468  0.61845521  0.98721796  1  0.028424  -1.6e-05  3.9852  0.0  0.027288  -3.4e-05  4.00705  0.0  0.005808  0.029446  -1.3e-05  3.97009  0.0
C  C46  1  0.35486708  0.38154614  0.01278202  1  0.028358  -1.6e-05  3.985339  0.0  0.027218  -3.5e-05  4.007185  0.0  0.005769  0.029378  -1.3e-05  3.970234  0.0
C  C47  1  0.68705743  0.52302677  0.07634668  1  -0.139502  1.3e-05  3.918601  0.0  -0.144477  2.4e-05  3.939042  0.0  -0.076734  -0.136187  4e-06  3.904843  0.0
C  C48  1  0.31294412  0.47697581  0.92365539  1  -0.139526  1.3e-05  3.918637  0.0  -0.144496  2.4e-05  3.939076  0.0  -0.076767  -0.136212  4e-06  3.90488  0.0
C  C49  1  0.81331952  0.39701258  0.07119061  1  0.092514  -2.1e-05  3.985027  0.0  0.096633  -2.7e-05  4.003199  0.0  0.036763  0.08987  -2.6e-05  3.972648  0.0
C  C50  1  0.18668115  0.60298758  0.92881030  1  0.092419  -2e-05  3.985089  0.0  0.096537  -2.8e-05  4.003263  0.0  0.036722  0.089775  -2.6e-05  3.972715  0.0
C  C51  1  0.85844256  0.45581742  0.90086096  1  0.090327  -1.1e-05  3.998842  0.0  0.094288  -2e-05  4.017591  0.0  0.037336  0.087796  -1e-05  3.986024  0.0
C  C52  1  0.14155759  0.54418630  0.09914033  1  0.090308  -1.1e-05  3.998953  0.0  0.094268  -1.9e-05  4.017702  0.0  0.037284  0.087779  -1e-05  3.986132  0.0
C  C53  1  0.73353513  0.58349261  0.89733899  1  -0.142964  2e-05  3.928127  0.0  -0.147572  2.9e-05  3.947832  0.0  -0.077649  -0.139844  8e-06  3.91479  0.0
C  C54  1  0.26646982  0.41651238  0.10266187  1  -0.142966  2e-05  3.928114  0.0  -0.147575  2.9e-05  3.947822  0.0  -0.077633  -0.139847  8e-06  3.914777  0.0
C  C55  1  0.18002971  0.28570470  0.70971034  1  0.109752  -0.000107  3.942362  0.0  0.117394  -0.000107  3.95909  0.0  0.046314  0.10481  -0.000127  3.931059  0.0
C  C56  1  0.81996887  0.71429301  0.29028801  1  0.109647  -0.000108  3.942393  0.0  0.117284  -0.000108  3.959115  0.0  0.046308  0.104735  -0.000127  3.931116  0.0
C  C57  1  0.20291695  0.19553515  0.80305271  1  -0.137868  -0.000112  3.893821  0.0  -0.143652  -1.6e-05  3.913084  0.0  -0.071561  -0.133983  -0.000209  3.880609  0.0
C  C58  1  0.79708162  0.80446257  0.19694638  1  -0.137744  -0.000111  3.893881  0.0  -0.143531  -1.7e-05  3.913163  0.0  -0.0715  -0.133859  -0.000209  3.880663  0.0
C  C59  1  0.31966267  0.05987862  0.80806951  1  0.04998  -0.000119  3.954522  0.0  0.051375  -0.000109  3.974559  0.0  0.013425  0.049414  -0.000159  3.940663  0.0
C  C60  1  0.68033912  0.94012271  0.19192899  1  0.049917  -0.000119  3.954548  0.0  0.051305  -0.000109  3.97458  0.0  0.013421  0.049348  -0.000159  3.940692  0.0
C  C61  1  0.40778550  0.02065085  0.71894903  1  -0.151289  3.4e-05  3.94043  0.0  -0.157321  3.8e-05  3.959532  0.0  -0.076857  -0.147428  3.8e-05  3.927794  0.0
C  C62  1  0.59221288  0.97934807  0.28105067  1  -0.151337  3.4e-05  3.940453  0.0  -0.157368  3.8e-05  3.959556  0.0  -0.076879  -0.147472  3.8e-05  3.927813  0.0
C  C63  1  0.37436048  0.11537914  0.62940519  1  0.11191  -0.000126  3.958183  0.0  0.11955  -0.000123  3.974251  0.0  0.041195  0.106644  -0.000141  3.947864  0.0
C  C64  1  0.62563932  0.88461861  0.37059456  1  0.111852  -0.000126  3.958248  0.0  0.119487  -0.000124  3.974311  0.0  0.04116  0.106587  -0.000141  3.947929  0.0
N  N65  1  0.06257583  0.96800644  0.36109550  1  -0.192798  -0.013254  3.568356  -0.01  -0.219317  -0.01129  3.587758  -0.009  -0.324387  -0.17647  -0.013107  3.55552  -0.01
N  N66  1  0.93742146  0.03199130  0.63890587  1  -0.192782  -0.013254  3.568272  -0.01  -0.219365  -0.011292  3.587736  -0.009  -0.324388  -0.176449  -0.013108  3.555423  -0.01
N  N67  1  0.26048421  0.99228423  0.98853095  1  -0.386051  -0.000748  3.185446  -0.001  -0.401372  -0.000566  3.193962  0.0  -0.293892  -0.376169  -0.001039  3.180024  -0.001
N  N68  1  0.73951863  0.00771832  0.01146810  1  -0.386024  -0.000747  3.185277  -0.001  -0.401349  -0.000566  3.193787  0.0  -0.293895  -0.37614  -0.001039  3.179849  -0.001
N  N69  1  0.42388027  0.77368828  0.07550011  1  -0.407279  -0.000773  3.264716  -0.001  -0.425012  -0.000577  3.277583  0.0  -0.297251  -0.395801  -0.001065  3.25636  -0.001
N  N70  1  0.57612188  0.22631900  0.92449921  1  -0.407247  -0.000773  3.264709  -0.001  -0.424982  -0.000576  3.277575  0.0  -0.297255  -0.395767  -0.001065  3.25635  -0.001
N  N71  1  0.47581383  0.83827136  0.89948279  1  -0.406141  -0.000956  3.249213  -0.001  -0.423601  -0.000624  3.260987  0.0  -0.298604  -0.394964  -0.001464  3.241606  -0.001
N  N72  1  0.52418652  0.16173115  0.10051715  1  -0.406197  -0.000956  3.249247  -0.001  -0.423665  -0.000624  3.261016  0.0  -0.298608  -0.395019  -0.001464  3.241632  -0.001
N  N73  1  0.89882903  0.36159015  0.98543739  1  -0.281201  0.0  3.350661  0.0  -0.291432  1.3e-05  3.367487  0.0  -0.324046  -0.273953  -2.1e-05  3.338994  0.0
N  N74  1  0.10117733  0.63841368  0.01456351  1  -0.281144  0.0  3.350635  0.0  -0.291374  1.3e-05  3.367458  0.0  -0.324015  -0.273896  -2.1e-05  3.338971  0.0
N  N75  1  0.26301054  0.24650741  0.62374676  1  -0.315477  5.3e-05  3.505638  0.0  -0.334259  1.6e-05  3.527492  0.0  -0.330155  -0.30294  8.7e-05  3.491184  0.0
N  N76  1  0.73698806  0.75349028  0.37625086  1  -0.315431  5.3e-05  3.505646  0.0  -0.334213  1.6e-05  3.527504  0.0  -0.330171  -0.302898  8.7e-05  3.491188  0.0
O  O77  1  0.23410731  0.86537445  0.53877199  1  -0.785565  0.013609  1.96539  0.02  -0.818584  0.009688  1.95136  0.014  -0.526919  -0.762049  0.018011  1.973844  0.027
O  O78  1  0.76589248  0.13462331  0.46122849  1  -0.78549  0.013607  1.965414  0.02  -0.818513  0.009685  1.951383  0.014  -0.526879  -0.761974  0.01801  1.973867  0.027
O  O79  1  0.31502192  0.54797385  0.49367288  1  -0.922065  0.001839  2.080248  0.004  -0.964248  0.00145  2.069145  0.003  -0.586385  -0.891741  0.002548  2.087011  0.005
O  O80  1  0.68497552  0.45202272  0.50632935  1  -0.921967  0.00184  2.080291  0.004  -0.964167  0.00145  2.069217  0.003  -0.586411  -0.891658  0.002548  2.08706  0.005
O  O81  1  0.27693088  0.61615567  0.69685730  1  -0.717863  0.001579  1.688925  0.003  -0.747067  0.001109  1.676235  0.002  -0.525213  -0.696688  0.002218  1.697239  0.004
O  O82  1  0.72307102  0.38384453  0.30314427  1  -0.717786  0.001579  1.688998  0.003  -0.746994  0.00111  1.676308  0.002  -0.525193  -0.696609  0.002218  1.697303  0.004
O  O83  1  0.82010178  0.56105886  0.67273833  1  -0.640321  -0.001364  1.69164  -0.001  -0.662655  -0.001086  1.681345  -0.001  -0.493381  -0.624884  -0.001472  1.699127  -0.001
O  O84  1  0.17989268  0.43894120  0.32726297  1  -0.640317  -0.001364  1.69161  -0.001  -0.66266  -0.001085  1.681318  -0.001  -0.493383  -0.624884  -0.001472  1.699104  -0.001
O  O85  1  0.99999852  0.49999621  0.50000176  1  -0.923752  -0.003692  2.160112  -0.002  -0.968188  -0.002981  2.153941  -0.002  -0.599696  -0.89252  -0.00384  2.163929  -0.002
O  O86  1  0.90159821  0.80949677  0.53180407  1  -0.783154  0.00393  2.181259  0.009  -0.817516  0.003513  2.168742  0.008  -0.520557  -0.760662  0.004831  2.188641  0.01
O  O87  1  0.09840016  0.19050216  0.46819638  1  -0.783223  0.003927  2.181204  0.009  -0.817584  0.003511  2.168686  0.008  -0.520599  -0.760729  0.004829  2.18859  0.01
O  O88  1  0.57078304  0.72200206  0.57114700  1  -0.905217  -0.000805  2.078938  0.0  -0.947276  -0.000672  2.066536  0.0  -0.597029  -0.875145  -0.000682  2.086681  0.0
O  O89  1  0.42921025  0.27799791  0.42885070  1  -0.905131  -0.000805  2.07889  0.0  -0.947192  -0.000671  2.066483  0.0  -0.59699  -0.875047  -0.000681  2.086623  0.0
