# generated using pymatgen
data_AgH12C17N7O2
_symmetry_space_group_name_H-M   'P 1'
_cell_length_a   9.00457298
_cell_length_b   9.34016322
_cell_length_c   12.85967784
_cell_angle_alpha   81.74320057
_cell_angle_beta   90.41135686
_cell_angle_gamma   67.87213268
_symmetry_Int_Tables_number   1
_chemical_formula_structural   AgH12C17N7O2
_chemical_formula_sum   'Ag2 H24 C34 N14 O4'
_cell_volume   989.28903747
_cell_formula_units_Z   2
loop_
 _symmetry_equiv_pos_site_id
 _symmetry_equiv_pos_as_xyz
  1  'x, y, z'
loop_
 _atom_site_type_symbol
 _atom_site_label
 _atom_site_symmetry_multiplicity
 _atom_site_fract_x
 _atom_site_fract_y
 _atom_site_fract_z
 _atom_site_occupancy
 _atom_site_hle17_bader_spin_density
 _atom_site_hle17_ddec_charge
 _atom_site_hle17_ddec_spin_density
 _atom_site_hle17_ddec_sum_bond_order
 _atom_site_hle17_magmom
 _atom_site_hse06_10hf_bader_spin_density
 _atom_site_hse06_10hf_ddec_charge
 _atom_site_hse06_10hf_ddec_spin_density
 _atom_site_hse06_10hf_ddec_sum_bond_order
 _atom_site_hse06_10hf_magmom
 _atom_site_hse06_bader_spin_density
 _atom_site_hse06_ddec_charge
 _atom_site_hse06_ddec_spin_density
 _atom_site_hse06_ddec_sum_bond_order
 _atom_site_hse06_magmom
 _atom_site_pbe_bader_spin_density
 _atom_site_pbe_cm5_charge
 _atom_site_pbe_ddec_charge
 _atom_site_pbe_ddec_spin_density
 _atom_site_pbe_ddec_sum_bond_order
 _atom_site_pbe_magmom
Ag  Ag0  1  0.60548084  0.89441016  0.59343173  1  0  0.457005  0  1.462204  0  0  0.289782  0  1.94273  0  0  0.328956  0  1.884717  0  0  0.398733  0.263237  0  1.982729  0
Ag  Ag1  1  0.39451000  0.10559032  0.40655911  1  0  0.456964  0  1.462184  0  0  0.289722  0  1.942747  0  0  0.328906  0  1.884724  0  0  0.398693  0.263169  0  1.98275  0
H  H2  1  0.13222062  0.45941904  0.42562791  1  0  0.078979  0  0.984297  0  0  0.076671  0  1.070138  0  0  0.080322  0  1.066139  0  0  0.112296  0.073943  0  1.073111  0
H  H3  1  0.86777670  0.54057244  0.57437329  1  0  0.078983  0  0.984072  0  0  0.076644  0  1.069963  0  0  0.080305  0  1.065953  0  0  0.112297  0.073904  0  1.072945  0
H  H4  1  0.27590247  0.27686487  0.15211812  1  0  0.084894  0  0.934089  0  0  0.092916  0  0.995964  0  0  0.095908  0  0.99295  0  0  0.11661  0.090662  0  0.998249  0
H  H5  1  0.72409784  0.72314182  0.84788169  1  0  0.084839  0  0.934097  0  0  0.092864  0  0.995983  0  0  0.095857  0  0.992969  0  0  0.116598  0.090622  0  0.99826  0
H  H6  1  0.10057290  0.53037836  0.03933059  1  0  0.10435  0  0.955006  0  0  0.113143  0  1.01549  0  0  0.116345  0  1.014779  0  0  0.108644  0.110878  0  1.016143  0
H  H7  1  0.89943636  0.46963424  0.96067045  1  0  0.104348  0  0.955119  0  0  0.113147  0  1.015579  0  0  0.11635  0  1.014871  0  0  0.108649  0.110885  0  1.016229  0
H  H8  1  0.93772625  0.75412566  0.12452844  1  0  0.106589  0  0.969083  0  0  0.107712  0  1.043473  0  0  0.111962  0  1.039568  0  0  0.106218  0.104565  0  1.046383  0
H  H9  1  0.06227395  0.24588019  0.87548006  1  0  0.106561  0  0.969188  0  0  0.107731  0  1.043532  0  0  0.111984  0  1.039621  0  0  0.106263  0.104571  0  1.046447  0
H  H10  1  0.98990330  0.14509032  0.39923411  1  0  0.11073  0  0.953828  0  0  0.116239  0  1.023306  0  0  0.119625  0  1.021857  0  0  0.104505  0.11374  0  1.024566  0
H  H11  1  0.01010363  0.85489345  0.60078107  1  0  0.110677  0  0.953832  0  0  0.116171  0  1.023381  0  0  0.119558  0  1.021933  0  0  0.104483  0.113676  0  1.024642  0
H  H12  1  0.88967138  0.43371758  0.40068731  1  0  0.087903  0  0.990167  0  0  0.094381  0  1.06085  0  0  0.096638  0  1.059675  0  0  0.102409  0.092733  0  1.061721  0
H  H13  1  0.11034039  0.56626720  0.59932367  1  0  0.087857  0  0.990253  0  0  0.094378  0  1.060901  0  0  0.096636  0  1.05972  0  0  0.10248  0.092731  0  1.061771  0
H  H14  1  0.59155043  0.58716602  0.39397134  1  0  0.120186  0  0.976841  0  0  0.121931  0  1.047544  0  0  0.126797  0  1.04423  0  0  0.105219  0.118393  0  1.050048  0
H  H15  1  0.40846474  0.41282991  0.60602398  1  0  0.120148  0  0.977013  0  0  0.121927  0  1.047679  0  0  0.126794  0  1.044363  0  0  0.105194  0.118387  0  1.050184  0
H  H16  1  0.40977500  0.44040246  0.40152638  1  0  0.067088  0  0.962906  0  0  0.076272  0  1.027406  0  0  0.077743  0  1.02711  0  0  0.111233  0.075154  0  1.027774  0
H  H17  1  0.59023263  0.55960251  0.59845939  1  0  0.067059  0  0.963083  0  0  0.076322  0  1.027491  0  0  0.077795  0  1.027194  0  0  0.111291  0.075205  0  1.027855  0
H  H18  1  0.20226654  0.88169865  0.27517932  1  0  0.134375  0  0.951068  0  0  0.140399  0  1.014281  0  0  0.144851  0  1.011672  0  0  0.111703  0.137105  0  1.016437  0
H  H19  1  0.79773235  0.11829243  0.72481176  1  0  0.134368  0  0.951076  0  0  0.140361  0  1.014343  0  0  0.144813  0  1.011733  0  0  0.111708  0.137066  0  1.016497  0
H  H20  1  0.26877473  0.02858597  0.11738258  1  0  0.081132  0  0.935061  0  0  0.088194  0  0.996151  0  0  0.090933  0  0.993966  0  0  0.114965  0.086104  0  0.99786  0
H  H21  1  0.73121771  0.97141702  0.88261255  1  0  0.081132  0  0.935024  0  0  0.0882  0  0.996114  0  0  0.090939  0  0.993927  0  0  0.11495  0.086107  0  0.997827  0
H  H22  1  0.79040467  0.25129852  0.00853598  1  0  0.067795  0  0.927308  0  0  0.078198  0  0.98384  0  0  0.080334  0  0.982939  0  0  0.112617  0.07658  0  0.984645  0
H  H23  1  0.20958412  0.74871306  0.99146823  1  0  0.067769  0  0.927399  0  0  0.078148  0  0.983962  0  0  0.080282  0  0.983062  0  0  0.112641  0.076534  0  0.984766  0
H  H24  1  0.70223387  0.10609078  0.16098950  1  0  0.142352  0  0.945272  0  0  0.150051  0  1.004398  0  0  0.154814  0  1.001178  0  0  0.115218  0.146519  0  1.006948  0
H  H25  1  0.29775831  0.89391494  0.83901540  1  0  0.142317  0  0.945359  0  0  0.149926  0  1.004581  0  0  0.154689  0  1.001368  0  0  0.115186  0.146397  0  1.00713  0
C  C26  1  0.12352679  0.47980292  0.33956363  1  0  0.082698  0  3.695616  0  0  0.051198  0  3.943669  0  0  0.05758  0  3.960321  0  0  0.047044  0.047262  0  3.932385  0
C  C27  1  0.87647143  0.52018987  0.66044126  1  0  0.082901  0  3.695281  0  0  0.051423  0  3.943343  0  0  0.0578  0  3.959985  0  0  0.047125  0.047495  0  3.932069  0
C  C28  1  0.20189090  0.37805423  0.18699793  1  0  0.12818  0  3.704111  0  0  0.098502  0  3.955383  0  0  0.105791  0  3.973096  0  0  0.049512  0.093871  0  3.943299  0
C  C29  1  0.79810972  0.62194676  0.81300654  1  0  0.128296  0  3.704057  0  0  0.098623  0  3.955321  0  0  0.10591  0  3.973037  0  0  0.049506  0.093982  0  3.943244  0
C  C30  1  0.10595112  0.51895202  0.12492039  1  0  -0.122109  0  3.746024  0  0  -0.131741  0  3.995556  0  0  -0.139346  0  4.017128  0  0  -0.084076  -0.126927  0  3.980987  0
C  C31  1  0.89405398  0.48105487  0.87508468  1  0  -0.122096  0  3.745913  0  0  -0.131727  0  3.995444  0  0  -0.139333  0  4.017016  0  0  -0.084069  -0.126912  0  3.980873  0
C  C32  1  0.01461937  0.64510633  0.17329857  1  0  -0.035676  0  3.692465  0  0  -0.06424  0  3.941287  0  0  -0.060418  0  3.958461  0  0  -0.064972  -0.066319  0  3.929548  0
C  C33  1  0.98538463  0.35489469  0.82670656  1  0  -0.035601  0  3.69235  0  0  -0.064217  0  3.941179  0  0  -0.06039  0  3.958345  0  0  -0.065001  -0.066279  0  3.929443  0
C  C34  1  0.02429496  0.62610996  0.28357365  1  0  -0.050977  0  3.799918  0  0  -0.027842  0  4.031954  0  0  -0.035633  0  4.05632  0  0  -0.003881  -0.023078  0  4.015677  0
C  C35  1  0.97570729  0.37388402  0.71643172  1  0  -0.05118  0  3.800025  0  0  -0.028065  0  4.032058  0  0  -0.035865  0  4.056438  0  0  -0.003949  -0.023291  0  4.015785  0
C  C36  1  0.93065140  0.74829057  0.34302640  1  0  0.279876  0  3.727205  0  0  0.244389  0  4.000721  0  0  0.258407  0  4.014765  0  0  0.233452  0.235137  0  3.991173  0
C  C37  1  0.06934953  0.25170916  0.65697589  1  0  0.280005  0  3.727414  0  0  0.244575  0  4.000831  0  0  0.258594  0  4.014871  0  0  0.233513  0.235296  0  3.991326  0
C  C38  1  0.80434473  0.97552062  0.39405881  1  0  0.252321  0  3.71136  0  0  0.2133  0  3.981811  0  0  0.22747  0  3.995029  0  0  0.23594  0.203791  0  3.972972  0
C  C39  1  0.19564944  0.02447907  0.60594216  1  0  0.252319  0  3.711492  0  0  0.213317  0  3.981937  0  0  0.227471  0  3.995182  0  0  0.235995  0.203812  0  3.973086  0
C  C40  1  0.74958167  0.14361817  0.39908647  1  0  0.15098  0  3.797565  0  0  0.151689  0  4.041274  0  0  0.156069  0  4.061218  0  0  0.118169  0.148591  0  4.027971  0
C  C41  1  0.25041254  0.85638378  0.60091186  1  0  0.151127  0  3.797435  0  0  0.151739  0  4.041227  0  0  0.15612  0  4.061181  0  0  0.118177  0.148637  0  4.027929  0
C  C42  1  0.86166077  0.21440697  0.39913206  1  0  -0.141933  0  3.707639  0  0  -0.162459  0  3.953883  0  0  -0.168298  0  3.97541  0  0  -0.085631  -0.158543  0  3.93942  0
C  C43  1  0.13834190  0.78558359  0.60087610  1  0  -0.141775  0  3.707596  0  0  -0.162274  0  3.953867  0  0  -0.168113  0  3.975395  0  0  -0.085589  -0.158362  0  3.939414  0
C  C44  1  0.80591281  0.37519193  0.39934864  1  0  -0.000295  0  3.719864  0  0  -0.016584  0  3.963385  0  0  -0.014452  0  3.983335  0  0  -0.070608  -0.017889  0  3.949914  0
C  C45  1  0.19409131  0.62480327  0.60065806  1  0  -0.000411  0  3.720009  0  0  -0.016781  0  3.963588  0  0  -0.014644  0  3.983534  0  0  -0.070689  -0.018082  0  3.950121  0
C  C46  1  0.64124059  0.46015425  0.39782859  1  0  -0.114632  0  3.705662  0  0  -0.124228  0  3.948505  0  0  -0.130091  0  3.967748  0  0  -0.079399  -0.120502  0  3.935835  0
C  C47  1  0.35876494  0.53984412  0.60216906  1  0  -0.114538  0  3.705844  0  0  -0.124141  0  3.94868  0  0  -0.130003  0  3.967926  0  0  -0.079392  -0.120415  0  3.936009  0
C  C48  1  0.53916777  0.37872808  0.40064725  1  0  0.136489  0  3.695612  0  0  0.109766  0  3.939299  0  0  0.115517  0  3.958345  0  0  0.049647  0.105928  0  3.926531  0
C  C49  1  0.46083589  0.62127129  0.59934565  1  0  0.136384  0  3.695774  0  0  0.10957  0  3.93946  0  0  0.115319  0  3.958508  0  0  0.049535  0.105732  0  3.926688  0
C  C50  1  0.94608795  0.98571070  0.22840492  1  0  0.219576  0  3.785089  0  0  0.212553  0  4.03115  0  0  0.219562  0  4.053728  0  0  0.105577  0.207937  0  4.015826  0
C  C51  1  0.05391622  0.01428309  0.77159574  1  0  0.21953  0  3.785454  0  0  0.212561  0  4.031418  0  0  0.219566  0  4.054002  0  0  0.105716  0.207938  0  4.016097  0
C  C52  1  0.10733701  0.96064854  0.21719160  1  0  -0.194218  0  3.690216  0  0  -0.215296  0  3.940824  0  0  -0.222181  0  3.960491  0  0  -0.083347  -0.210939  0  3.927984  0
C  C53  1  0.89266882  0.03935080  0.78280046  1  0  -0.194131  0  3.690132  0  0  -0.21522  0  3.940739  0  0  -0.222103  0  3.960408  0  0  -0.083366  -0.210855  0  3.927889  0
C  C54  1  0.14386035  0.04458161  0.12904440  1  0  0.131087  0  3.731984  0  0  0.107993  0  3.993204  0  0  0.112728  0  4.011346  0  0  0.048535  0.104903  0  3.981101  0
C  C55  1  0.85613720  0.95541810  0.87095724  1  0  0.131051  0  3.731777  0  0  0.107963  0  3.992989  0  0  0.1127  0  4.011131  0  0  0.048566  0.104871  0  3.980886  0
C  C56  1  0.87848707  0.16848724  0.06938093  1  0  0.12915  0  3.75102  0  0  0.107882  0  4.007063  0  0  0.112804  0  4.025839  0  0  0.046264  0.104709  0  3.994298  0
C  C57  1  0.12151153  0.83151609  0.93062329  1  0  0.129263  0  3.750883  0  0  0.108027  0  4.006912  0  0  0.11295  0  4.025685  0  0  0.046339  0.104857  0  3.99415  0
C  C58  1  0.82789463  0.09030827  0.15362750  1  0  -0.187178  0  3.682309  0  0  -0.20695  0  3.92593  0  0  -0.213833  0  3.945165  0  0  -0.07968  -0.202512  0  3.913237  0
C  C59  1  0.17210614  0.90969281  0.84637929  1  0  -0.187075  0  3.682326  0  0  -0.206793  0  3.925954  0  0  -0.21368  0  3.945195  0  0  -0.079724  -0.202355  0  3.913264  0
N  N60  1  0.20944549  0.35799036  0.29277506  1  0  -0.288559  0  3.187282  0  0  -0.225091  0  3.466062  0  0  -0.241181  0  3.480471  0  0  -0.320539  -0.214235  0  3.456064  0
N  N61  1  0.79055293  0.64200476  0.70722950  1  0  -0.28872  0  3.187249  0  0  -0.225281  0  3.466045  0  0  -0.241371  0  3.480454  0  0  -0.32055  -0.214425  0  3.456051  0
N  N62  1  0.85985414  0.72365935  0.43014082  1  0  -0.249104  0  2.918561  0  0  -0.229454  0  3.201334  0  0  -0.23959  0  3.217295  0  0  -0.208423  -0.222521  0  3.190477  0
N  N63  1  0.14014326  0.27633805  0.56986191  1  0  -0.249128  0  2.918765  0  0  -0.229508  0  3.201531  0  0  -0.239642  0  3.217487  0  0  -0.208434  -0.222571  0  3.190684  0
N  N64  1  0.78144833  0.86577677  0.46195229  1  0  -0.244496  0  3.173531  0  0  -0.185076  0  3.483847  0  0  -0.20025  0  3.495068  0  0  -0.231818  -0.174971  0  3.476376  0
N  N65  1  0.21854740  0.13422175  0.53804879  1  0  -0.244498  0  3.17359  0  0  -0.185082  0  3.48393  0  0  -0.20025  0  3.495152  0  0  -0.23184  -0.17497  0  3.476442  0
N  N66  1  0.89953046  0.90602298  0.31786849  1  0  -0.193277  0  3.490126  0  0  -0.110632  0  3.704105  0  0  -0.12758  0  3.724539  0  0  -0.207352  -0.099383  0  3.690196  0
N  N67  1  0.10046740  0.09397325  0.68213439  1  0  -0.193435  0  3.490392  0  0  -0.1108  0  3.704322  0  0  -0.12774  0  3.724755  0  0  -0.20746  -0.099544  0  3.69042  0
N  N68  1  0.59031587  0.22379853  0.40171509  1  0  -0.294446  0  3.203244  0  0  -0.226961  0  3.469407  0  0  -0.242706  0  3.483363  0  0  -0.311039  -0.21637  0  3.460068  0
N  N69  1  0.40967682  0.77620539  0.59827367  1  0  -0.294474  0  3.203177  0  0  -0.226876  0  3.469295  0  0  -0.242619  0  3.483251  0  0  -0.311017  -0.216282  0  3.459954  0
N  N70  1  0.03262988  0.14764755  0.05645919  1  0  -0.318537  0  3.088086  0  0  -0.28149  0  3.355695  0  0  -0.292961  0  3.372979  0  0  -0.31701  -0.273694  0  3.343884  0
N  N71  1  0.96736690  0.85235681  0.94354105  1  0  -0.318629  0  3.088111  0  0  -0.281584  0  3.355714  0  0  -0.293053  0  3.372995  0  0  -0.317083  -0.273785  0  3.343907  0
N  N72  1  0.47681955  0.13014572  0.73857894  1  0  0.184641  0  3.210368  0  0  0.166928  0  3.548141  0  0  0.189174  0  3.548676  0  0  -0.09574  0.153  0  3.546005  0
N  N73  1  0.52317748  0.86986179  0.26141152  1  0  0.184576  0  3.210386  0  0  0.166877  0  3.548185  0  0  0.189127  0  3.548719  0  0  -0.095704  0.15295  0  3.546044  0
O  O74  1  0.47939434  0.99295196  0.76424618  1  0  -0.451619  0  1.959866  0  0  -0.407509  0  2.235077  0  0  -0.431213  0  2.227276  0  0  -0.208202  -0.39068  0  2.239337  0
O  O75  1  0.52058402  0.00705950  0.23572412  1  0  -0.451484  0  1.959826  0  0  -0.40739  0  2.235028  0  0  -0.431098  0  2.227233  0  0  -0.208141  -0.390558  0  2.239279  0
O  O76  1  0.54246180  0.15151306  0.65332411  1  0  -0.451277  0  1.992309  0  0  -0.39447  0  2.270237  0  0  -0.420542  0  2.263039  0  0  -0.202804  -0.376123  0  2.274119  0
O  O77  1  0.45754937  0.84848758  0.34667148  1  0  -0.451341  0  1.992276  0  0  -0.394542  0  2.270217  0  0  -0.420616  0  2.263016  0  0  -0.202886  -0.376194  0  2.2741  0
