# generated using pymatgen
data_MnH16(C17N5)2
_symmetry_space_group_name_H-M   'P 1'
_cell_length_a   11.44593210
_cell_length_b   12.67932393
_cell_length_c   14.00605039
_cell_angle_alpha   89.11974329
_cell_angle_beta   89.99450179
_cell_angle_gamma   90.00030800
_symmetry_Int_Tables_number   1
_chemical_formula_structural   MnH16(C17N5)2
_chemical_formula_sum   'Mn2 H32 C68 N20'
_cell_volume   2032.41171139
_cell_formula_units_Z   2
loop_
 _symmetry_equiv_pos_site_id
 _symmetry_equiv_pos_as_xyz
  1  'x, y, z'
loop_
 _atom_site_type_symbol
 _atom_site_label
 _atom_site_symmetry_multiplicity
 _atom_site_fract_x
 _atom_site_fract_y
 _atom_site_fract_z
 _atom_site_occupancy
 _atom_site_pbe_bader_charge
 _atom_site_pbe_bader_spin_density
 _atom_site_pbe_cm5_charge
 _atom_site_pbe_ddec_charge
 _atom_site_pbe_ddec_spin_density
 _atom_site_pbe_ddec_sum_bond_order
 _atom_site_pbe_magmom
Mn  Mn0  1  0.51410450  0.50003249  0.74986469  1  1.449767  0.832252  0.843299  0.681329  0.922234  3.905551  0.832
Mn  Mn1  1  0.48604363  0.49997742  0.24989028  1  1.449004  -0.832761  0.842802  0.68177  -0.922638  3.90366  -0.833
H  H2  1  0.67937138  0.20798422  0.65258900  1  0.059012  -0.000354  0.101817  0.104649  -0.00025  1.012671  0.0
H  H3  1  0.32375615  0.79191266  0.65566572  1  0.070338  0.000158  0.101795  0.104148  7.8e-05  1.012255  0.0
H  H4  1  0.67955249  0.79207628  0.84728597  1  0.05916  -0.000354  0.101775  0.104671  -0.000249  1.012706  0.0
H  H5  1  0.32350528  0.20796645  0.84420832  1  0.070005  0.000158  0.101766  0.10413  7.9e-05  1.012148  0.0
H  H6  1  0.32029011  0.79204437  0.34728437  1  0.058558  0.000356  0.101831  0.10473  0.000251  1.012748  0.0
H  H7  1  0.67640595  0.20784640  0.34418448  1  0.070902  -0.000157  0.101757  0.104216  -7.9e-05  1.01169  0.0
H  H8  1  0.32045497  0.20808406  0.15258364  1  0.059624  0.000355  0.101767  0.104404  0.000251  1.01287  0.0
H  H9  1  0.67609330  0.79201932  0.15569176  1  0.070516  -0.000158  0.10168  0.10414  -7.9e-05  1.011996  0.0
H  H10  1  0.82945293  0.07014282  0.65404832  1  0.072763  -1.2e-05  0.101786  0.105284  4.8e-05  1.022546  0.0
H  H11  1  0.17343601  0.92973524  0.65537250  1  0.083724  3.4e-05  0.10147  0.104995  -2.4e-05  1.022248  0.0
H  H12  1  0.82962822  0.92996720  0.84601308  1  0.07077  -1.2e-05  0.101835  0.105239  4.8e-05  1.021996  0.0
H  H13  1  0.17312730  0.07019717  0.84473571  1  0.08487  3.4e-05  0.10158  0.104952  -2.4e-05  1.022236  0.0
H  H14  1  0.17032911  0.93008525  0.34610501  1  0.069561  1.1e-05  0.101784  0.105121  -4.9e-05  1.022448  0.0
H  H15  1  0.82683965  0.07020927  0.34473776  1  0.08424  -3.4e-05  0.101475  0.104894  2.4e-05  1.022112  0.0
H  H16  1  0.17044563  0.07011848  0.15400627  1  0.07087  1.2e-05  0.101851  0.105391  -4.8e-05  1.022226  0.0
H  H17  1  0.82648874  0.92970396  0.15537416  1  0.084742  -3.4e-05  0.101653  0.105219  2.4e-05  1.021938  0.0
H  H18  1  0.69851747  0.34101628  0.78698974  1  0.08971  -0.000283  0.124205  0.093721  -0.000122  1.002955  0.0
H  H19  1  0.30084885  0.65673858  0.78876235  1  0.097858  -0.000299  0.121387  0.088781  -0.000238  0.99668  0.0
H  H20  1  0.69864182  0.65902039  0.71282393  1  0.089879  -0.000281  0.12423  0.093495  -0.00012  1.002983  0.0
H  H21  1  0.30085055  0.34330565  0.71097670  1  0.096655  -0.000299  0.121346  0.088631  -0.000238  0.996907  0.0
H  H22  1  0.30153540  0.65907021  0.21320953  1  0.088719  0.000283  0.124079  0.093263  0.000121  1.003478  0.0
H  H23  1  0.69927132  0.34320485  0.21101805  1  0.096748  0.000299  0.121381  0.088795  0.000238  0.996719  0.0
H  H24  1  0.30163475  0.34088425  0.28679251  1  0.08819  0.000283  0.124287  0.093588  0.000121  1.002479  0.0
H  H25  1  0.69913509  0.65669090  0.28868054  1  0.099536  0.0003  0.121346  0.088683  0.000239  0.996003  0.0
H  H26  1  0.91357371  0.33311947  0.78789093  1  0.095583  -1e-05  0.107629  0.121  1.1e-05  1.035174  0.0
H  H27  1  0.08425490  0.66526715  0.78885726  1  0.145349  -0.000106  0.107187  0.120189  -6.8e-05  1.031899  0.0
H  H28  1  0.91369821  0.66683834  0.71212209  1  0.095292  -1e-05  0.107601  0.120946  1.1e-05  1.035051  0.0
H  H29  1  0.08423381  0.33471766  0.71116616  1  0.144807  -0.000106  0.107247  0.1202  -6.8e-05  1.031952  0.0
H  H30  1  0.08633761  0.66692196  0.21259282  1  0.096533  1.2e-05  0.107538  0.120642  -1e-05  1.035037  0.0
H  H31  1  0.91588098  0.33459902  0.21128210  1  0.143304  0.000108  0.107264  0.120086  6.9e-05  1.031557  0.0
H  H32  1  0.08647176  0.33299855  0.28775685  1  0.094918  1.2e-05  0.107502  0.120729  -1e-05  1.035408  0.0
H  H33  1  0.91569938  0.66529354  0.28889368  1  0.145431  0.000107  0.107161  0.120342  6.9e-05  1.031648  0.0
C  C34  1  0.54593391  0.35216690  0.58162036  1  0.780605  -0.01307  0.183908  0.265566  -0.010604  4.075277  -0.006
C  C35  1  0.46337360  0.65163304  0.58493522  1  0.736795  0.005951  0.190096  0.27135  0.008416  4.076859  0.006
C  C36  1  0.54584527  0.64792013  0.91812922  1  0.778317  -0.013033  0.184102  0.265966  -0.010558  4.07628  -0.006
C  C37  1  0.46320891  0.34833968  0.91476662  1  0.734316  0.005996  0.190089  0.271264  0.008451  4.077607  0.006
C  C38  1  0.45400279  0.64790484  0.41809920  1  0.777974  0.013034  0.184306  0.265859  0.010562  4.077178  0.006
C  C39  1  0.53669677  0.34822877  0.41479862  1  0.73641  -0.005966  0.189787  0.27068  -0.008428  4.078746  -0.006
C  C40  1  0.45393853  0.35216943  0.08162664  1  0.783466  0.013041  0.184025  0.265701  0.010584  4.07554  0.006
C  C41  1  0.53652772  0.65165814  0.08492775  1  0.736866  -0.006043  0.190042  0.271085  -0.008471  4.077211  -0.006
C  C42  1  0.57912075  0.30196182  0.49797364  1  0.276787  -0.035229  -0.045282  -0.188151  -0.030493  4.247478  -0.021
C  C43  1  0.42082643  0.69793742  0.50180992  1  0.277368  0.03534  -0.045536  -0.188459  0.030588  4.249195  0.022
C  C44  1  0.57903348  0.69801866  0.00180732  1  0.277945  -0.035199  -0.045211  -0.188085  -0.030476  4.248329  -0.021
C  C45  1  0.42075382  0.30206307  0.99794146  1  0.278596  0.035208  -0.045608  -0.188595  0.030471  4.24789  0.021
C  C46  1  0.66529253  0.21770779  0.49830553  1  0.010203  -0.00032  -0.000211  0.115635  -0.000487  4.066147  0.001
C  C47  1  0.33470794  0.78225218  0.50156830  1  -0.015356  0.000298  -0.00036  0.115251  0.000474  4.066282  -0.001
C  C48  1  0.66522862  0.78226844  0.00155368  1  -0.016402  -0.000313  -0.000422  0.115177  -0.000484  4.065903  0.001
C  C49  1  0.33465129  0.21774860  0.99828763  1  0.008881  0.00032  -0.00019  0.115433  0.00049  4.066265  -0.001
C  C50  1  0.71108608  0.17736638  0.58501741  1  0.040229  -0.010349  -0.096047  -0.135202  -0.008729  3.968326  -0.006
C  C51  1  0.29092851  0.82287944  0.58772149  1  -0.045971  0.009929  -0.094878  -0.133558  0.008151  3.968438  0.006
C  C52  1  0.71115898  0.82265291  0.91489607  1  0.066007  -0.010339  -0.095978  -0.135013  -0.008721  3.967857  -0.006
C  C53  1  0.29076901  0.17707012  0.91219819  1  -0.042357  0.009882  -0.095171  -0.133965  0.008114  3.968421  0.006
C  C54  1  0.28878509  0.82267584  0.41492084  1  0.067291  0.010386  -0.095885  -0.13518  0.008762  3.967357  0.006
C  C55  1  0.70919776  0.17706117  0.41220244  1  -0.042928  -0.009885  -0.095169  -0.134285  -0.008116  3.968019  -0.006
C  C56  1  0.28884062  0.17738098  0.08500367  1  0.039475  0.010358  -0.095996  -0.134846  0.008736  3.967808  0.006
C  C57  1  0.70901829  0.82288156  0.08772283  1  -0.046646  -0.00989  -0.094653  -0.133799  -0.008118  3.967938  -0.006
C  C58  1  0.79600151  0.09938654  0.58570953  1  -0.031326  0.002408  -0.093804  -0.116138  0.001987  4.023207  0.002
C  C59  1  0.20594753  0.90079894  0.58743748  1  0.002762  -0.001932  -0.094694  -0.116698  -0.001525  4.021754  -0.002
C  C60  1  0.79605933  0.90066668  0.91433560  1  -0.027952  0.002407  -0.093561  -0.115807  0.001988  4.020933  0.002
C  C61  1  0.20577169  0.09916393  0.91263085  1  -0.00332  -0.001919  -0.094466  -0.11616  -0.001517  4.020704  -0.002
C  C62  1  0.20395614  0.90075540  0.41437084  1  0.00038  -0.002417  -0.093702  -0.115969  -0.001997  4.021607  -0.002
C  C63  1  0.79425562  0.09920647  0.41265309  1  -0.002415  0.001921  -0.094215  -0.115891  0.00152  4.020668  0.002
C  C64  1  0.20398132  0.09934247  0.08568712  1  -0.00098  -0.002409  -0.093823  -0.116203  -0.001988  4.022565  -0.002
C  C65  1  0.79405229  0.90075593  0.08741176  1  0.001523  0.001925  -0.094772  -0.11654  0.00152  4.021311  0.002
C  C66  1  0.83828522  0.05924634  0.49950740  1  -0.131895  -0.01197  -0.034519  -0.003785  -0.010007  4.008144  -0.008
C  C67  1  0.16186551  0.94088224  0.50065802  1  -0.16124  0.012018  -0.03451  -0.003319  0.010045  4.008139  0.008
C  C68  1  0.83817803  0.94077409  0.00061716  1  -0.133786  -0.01196  -0.034559  -0.003743  -0.009999  4.007872  -0.008
C  C69  1  0.16176564  0.05916180  0.99948531  1  -0.166092  0.011985  -0.034595  -0.003822  0.01001  4.008059  0.008
C  C70  1  0.93287932  0.97479842  0.50029026  1  0.205234  0.001279  0.061223  0.029312  0.001108  3.904644  0.002
C  C71  1  0.06728014  0.02533111  0.50003866  1  0.207915  -0.001269  0.061151  0.028952  -0.0011  3.905671  -0.002
C  C72  1  0.93272498  0.02525379  0.99994053  1  0.211186  0.001273  0.060918  0.028892  0.001103  3.905892  0.002
C  C73  1  0.06712607  0.97476882  0.00025775  1  0.212279  -0.001274  0.061548  0.029634  -0.001095  3.904778  -0.002
C  C74  1  0.92212874  0.90653575  0.58556347  1  0.889067  -0.00021  0.197936  0.238592  -0.000148  3.937445  0.0
C  C75  1  0.07792638  0.09264713  0.58406610  1  0.890097  0.00016  0.196876  0.238262  0.000108  3.937434  0.0
C  C76  1  0.92203824  0.09363158  0.91475662  1  0.888861  -0.00021  0.197904  0.238776  -0.000148  3.938213  0.0
C  C77  1  0.07780930  0.90718814  0.91637010  1  0.889068  0.000161  0.19706  0.238485  0.000109  3.935582  0.0
C  C78  1  0.07795557  0.09375435  0.41489288  1  0.889054  0.000212  0.198196  0.23905  0.000149  3.938708  0.0
C  C79  1  0.92218589  0.90729123  0.41638764  1  0.887993  -0.000159  0.197224  0.238767  -0.000108  3.936148  0.0
C  C80  1  0.07780757  0.90651571  0.08552578  1  0.887531  0.00021  0.197796  0.238439  0.000148  3.937974  0.0
C  C81  1  0.92200418  0.09261488  0.08395605  1  0.889271  -0.000158  0.196888  0.238017  -0.000107  3.938084  0.0
C  C82  1  0.75020609  0.41084478  0.77002549  1  0.417465  -0.003814  0.049311  0.079076  -0.00298  3.920377  -0.001
C  C83  1  0.24872634  0.58788385  0.77077904  1  0.458017  -0.001038  0.053424  0.088906  -0.001054  3.960055  0.0
C  C84  1  0.75026327  0.58917893  0.72985278  1  0.417785  -0.003812  0.049358  0.079308  -0.002982  3.920201  -0.001
C  C85  1  0.24872903  0.41215510  0.72899767  1  0.46184  -0.00104  0.053577  0.088892  -0.001056  3.96074  0.0
C  C86  1  0.24984330  0.58921148  0.23011258  1  0.415842  0.003819  0.049661  0.079964  0.002987  3.918916  0.001
C  C87  1  0.75138946  0.41205746  0.22906421  1  0.462837  0.001044  0.053553  0.088645  0.001062  3.959065  0.0
C  C88  1  0.24990495  0.41073668  0.26995209  1  0.415368  0.003814  0.049555  0.079599  0.002979  3.918577  0.001
C  C89  1  0.75132561  0.58782492  0.27074821  1  0.458551  0.00104  0.053507  0.088507  0.001056  3.959319  0.0
C  C90  1  0.87106996  0.40782678  0.77028468  1  0.054897  -0.001244  -0.080197  -0.16795  -0.001346  3.942563  0.0
C  C91  1  0.12748415  0.59159382  0.77085218  1  -0.01022  -0.003516  -0.079931  -0.170422  -0.003029  3.927017  -0.002
C  C92  1  0.87112370  0.59215332  0.72968224  1  0.054016  -0.001247  -0.080233  -0.1678  -0.001347  3.942534  0.0
C  C93  1  0.12748943  0.40839406  0.72911286  1  -0.009303  -0.003515  -0.080101  -0.170408  -0.003028  3.92736  -0.002
C  C94  1  0.12897155  0.59219581  0.23000641  1  0.053901  0.001251  -0.080264  -0.16775  0.001355  3.941386  0.0
C  C95  1  0.87264736  0.40831078  0.22922194  1  -0.011412  0.003526  -0.079686  -0.16994  0.003034  3.924623  0.002
C  C96  1  0.12902704  0.40773125  0.27024636  1  0.062001  0.001258  -0.080028  -0.167481  0.001361  3.940988  0.0
C  C97  1  0.87257132  0.59156586  0.27085807  1  -0.010438  0.00353  -0.079729  -0.170317  0.00304  3.926159  0.002
C  C98  1  0.93528732  0.49997552  0.74999212  1  0.032408  -0.009987  0.006775  0.097918  -0.008509  3.980908  -0.006
C  C99  1  0.06374187  0.49998941  0.74998826  1  -0.121867  -0.003083  0.011278  0.105639  -0.002509  3.980261  -0.001
C  C100  1  0.06482409  0.49995068  0.25013612  1  0.027318  0.009985  0.006567  0.097695  0.008503  3.980027  0.006
C  C101  1  0.93637479  0.49994271  0.25009496  1  -0.120195  0.0031  0.011264  0.105687  0.002527  3.979006  0.001
N  N102  1  0.51802841  0.39823702  0.65037873  1  -1.255549  -0.025109  -0.381591  -0.397744  -0.021256  3.483076  -0.018
N  N103  1  0.50023582  0.60579436  0.65252238  1  -1.255977  0.013943  -0.385655  -0.393675  0.007987  3.457164  -0.002
N  N104  1  0.51795540  0.60187753  0.84936642  1  -1.257942  -0.025082  -0.381682  -0.398084  -0.021245  3.482406  -0.018
N  N105  1  0.50010302  0.39420502  0.84721567  1  -1.255713  0.013917  -0.385484  -0.393439  0.007931  3.456673  -0.002
N  N106  1  0.48204283  0.60183903  0.34938792  1  -1.257118  0.025154  -0.381747  -0.398086  0.021306  3.482528  0.018
N  N107  1  0.49991929  0.39416962  0.34725360  1  -1.256715  -0.013924  -0.385371  -0.393207  -0.007948  3.457313  0.002
N  N108  1  0.48200489  0.39818069  0.15036609  1  -1.258068  0.025103  -0.381414  -0.397756  0.02125  3.482038  0.018
N  N109  1  0.49977427  0.60576710  0.15253028  1  -1.254783  -0.013902  -0.385783  -0.393939  -0.007956  3.457123  0.002
N  N110  1  0.90964675  0.85378318  0.65359996  1  -1.099049  -0.000113  -0.26919  -0.308296  -7.7e-05  2.747099  0.0
N  N111  1  0.09056293  0.14493303  0.65093580  1  -1.107197  7e-05  -0.269684  -0.309072  6.7e-05  2.740586  0.0
N  N112  1  0.90969045  0.14643911  0.84674287  1  -1.096671  -0.000113  -0.269103  -0.30838  -7.6e-05  2.747517  0.0
N  N113  1  0.09050576  0.85489509  0.84951302  1  -1.105282  7.3e-05  -0.270024  -0.309461  7.1e-05  2.739862  0.0
N  N114  1  0.09027855  0.14660672  0.34689928  1  -1.093966  0.000116  -0.269498  -0.308729  7.9e-05  2.747908  0.0
N  N115  1  0.90960001  0.85497838  0.34953383  1  -1.104075  -7e-05  -0.270057  -0.309617  -6.8e-05  2.739633  0.0
N  N116  1  0.09025408  0.85370904  0.15353096  1  -1.097357  0.000117  -0.269218  -0.308297  7.9e-05  2.746825  0.0
N  N117  1  0.90940644  0.14487852  0.15083974  1  -1.105786  -6.7e-05  -0.269661  -0.308863  -6.6e-05  2.741352  0.0
N  N118  1  0.68874209  0.50001594  0.74990724  1  -1.217191  -0.009924  -0.326729  -0.155831  -0.010971  3.578827  -0.019
N  N119  1  0.30862801  0.50003555  0.74982343  1  -1.227586  -0.01247  -0.283396  -0.186016  -0.011263  3.456738  -0.013
N  N120  1  0.31132216  0.49997158  0.24997283  1  -1.214383  0.010067  -0.326862  -0.156547  0.011039  3.578158  0.019
N  N121  1  0.69147295  0.49995071  0.24983887  1  -1.226421  0.01247  -0.28388  -0.186036  0.011279  3.456732  0.013
