# generated using pymatgen
data_Zn2H18C20O11
_symmetry_space_group_name_H-M   'P 1'
_cell_length_a   17.10697209
_cell_length_b   17.10701604
_cell_length_c   17.10697261
_cell_angle_alpha   108.46628569
_cell_angle_beta   108.46624083
_cell_angle_gamma   108.46632014
_symmetry_Int_Tables_number   1
_chemical_formula_structural   Zn2H18C20O11
_chemical_formula_sum   'Zn12 H108 C120 O66'
_cell_volume   3990.83577467
_cell_formula_units_Z   6
loop_
 _symmetry_equiv_pos_site_id
 _symmetry_equiv_pos_as_xyz
  1  'x, y, z'
loop_
 _atom_site_type_symbol
 _atom_site_label
 _atom_site_symmetry_multiplicity
 _atom_site_fract_x
 _atom_site_fract_y
 _atom_site_fract_z
 _atom_site_occupancy
 _atom_site_pbe_bader_charge
 _atom_site_pbe_bader_spin_density
 _atom_site_pbe_cm5_charge
 _atom_site_pbe_ddec_charge
 _atom_site_pbe_ddec_spin_density
 _atom_site_pbe_ddec_sum_bond_order
 _atom_site_pbe_magmom
Zn  Zn0  1  0.66171725  0.22683187  0.86381117  1  1.318592  0  0.691169  0.924276  0  2.317822  0
Zn  Zn1  1  0.22683569  0.86381228  0.66171585  1  1.318592  0  0.691167  0.924262  0  2.317872  0
Zn  Zn2  1  0.86381426  0.66172053  0.22684027  1  1.318584  0  0.691189  0.924338  0  2.317829  0
Zn  Zn3  1  0.33828179  0.77316323  0.13618808  1  1.318609  0  0.691159  0.924254  0  2.317886  0
Zn  Zn4  1  0.77316614  0.13618965  0.33828585  1  1.318522  0  0.691172  0.924251  0  2.317937  0
Zn  Zn5  1  0.13618828  0.33828297  0.77316273  1  1.318619  0  0.691168  0.924276  0  2.317831  0
Zn  Zn6  1  0.77052308  0.42481315  0.11546513  1  1.396897  0  0.70646  1.026473  0  2.246979  0
Zn  Zn7  1  0.42481204  0.11546298  0.77052027  1  1.396776  0  0.706494  1.026503  0  2.246816  0
Zn  Zn8  1  0.11546497  0.77052296  0.42481229  1  1.396864  0  0.706467  1.026535  0  2.246921  0
Zn  Zn9  1  0.22948084  0.57518604  0.88453694  1  1.396735  0  0.706515  1.026562  0  2.246832  0
Zn  Zn10  1  0.57518631  0.88453673  0.22947846  1  1.396847  0  0.706479  1.026507  0  2.246941  0
Zn  Zn11  1  0.88453756  0.22947991  0.57518876  1  1.396762  0  0.706521  1.026525  0  2.24683  0
H  H12  1  0.98081843  0.44670196  0.17159176  1  0.130712  0  0.113192  0.129646  0  1.020021  0
H  H13  1  0.44670004  0.17159191  0.98081780  1  0.130715  0  0.113184  0.129665  0  1.020013  0
H  H14  1  0.17159138  0.98081860  0.44670260  1  0.130742  0  0.11319  0.12967  0  1.020086  0
H  H15  1  0.01918131  0.55329530  0.82840488  1  0.130686  0  0.113209  0.129686  0  1.020041  0
H  H16  1  0.55329553  0.82840467  0.01918140  1  0.130723  0  0.113213  0.129721  0  1.020022  0
H  H17  1  0.82840280  0.01917857  0.55329342  1  0.13077  0  0.113167  0.129655  0  1.019974  0
H  H18  1  0.21283809  0.53904023  0.11371897  1  0.137034  0  0.112688  0.12814  0  1.028284  0
H  H19  1  0.53903665  0.11371835  0.21283702  1  0.137048  0  0.112693  0.128128  0  1.028292  0
H  H20  1  0.11371683  0.21283679  0.53903658  1  0.137022  0  0.112673  0.128103  0  1.028308  0
H  H21  1  0.78716235  0.46096292  0.88628151  1  0.137022  0  0.112677  0.128115  0  1.028298  0
H  H22  1  0.46096102  0.88628352  0.78716568  1  0.137055  0  0.112697  0.128194  0  1.028214  0
H  H23  1  0.88628082  0.78716260  0.46095832  1  0.137004  0  0.112682  0.128186  0  1.028227  0
H  H24  1  0.93980828  0.33284672  0.89034240  1  0.121443  0  0.110597  0.120589  0  1.014167  0
H  H25  1  0.33284172  0.89034208  0.93980841  1  0.121658  0  0.110585  0.120498  0  1.014205  0
H  H26  1  0.89034101  0.93980786  0.33284177  1  0.121652  0  0.110588  0.120488  0  1.014234  0
H  H27  1  0.06019217  0.66715703  0.10965593  1  0.121662  0  0.110595  0.120553  0  1.014183  0
H  H28  1  0.66715456  0.10965791  0.06019443  1  0.121458  0  0.110576  0.120558  0  1.014161  0
H  H29  1  0.10965594  0.06019120  0.66715105  1  0.121381  0  0.110581  0.120531  0  1.014239  0
H  H30  1  0.27418880  0.65641231  0.27114294  1  0.057151  0  0.105877  0.076989  0  0.968684  0
H  H31  1  0.65641018  0.27114235  0.27418681  1  0.05718  0  0.1059  0.077015  0  0.968683  0
H  H32  1  0.27114063  0.27418853  0.65641195  1  0.057138  0  0.105871  0.07698  0  0.968665  0
H  H33  1  0.72581233  0.34358745  0.72885727  1  0.057126  0  0.105903  0.077031  0  0.968766  0
H  H34  1  0.34358679  0.72885734  0.72581206  1  0.057141  0  0.105919  0.077054  0  0.968753  0
H  H35  1  0.72885773  0.72581056  0.34358775  1  0.057141  0  0.105926  0.077075  0  0.968726  0
H  H36  1  0.28172822  0.55094345  0.25492774  1  0.05226  0  0.105381  0.069211  0  0.963215  0
H  H37  1  0.55094258  0.25492976  0.28172846  1  0.052248  0  0.105382  0.069206  0  0.963249  0
H  H38  1  0.25492860  0.28172968  0.55094323  1  0.052232  0  0.105407  0.069235  0  0.963276  0
H  H39  1  0.71827152  0.44905505  0.74507105  1  0.052288  0  0.105373  0.069222  0  0.963265  0
H  H40  1  0.44905648  0.74507152  0.71827274  1  0.052285  0  0.105376  0.069222  0  0.963274  0
H  H41  1  0.74507254  0.71827255  0.44905835  1  0.052255  0  0.105401  0.069254  0  0.96326  0
H  H42  1  0.27180683  0.67485199  0.42387451  1  0.05254  0  0.091836  0.136976  0  1.010179  0
H  H43  1  0.67485119  0.42387221  0.27180229  1  0.052401  0  0.091833  0.136953  0  1.010254  0
H  H44  1  0.42387090  0.27180313  0.67485049  1  0.052442  0  0.09185  0.136961  0  1.010181  0
H  H45  1  0.72819292  0.32514713  0.57612505  1  0.05252  0  0.09183  0.136948  0  1.010202  0
H  H46  1  0.32514715  0.57612503  0.72819449  1  0.052494  0  0.091821  0.136961  0  1.010198  0
H  H47  1  0.57612466  0.72819098  0.32514559  1  0.05253  0  0.091826  0.136951  0  1.010233  0
H  H48  1  0.37508400  0.67339585  0.42365397  1  0.039069  0  0.094957  0.132408  0  0.996689  0
H  H49  1  0.67339613  0.42365474  0.37508016  1  0.03909  0  0.0949  0.132303  0  0.996784  0
H  H50  1  0.42365424  0.37508130  0.67339656  1  0.039114  0  0.09494  0.132405  0  0.996718  0
H  H51  1  0.62491714  0.32660392  0.57634682  1  0.039078  0  0.094934  0.132381  0  0.996745  0
H  H52  1  0.32660430  0.57634716  0.62491758  1  0.0391  0  0.094945  0.132388  0  0.996759  0
H  H53  1  0.57634758  0.62491509  0.32660397  1  0.039046  0  0.094939  0.132414  0  0.996652  0
H  H54  1  0.28442899  0.57231315  0.40739055  1  0.024469  0  0.091038  0.125307  0  0.996038  0
H  H55  1  0.57231297  0.40739148  0.28442562  1  0.024387  0  0.091011  0.125265  0  0.996051  0
H  H56  1  0.40738903  0.28442665  0.57231272  1  0.024489  0  0.091041  0.125293  0  0.996048  0
H  H57  1  0.71557145  0.42768691  0.59260953  1  0.024494  0  0.091035  0.125293  0  0.996021  0
H  H58  1  0.42768816  0.59261013  0.71557284  1  0.024477  0  0.091025  0.125278  0  0.996034  0
H  H59  1  0.59260862  0.71556966  0.42768647  1  0.024482  0  0.091025  0.125271  0  0.996048  0
H  H60  1  0.38488706  0.32680040  0.84626404  1  0.131583  0  0.109727  0.122211  0  1.010391  0
H  H61  1  0.32680081  0.84625711  0.38488649  1  0.129672  0  0.109754  0.12223  0  1.010423  0
H  H62  1  0.84625926  0.38488425  0.32680308  1  0.131615  0  0.109716  0.122262  0  1.010394  0
H  H63  1  0.61511825  0.67320007  0.15374414  1  0.129579  0  0.109715  0.122205  0  1.010409  0
H  H64  1  0.67319615  0.15373950  0.61511491  1  0.131598  0  0.10973  0.122227  0  1.010436  0
H  H65  1  0.15374535  0.61511589  0.67320010  1  0.129655  0  0.109743  0.122237  0  1.010398  0
H  H66  1  0.48963093  0.61653825  0.91628211  1  0.103814  0  0.107469  0.121092  0  1.033408  0
H  H67  1  0.61654161  0.91628080  0.48962903  1  0.103587  0  0.107484  0.12105  0  1.033421  0
H  H68  1  0.91628060  0.48963272  0.61654371  1  0.103596  0  0.107482  0.121103  0  1.033446  0
H  H69  1  0.51036951  0.38346058  0.08372226  1  0.103507  0  0.107476  0.121079  0  1.033419  0
H  H70  1  0.38345673  0.08371890  0.51036443  1  0.103616  0  0.107489  0.121102  0  1.033455  0
H  H71  1  0.08372124  0.51037106  0.38345800  1  0.103517  0  0.107498  0.121121  0  1.0334  0
H  H72  1  0.67596938  0.49364865  0.93911375  1  0.105746  0  0.108089  0.134543  0  1.024209  0
H  H73  1  0.49365289  0.93911430  0.67596981  1  0.105817  0  0.10808  0.134495  0  1.024246  0
H  H74  1  0.93911073  0.67596889  0.49364969  1  0.105839  0  0.108087  0.134475  0  1.024288  0
H  H75  1  0.32403316  0.50635238  0.06089139  1  0.105861  0  0.108102  0.134459  0  1.024292  0
H  H76  1  0.50635171  0.06088583  0.32402868  1  0.105795  0  0.108086  0.134517  0  1.024195  0
H  H77  1  0.06088901  0.32403145  0.50634734  1  0.105855  0  0.108083  0.134475  0  1.024285  0
H  H78  1  0.61870486  0.72481194  0.03803644  1  0.064675  0  0.099512  0.064834  0  1.0076  0
H  H79  1  0.72481623  0.03803639  0.61870191  1  0.064618  0  0.099495  0.064853  0  1.007574  0
H  H80  1  0.03803455  0.61870428  0.72481314  1  0.064702  0  0.099521  0.064879  0  1.007589  0
H  H81  1  0.38129768  0.27519032  0.96196733  1  0.064667  0  0.099517  0.064888  0  1.007535  0
H  H82  1  0.27518627  0.96196091  0.38129094  1  0.06454  0  0.099525  0.064848  0  1.007606  0
H  H83  1  0.96196587  0.38129515  0.27518206  1  0.064744  0  0.099492  0.064868  0  1.007535  0
H  H84  1  0.63434525  0.74688333  0.94730699  1  0.019668  0  0.093621  0.053666  0  0.980364  0
H  H85  1  0.74688679  0.94730788  0.63434404  1  0.020093  0  0.093632  0.053676  0  0.980348  0
H  H86  1  0.94730706  0.63434762  0.74688915  1  0.020066  0  0.09362  0.053653  0  0.980355  0
H  H87  1  0.36565380  0.25311362  0.05269401  1  0.019585  0  0.093616  0.053663  0  0.980352  0
H  H88  1  0.25311433  0.05269002  0.36565149  1  0.019627  0  0.093608  0.053648  0  0.980424  0
H  H89  1  0.05269337  0.36565182  0.25310899  1  0.020047  0  0.093597  0.053659  0  0.980346  0
H  H90  1  0.75891158  0.87539637  0.10568557  1  0.045294  0  0.091318  0.134353  0  1.003106  0
H  H91  1  0.87540055  0.10568818  0.75891112  1  0.045219  0  0.091448  0.134542  0  1.002958  0
H  H92  1  0.10568971  0.75891320  0.87539695  1  0.04526  0  0.091378  0.134429  0  1.003055  0
H  H93  1  0.24108956  0.12460524  0.89431406  1  0.045307  0  0.09133  0.134342  0  1.003098  0
H  H94  1  0.12460127  0.89431251  0.24108433  1  0.045275  0  0.091344  0.134439  0  1.003026  0
H  H95  1  0.89431210  0.24108380  0.12460026  1  0.045259  0  0.091346  0.134423  0  1.003023  0
H  H96  1  0.79037280  0.79460943  0.13383783  1  0.04534  0  0.091275  0.13698  0  1.010005  0
H  H97  1  0.79461038  0.13383746  0.79037071  1  0.04539  0  0.091277  0.137004  0  1.009916  0
H  H98  1  0.13383877  0.79037142  0.79460662  1  0.045297  0  0.091243  0.136958  0  1.010018  0
H  H99  1  0.20962903  0.20539312  0.86616289  1  0.045295  0  0.09126  0.136954  0  1.010021  0
H  H100  1  0.20539074  0.86616044  0.20962423  1  0.045309  0  0.091294  0.137041  0  1.009946  0
H  H101  1  0.86616305  0.20962681  0.20539274  1  0.045341  0  0.091248  0.136971  0  1.00993  0
H  H102  1  0.80895054  0.81875083  0.04520137  1  0.037025  0  0.089428  0.121121  0  0.995791  0
H  H103  1  0.81875267  0.04520102  0.80894813  1  0.037269  0  0.089415  0.121092  0  0.995868  0
H  H104  1  0.04520609  0.80895284  0.81875259  1  0.036979  0  0.089416  0.121129  0  0.995801  0
H  H105  1  0.19104920  0.18124890  0.95479664  1  0.03706  0  0.089417  0.1211  0  0.995798  0
H  H106  1  0.18124914  0.95479659  0.19104577  1  0.036953  0  0.08941  0.121131  0  0.99578  0
H  H107  1  0.95479921  0.19104762  0.18124916  1  0.037161  0  0.089434  0.121156  0  0.995757  0
H  H108  1  0.66838782  0.24353137  0.04490216  1  0.646343  0  0.299523  0.39509  0  0.936978  0
H  H109  1  0.24352864  0.04490163  0.66838737  1  0.646278  0  0.29952  0.395049  0  0.93704  0
H  H110  1  0.04490153  0.66838705  0.24352894  1  0.646291  0  0.299545  0.395077  0  0.936984  0
H  H111  1  0.33161193  0.75646837  0.95509702  1  0.646317  0  0.299522  0.395058  0  0.937023  0
H  H112  1  0.75646832  0.95509744  0.33161247  1  0.646339  0  0.299515  0.395049  0  0.937047  0
H  H113  1  0.95509821  0.33161269  0.75647082  1  0.646284  0  0.299517  0.395028  0  0.937064  0
H  H114  1  0.63022544  0.28788386  0.11254841  1  0.657027  0  0.304913  0.383944  0  0.946528  0
H  H115  1  0.28788332  0.11254757  0.63022637  1  0.657046  0  0.304931  0.383972  0  0.946455  0
H  H116  1  0.11254846  0.63022757  0.28788373  1  0.657052  0  0.304919  0.383945  0  0.946511  0
H  H117  1  0.36977500  0.71211743  0.88745089  1  0.65696  0  0.304895  0.383931  0  0.946532  0
H  H118  1  0.71211573  0.88745061  0.36977327  1  0.657022  0  0.304912  0.383965  0  0.946499  0
H  H119  1  0.88745199  0.36977311  0.71211655  1  0.657039  0  0.304916  0.383938  0  0.946507  0
C  C120  1  0.84834102  0.33299743  0.99365323  1  1.564271  0  0.222286  0.598143  0  4.168242  0
C  C121  1  0.33299394  0.99365172  0.84833846  1  1.564307  0  0.222232  0.598005  0  4.1684  0
C  C122  1  0.99365327  0.84834293  0.33299840  1  1.564282  0  0.222309  0.598203  0  4.168224  0
C  C123  1  0.15165871  0.66699983  0.00634107  1  1.563943  0  0.222244  0.598135  0  4.168501  0
C  C124  1  0.66700441  0.00634491  0.15166281  1  1.564011  0  0.222293  0.598185  0  4.168341  0
C  C125  1  0.00634300  0.15165768  0.66700288  1  1.564216  0  0.222199  0.598043  0  4.168492  0
C  C126  1  0.95049325  0.38497779  0.02753105  1  -0.091919  0  -0.016781  -0.021638  0  4.004963  0
C  C127  1  0.38497411  0.02752928  0.95049275  1  -0.09189  0  -0.016747  -0.021655  0  4.004944  0
C  C128  1  0.02752986  0.95049652  0.38497519  1  -0.091905  0  -0.016841  -0.021818  0  4.005255  0
C  C129  1  0.04950580  0.61502409  0.97246741  1  -0.091764  0  -0.016795  -0.021566  0  4.005046  0
C  C130  1  0.61502494  0.97246891  0.04950922  1  -0.091668  0  -0.016779  -0.021561  0  4.00495  0
C  C131  1  0.97246919  0.04950536  0.61502269  1  -0.091599  0  -0.016767  -0.021559  0  4.004805  0
C  C132  1  0.00937687  0.44241562  0.12263736  1  0.0374  0  -0.086391  -0.199632  0  3.931407  0
C  C133  1  0.44241114  0.12263619  0.00937571  1  0.0375  0  -0.086426  -0.199704  0  3.931467  0
C  C134  1  0.12263675  0.00937821  0.44241406  1  0.037417  0  -0.086359  -0.199582  0  3.931519  0
C  C135  1  0.99062148  0.55758286  0.87736039  1  0.037391  0  -0.086368  -0.199685  0  3.931475  0
C  C136  1  0.55758583  0.87736227  0.99062452  1  0.037368  0  -0.086351  -0.199672  0  3.931444  0
C  C137  1  0.87736160  0.99062088  0.55758389  1  0.037339  0  -0.086343  -0.199685  0  3.931305  0
C  C138  1  0.10469895  0.49515185  0.15473600  1  0.433631  0  0.08163  0.2438  0  4.071921  0
C  C139  1  0.49514938  0.15473528  0.10469838  1  0.433431  0  0.081673  0.243841  0  4.071864  0
C  C140  1  0.15473411  0.10470051  0.49515011  1  0.433516  0  0.081621  0.243729  0  4.072017  0
C  C141  1  0.89530010  0.50484880  0.84526325  1  0.433625  0  0.081658  0.243842  0  4.071828  0
C  C142  1  0.50484967  0.84526538  0.89530146  1  0.433654  0  0.081623  0.243779  0  4.071832  0
C  C143  1  0.84526285  0.89529856  0.50484739  1  0.43344  0  0.081649  0.243893  0  4.071714  0
C  C144  1  0.14039384  0.49423540  0.09165037  1  -0.021784  0  -0.089754  -0.211211  0  3.926474  0
C  C145  1  0.49423151  0.09164895  0.14039320  1  -0.021902  0  -0.089752  -0.211135  0  3.926485  0
C  C146  1  0.09164846  0.14039449  0.49423315  1  -0.02196  0  -0.089735  -0.211099  0  3.926546  0
C  C147  1  0.85960591  0.50576557  0.90835037  1  -0.021791  0  -0.089768  -0.211186  0  3.926457  0
C  C148  1  0.50576546  0.90835075  0.85960742  1  -0.02178  0  -0.089772  -0.211215  0  3.92647  0
C  C149  1  0.90834850  0.85960457  0.50576201  1  -0.021577  0  -0.089764  -0.21131  0  3.926464  0
C  C150  1  0.08054158  0.43489223  0.99622648  1  -0.091844  0  -0.017034  -0.015174  0  3.995621  0
C  C151  1  0.43488887  0.99622553  0.08054075  1  -0.091811  0  -0.01706  -0.015413  0  3.995799  0
C  C152  1  0.99622477  0.08054111  0.43489029  1  -0.09194  0  -0.017022  -0.015232  0  3.995769  0
C  C153  1  0.91945885  0.56510906  0.00377165  1  -0.091884  0  -0.017009  -0.015198  0  3.995637  0
C  C154  1  0.56510810  0.00377478  0.91946183  1  -0.091687  0  -0.017076  -0.015317  0  3.995698  0
C  C155  1  0.00377219  0.91945796  0.56510605  1  -0.091988  0  -0.017052  -0.015227  0  3.995753  0
C  C156  1  0.98634231  0.37892863  0.96406902  1  0.072494  0  -0.079675  -0.116313  0  3.925668  0
C  C157  1  0.37892416  0.96406783  0.98634139  1  0.072455  0  -0.079628  -0.116035  0  3.925485  0
C  C158  1  0.96406674  0.98634170  0.37892448  1  0.072439  0  -0.07962  -0.116055  0  3.925736  0
C  C159  1  0.01365743  0.62107296  0.03592840  1  0.072154  0  -0.079735  -0.116369  0  3.925771  0
C  C160  1  0.62107351  0.03593096  0.01366092  1  0.072199  0  -0.07966  -0.116265  0  3.925591  0
C  C161  1  0.03592882  0.01365549  0.62106965  1  0.072266  0  -0.079675  -0.116263  0  3.925792  0
C  C162  1  0.11804548  0.43562893  0.92867116  1  1.550835  0  0.226139  0.598956  0  4.143176  0
C  C163  1  0.43562487  0.92866997  0.11804454  1  1.55097  0  0.22614  0.599041  0  4.143099  0
C  C164  1  0.92866740  0.11804175  0.43562457  1  1.550609  0  0.226212  0.598902  0  4.143165  0
C  C165  1  0.88195776  0.56437673  0.07133099  1  1.55084  0  0.22616  0.599016  0  4.142857  0
C  C166  1  0.56437558  0.07133318  0.88196004  1  1.550278  0  0.226158  0.598984  0  4.14318  0
C  C167  1  0.07132955  0.88195609  0.56437196  1  1.550957  0  0.226192  0.59905  0  4.143113  0
C  C168  1  0.25751935  0.59807808  0.28803359  1  0.39869  0  -0.06171  0.086808  0  3.869466  0
C  C169  1  0.59807597  0.28803329  0.25751806  1  0.398868  0  -0.061679  0.08681  0  3.869387  0
C  C170  1  0.28803362  0.25752036  0.59807735  1  0.398902  0  -0.061732  0.086749  0  3.869467  0
C  C171  1  0.74247969  0.40192071  0.71196507  1  0.39867  0  -0.06171  0.08674  0  3.869686  0
C  C172  1  0.40192239  0.71196704  0.74248204  1  0.398826  0  -0.06172  0.086735  0  3.869708  0
C  C173  1  0.71196682  0.74248031  0.40192176  1  0.39871  0  -0.06176  0.086655  0  3.869634  0
C  C174  1  0.29937674  0.63138106  0.39187913  1  -0.025284  0  -0.245929  -0.397782  0  3.954539  0
C  C175  1  0.63138083  0.39187830  0.29937299  1  -0.025235  0  -0.245866  -0.39764  0  3.954641  0
C  C176  1  0.39187869  0.29937512  0.63138210  1  -0.025414  0  -0.245906  -0.397712  0  3.954552  0
C  C177  1  0.70062370  0.36861777  0.60812174  1  -0.025289  0  -0.245903  -0.397706  0  3.954663  0
C  C178  1  0.36861822  0.60812173  0.70062489  1  -0.025395  0  -0.245895  -0.397708  0  3.954658  0
C  C179  1  0.60812174  0.70062247  0.36861837  1  -0.025239  0  -0.245917  -0.397745  0  3.954588  0
C  C180  1  0.54749232  0.31909514  0.88025238  1  1.550476  0  0.221811  0.601539  0  4.165619  0
C  C181  1  0.31909696  0.88024831  0.54749036  1  1.550779  0  0.221886  0.601669  0  4.165487  0
C  C182  1  0.88024921  0.54748918  0.31909737  1  1.55049  0  0.221774  0.601384  0  4.165566  0
C  C183  1  0.45251299  0.68090594  0.11975306  1  1.550469  0  0.221842  0.601482  0  4.165704  0
C  C184  1  0.68090348  0.11975052  0.45250992  1  1.550335  0  0.221799  0.601476  0  4.16578  0
C  C185  1  0.11975053  0.45251117  0.68090259  1  1.550342  0  0.221856  0.601592  0  4.165705  0
C  C186  1  0.53173758  0.40159921  0.88951098  1  -0.014648  0  -0.022932  -0.030069  0  4.015409  0
C  C187  1  0.40160052  0.88950656  0.53173554  1  -0.014585  0  -0.022926  -0.029992  0  4.015242  0
C  C188  1  0.88950858  0.53173458  0.40160151  1  -0.014499  0  -0.022969  -0.030005  0  4.015288  0
C  C189  1  0.46826774  0.59840249  0.11049525  1  -0.014578  0  -0.023024  -0.030091  0  4.015264  0
C  C190  1  0.59840061  0.11049196  0.46826487  1  -0.014571  0  -0.022903  -0.029957  0  4.015279  0
C  C191  1  0.11049395  0.46826645  0.59840071  1  -0.014614  0  -0.022926  -0.029923  0  4.01521  0
C  C192  1  0.44266573  0.39318544  0.86904066  1  -0.011709  0  -0.086177  -0.132037  0  3.959238  0
C  C193  1  0.39318880  0.86903587  0.44266477  1  -0.009778  0  -0.086221  -0.132136  0  3.959491  0
C  C194  1  0.86903692  0.44266490  0.39319080  1  -0.011654  0  -0.086258  -0.132263  0  3.959628  0
C  C195  1  0.55733820  0.60681439  0.13096805  1  -0.009968  0  -0.086145  -0.132068  0  3.959412  0
C  C196  1  0.60681094  0.13096449  0.55733578  1  -0.012385  0  -0.086193  -0.13209  0  3.959381  0
C  C197  1  0.13096700  0.55733614  0.60681245  1  -0.01065  0  -0.086231  -0.132251  0  3.95956  0
C  C198  1  0.42892329  0.47111793  0.87842603  1  -0.027954  0  -0.021438  -0.025737  0  4.007845  0
C  C199  1  0.47112059  0.87842194  0.42892262  1  -0.02775  0  -0.02145  -0.025772  0  4.008173  0
C  C200  1  0.87842187  0.42892306  0.47112182  1  -0.027733  0  -0.021384  -0.025724  0  4.008266  0
C  C201  1  0.57107994  0.52888220  0.12158256  1  -0.027499  0  -0.021469  -0.025839  0  4.008139  0
C  C202  1  0.52887915  0.12158088  0.57107578  1  -0.027261  0  -0.021442  -0.025771  0  4.008165  0
C  C203  1  0.12158205  0.57107922  0.52888123  1  -0.026843  0  -0.021454  -0.025762  0  4.008152  0
C  C204  1  0.50331822  0.55741111  0.90921097  1  -0.007529  0  -0.095171  -0.21897  0  3.946853  0
C  C205  1  0.55741341  0.90920791  0.50331679  1  -0.007486  0  -0.095238  -0.218961  0  3.946861  0
C  C206  1  0.90920788  0.50332067  0.55741711  1  -0.007713  0  -0.095178  -0.218942  0  3.946844  0
C  C207  1  0.49668292  0.44258805  0.09079607  1  -0.007422  0  -0.095181  -0.218929  0  3.946908  0
C  C208  1  0.44258493  0.09079242  0.49667920  1  -0.007415  0  -0.095158  -0.21894  0  3.946905  0
C  C209  1  0.09079674  0.49668379  0.44258744  1  -0.00746  0  -0.095219  -0.218988  0  3.946874  0
C  C210  1  0.59287472  0.56588117  0.93222594  1  0.488528  0  0.081944  0.251651  0  4.088802  0
C  C211  1  0.56588451  0.93222376  0.59287191  1  0.488444  0  0.082051  0.251708  0  4.088659  0
C  C212  1  0.93222473  0.59287379  0.56588370  1  0.488569  0  0.081972  0.251609  0  4.088728  0
C  C213  1  0.40712851  0.43411957  0.06777991  1  0.488533  0  0.082096  0.251757  0  4.088634  0
C  C214  1  0.43411731  0.06777509  0.40712472  1  0.48859  0  0.081989  0.251683  0  4.088623  0
C  C215  1  0.06777780  0.40712970  0.43411813  1  0.488499  0  0.08204  0.251666  0  4.088761  0
C  C216  1  0.60632450  0.48705586  0.92005094  1  -0.02463  0  -0.089791  -0.19096  0  3.904444  0
C  C217  1  0.48705957  0.92004966  0.60632412  1  -0.024601  0  -0.089769  -0.190894  0  3.904263  0
C  C218  1  0.92004814  0.60632382  0.48705877  1  -0.024837  0  -0.08976  -0.19084  0  3.904416  0
C  C219  1  0.39367873  0.51294549  0.07995511  1  -0.024688  0  -0.08983  -0.190858  0  3.904398  0
C  C220  1  0.51294434  0.07995138  0.39367620  1  -0.024718  0  -0.089856  -0.191015  0  3.904409  0
C  C221  1  0.07995300  0.39367780  0.51294203  1  -0.024634  0  -0.089802  -0.190909  0  3.904416  0
C  C222  1  0.33462134  0.46352566  0.85913896  1  1.549273  0  0.224996  0.606848  0  4.160582  0
C  C223  1  0.46352536  0.85913632  0.33462118  1  1.549275  0  0.224932  0.606755  0  4.160709  0
C  C224  1  0.85913310  0.33462261  0.46353064  1  1.550048  0  0.22489  0.606656  0  4.160842  0
C  C225  1  0.66538190  0.53647508  0.14087099  1  1.549298  0  0.224925  0.606798  0  4.160643  0
C  C226  1  0.53646954  0.14086919  0.66537712  1  1.550002  0  0.224871  0.606591  0  4.160887  0
C  C227  1  0.14087013  0.66538059  0.53647482  1  1.549247  0  0.224943  0.606816  0  4.160613  0
C  C228  1  0.66491219  0.73295597  0.00542749  1  0.417069  0  -0.067771  0.085909  0  3.896571  0
C  C229  1  0.73296046  0.00542780  0.66490958  1  0.418335  0  -0.067785  0.085862  0  3.896634  0
C  C230  1  0.00542761  0.66491350  0.73295947  1  0.416634  0  -0.06775  0.085896  0  3.896635  0
C  C231  1  0.33508895  0.26704442  0.99457526  1  0.417235  0  -0.067768  0.085805  0  3.896618  0
C  C232  1  0.26704204  0.99457012  0.33508346  1  0.417204  0  -0.067729  0.085961  0  3.896684  0
C  C233  1  0.99457352  0.33508811  0.26703839  1  0.416514  0  -0.067736  0.085859  0  3.896577  0
C  C234  1  0.76190306  0.80985348  0.07654736  1  -0.059279  0  -0.246652  -0.393536  0  3.947399  0
C  C235  1  0.80985626  0.07654842  0.76190085  1  -0.061164  0  -0.246766  -0.393713  0  3.9474  0
C  C236  1  0.07655039  0.76190527  0.80985473  1  -0.05922  0  -0.246685  -0.393603  0  3.94743  0
C  C237  1  0.23809738  0.19014781  0.92345194  1  -0.059331  0  -0.246624  -0.393425  0  3.947392  0
C  C238  1  0.19014416  0.92344916  0.23809201  1  -0.05929  0  -0.246696  -0.393712  0  3.947341  0
C  C239  1  0.92345282  0.23809545  0.19014527  1  -0.059417  0  -0.246655  -0.393617  0  3.947338  0
O  O240  1  0.79688730  0.28336198  0.90556172  1  -1.150323  0  -0.307979  -0.523923  0  2.300517  0
O  O241  1  0.28336184  0.90555986  0.79688682  1  -1.150377  0  -0.307951  -0.523848  0  2.300515  0
O  O242  1  0.90556188  0.79688898  0.28336674  1  -1.150308  0  -0.307966  -0.523883  0  2.300511  0
O  O243  1  0.20311242  0.71663158  0.09443492  1  -1.150196  0  -0.307964  -0.523896  0  2.300441  0
O  O244  1  0.71663721  0.09443709  0.20311359  1  -1.150273  0  -0.307996  -0.523968  0  2.30049  0
O  O245  1  0.09443440  0.20311101  0.71663435  1  -1.150226  0  -0.307933  -0.523865  0  2.300524  0
O  O246  1  0.81726875  0.33983004  0.05240358  1  -1.194149  0  -0.322401  -0.574351  0  2.373857  0
O  O247  1  0.33982911  0.05240245  0.81726745  1  -1.194178  0  -0.322416  -0.57431  0  2.373913  0
O  O248  1  0.05240285  0.81727041  0.33983179  1  -1.194111  0  -0.322463  -0.574475  0  2.373861  0
O  O249  1  0.18272889  0.66016626  0.94759209  1  -1.193918  0  -0.322374  -0.574376  0  2.374142  0
O  O250  1  0.66016855  0.94759448  0.18273193  1  -1.19399  0  -0.322396  -0.574369  0  2.374097  0
O  O251  1  0.94759203  0.18272770  0.66016826  1  -1.194202  0  -0.322379  -0.574325  0  2.374068  0
O  O252  1  0.06936051  0.36648333  0.84573365  1  -1.185905  0  -0.3127  -0.570155  0  2.395179  0
O  O253  1  0.36647565  0.84573191  0.06935798  1  -1.185995  0  -0.312757  -0.570221  0  2.39498  0
O  O254  1  0.84572666  0.06935199  0.36647647  1  -1.185547  0  -0.312736  -0.570095  0  2.395072  0
O  O255  1  0.93064411  0.63352481  0.15426797  1  -1.186015  0  -0.312713  -0.570175  0  2.394994  0
O  O256  1  0.63352412  0.15427216  0.93064959  1  -1.185507  0  -0.312743  -0.570142  0  2.395055  0
O  O257  1  0.15426682  0.93064301  0.63352041  1  -1.185933  0  -0.312753  -0.570201  0  2.395163  0
O  O258  1  0.19515323  0.50323872  0.95566886  1  -1.178611  0  -0.296922  -0.554503  0  2.398964  0
O  O259  1  0.50323190  0.95566497  0.19514847  1  -1.178657  0  -0.296915  -0.554518  0  2.399137  0
O  O260  1  0.95565760  0.19514391  0.50323075  1  -1.178598  0  -0.296978  -0.554575  0  2.399253  0
O  O261  1  0.80485209  0.49676606  0.04433835  1  -1.178458  0  -0.296951  -0.554605  0  2.398971  0
O  O262  1  0.49676926  0.04433974  0.80485798  1  -1.178536  0  -0.296918  -0.554568  0  2.399165  0
O  O263  1  0.04433449  0.80484983  0.49676587  1  -1.17855  0  -0.296927  -0.554542  0  2.399031  0
O  O264  1  0.62578427  0.32687579  0.88457046  1  -1.166105  0  -0.313577  -0.549742  0  2.386609  0
O  O265  1  0.32687780  0.88456744  0.62578640  1  -1.166098  0  -0.313638  -0.549843  0  2.386434  0
O  O266  1  0.88456831  0.62578379  0.32687729  1  -1.16602  0  -0.313621  -0.549775  0  2.386479  0
O  O267  1  0.37422175  0.67312808  0.11543843  1  -1.165959  0  -0.313636  -0.549812  0  2.386703  0
O  O268  1  0.67312613  0.11543485  0.37422016  1  -1.166008  0  -0.313628  -0.549778  0  2.386762  0
O  O269  1  0.11543632  0.37422252  0.67312667  1  -1.165932  0  -0.313647  -0.549832  0  2.386791  0
O  O270  1  0.48297837  0.24690158  0.86896806  1  -1.19872  0  -0.323673  -0.587202  0  2.369146  0
O  O271  1  0.24690669  0.86896912  0.48298253  1  -1.19907  0  -0.323698  -0.587272  0  2.369308  0
O  O272  1  0.86896752  0.48297629  0.24690593  1  -1.198879  0  -0.323621  -0.587068  0  2.369229  0
O  O273  1  0.51702276  0.75309633  0.13103039  1  -1.198918  0  -0.323623  -0.5871  0  2.369227  0
O  O274  1  0.75309655  0.13103408  0.51702410  1  -1.198741  0  -0.323648  -0.587164  0  2.369133  0
O  O275  1  0.13103293  0.51702439  0.75309669  1  -1.198759  0  -0.323674  -0.587216  0  2.369098  0
O  O276  1  0.27081012  0.38414630  0.83549056  1  -1.177273  0  -0.313233  -0.544214  0  2.371277  0
O  O277  1  0.38414744  0.83548939  0.27081145  1  -1.177328  0  -0.313198  -0.544139  0  2.371297  0
O  O278  1  0.83548363  0.27080950  0.38415076  1  -1.17789  0  -0.313211  -0.544133  0  2.371345  0
O  O279  1  0.72919311  0.61585382  0.16451803  1  -1.177294  0  -0.313216  -0.544151  0  2.371283  0
O  O280  1  0.61584954  0.16451708  0.72918956  1  -1.177861  0  -0.313186  -0.544085  0  2.37137  0
O  O281  1  0.16451682  0.72919180  0.61585323  1  -1.177311  0  -0.313208  -0.544146  0  2.371279  0
O  O282  1  0.32501489  0.53619740  0.86758177  1  -1.181521  0  -0.319169  -0.580879  0  2.378136  0
O  O283  1  0.53619840  0.86758211  0.32501318  1  -1.18158  0  -0.319141  -0.580825  0  2.378095  0
O  O284  1  0.86757990  0.32501713  0.53620249  1  -1.181788  0  -0.319086  -0.580681  0  2.378012  0
O  O285  1  0.67498834  0.46380272  0.13242506  1  -1.181658  0  -0.319067  -0.580799  0  2.378069  0
O  O286  1  0.46379718  0.13242124  0.67498290  1  -1.181791  0  -0.319096  -0.580717  0  2.378072  0
O  O287  1  0.13242404  0.67498948  0.46380368  1  -1.18163  0  -0.319111  -0.58084  0  2.378067  0
O  O288  1  0.15715518  0.54709335  0.24980408  1  -1.109006  0  -0.181232  -0.222394  0  2.544294  0
O  O289  1  0.54709029  0.24980387  0.15715405  1  -1.109063  0  -0.18127  -0.22236  0  2.544172  0
O  O290  1  0.24980189  0.15715330  0.54709075  1  -1.108997  0  -0.181231  -0.222354  0  2.544231  0
O  O291  1  0.84284594  0.45290580  0.75019477  1  -1.109014  0  -0.181234  -0.222384  0  2.544147  0
O  O292  1  0.45290668  0.75019582  0.84284658  1  -1.109033  0  -0.181243  -0.222408  0  2.544205  0
O  O293  1  0.75019297  0.84284296  0.45290462  1  -1.109092  0  -0.181217  -0.222368  0  2.544121  0
O  O294  1  0.67076622  0.64741280  0.96913112  1  -1.070908  0  -0.188544  -0.211191  0  2.501433  0
O  O295  1  0.64741646  0.96913205  0.67076481  1  -1.070919  0  -0.188569  -0.211192  0  2.501387  0
O  O296  1  0.96912818  0.67076711  0.64741455  1  -1.070764  0  -0.188571  -0.211186  0  2.501398  0
O  O297  1  0.32923493  0.35258820  0.03087299  1  -1.070893  0  -0.188632  -0.211249  0  2.501426  0
O  O298  1  0.35258605  0.03086649  0.32922960  1  -1.070657  0  -0.188582  -0.211232  0  2.501394  0
O  O299  1  0.03087226  0.32923541  0.35258456  1  -1.070763  0  -0.188586  -0.211177  0  2.501327  0
O  O300  1  0.68489109  0.29792285  0.10163429  1  -1.26011  0  -0.570238  -0.739904  0  2.141685  0
O  O301  1  0.29792048  0.10163476  0.68489198  1  -1.260011  0  -0.570229  -0.739866  0  2.141639  0
O  O302  1  0.10163306  0.68489130  0.29792238  1  -1.260095  0  -0.570256  -0.739864  0  2.14172  0
O  O303  1  0.31510935  0.70207721  0.89836638  1  -1.260039  0  -0.570223  -0.739857  0  2.141723  0
O  O304  1  0.70207649  0.89836493  0.31510864  1  -1.260123  0  -0.570239  -0.739879  0  2.141749  0
O  O305  1  0.89836530  0.31510780  0.70207908  1  -1.260013  0  -0.570244  -0.739856  0  2.141786  0
