# generated using pymatgen
data_ZnH16C23N5O7
_symmetry_space_group_name_H-M   'P 1'
_cell_length_a   15.89287041
_cell_length_b   17.09441975
_cell_length_c   19.37339515
_cell_angle_alpha   89.44164873
_cell_angle_beta   86.87926358
_cell_angle_gamma   86.75989437
_symmetry_Int_Tables_number   1
_chemical_formula_structural   ZnH16C23N5O7
_chemical_formula_sum   'Zn2 H32 C46 N10 O14'
_cell_volume   5247.02830512
_cell_formula_units_Z   2
loop_
 _symmetry_equiv_pos_site_id
 _symmetry_equiv_pos_as_xyz
  1  'x, y, z'
loop_
 _atom_site_type_symbol
 _atom_site_label
 _atom_site_symmetry_multiplicity
 _atom_site_fract_x
 _atom_site_fract_y
 _atom_site_fract_z
 _atom_site_occupancy
 _atom_site_pbe_bader_charge
 _atom_site_pbe_bader_spin_density
 _atom_site_pbe_cm5_charge
 _atom_site_pbe_ddec_charge
 _atom_site_pbe_ddec_spin_density
 _atom_site_pbe_ddec_sum_bond_order
 _atom_site_pbe_magmom
Zn  Zn0  1  0.58933505  0.50649657  0.49679604  1  1.284911  0  0.671755  0.816952  0  2.416208  0
Zn  Zn1  1  0.41152920  0.49448296  0.50306639  1  1.286997  0  0.671654  0.816486  0  2.420204  0
H  H2  1  0.88370943  0.47782069  0.59426475  1  0.153271  0  0.123801  0.135929  0  0.989219  0
H  H3  1  0.11722524  0.52243680  0.40591806  1  0.164348  0  0.1237  0.13538  0  0.989847  0
H  H4  1  0.12330968  0.43730433  0.61629335  1  0.104583  0  0.124821  0.13621  0  0.972232  0
H  H5  1  0.87797986  0.56244524  0.38374065  1  0.143205  0  0.124619  0.136034  0  0.972141  0
H  H6  1  0.28289328  0.44204241  0.60520311  1  0.149589  0  0.131316  0.110347  0  0.976579  0
H  H7  1  0.71840252  0.55796350  0.39472066  1  0.143937  0  0.131307  0.110717  0  0.977168  0
H  H8  1  0.62253946  0.43143652  0.84511482  1  0.14785  0  0.111949  0.114369  0  1.012442  0
H  H9  1  0.37524233  0.56556383  0.15569870  1  0.11951  0  0.112418  0.114624  0  1.014553  0
H  H10  1  0.37635950  0.55185147  0.85360019  1  0.09176  0  0.110152  0.10782  0  1.01034  0
H  H11  1  0.62269158  0.44753150  0.14598555  1  0.084999  0  0.110167  0.108234  0  1.009572  0
H  H12  1  0.37542949  0.54590035  0.72439952  1  0.098485  0  0.111327  0.117349  0  0.984113  0
H  H13  1  0.62613956  0.45682275  0.27487992  1  0.10019  0  0.111141  0.117052  0  0.98433  0
H  H14  1  0.54994331  0.89495053  0.58344873  1  0.113806  0  0.109089  0.126304  0  1.021411  0
H  H15  1  0.45000826  0.10586749  0.41645926  1  0.105554  0  0.109317  0.126988  0  1.02025  0
H  H16  1  0.61020490  0.10835438  0.58881225  1  0.099568  0  0.112268  0.132746  0  0.993046  0
H  H17  1  0.39010122  0.89242304  0.41082480  1  0.101705  0  0.112238  0.132894  0  0.992828  0
H  H18  1  0.72502990  0.47975942  0.59747629  1  0.147725  0  0.128076  0.106683  0  1.00434  0
H  H19  1  0.27584237  0.52080414  0.40260317  1  0.145398  0  0.127839  0.106544  0  1.003521  0
H  H20  1  0.62056226  0.37457480  0.66397306  1  0.102629  0  0.104968  0.047943  0  1.012917  0
H  H21  1  0.38022885  0.62632722  0.33592715  1  0.103981  0  0.10477  0.047103  0  1.014961  0
H  H22  1  0.66129467  0.69771210  0.56484370  1  0.041578  0  0.091216  0.093849  0  1.009878  0
H  H23  1  0.65256739  0.70900732  0.65714923  1  0.071827  0  0.106862  0.112074  0  0.971274  0
H  H24  1  0.66194040  0.79369402  0.60250511  1  0.034957  0  0.093792  0.088324  0  1.00043  0
H  H25  1  0.33808489  0.20651135  0.39756193  1  0.027045  0  0.094107  0.088815  0  1.000973  0
H  H26  1  0.33826856  0.30245325  0.43536144  1  0.040846  0  0.090851  0.093398  0  1.009806  0
H  H27  1  0.34687170  0.29133965  0.34301911  1  0.081197  0  0.106953  0.112421  0  0.971585  0
H  H28  1  0.73955654  0.29963408  0.61077529  1  0.099772  0  0.103481  0.110864  0  0.996688  0
H  H29  1  0.71869559  0.30346757  0.52032534  1  0.072249  0  0.091293  0.096034  0  1.018064  0
H  H30  1  0.74588833  0.21097721  0.56150335  1  0.070621  0  0.092347  0.089024  0  0.991478  0
H  H31  1  0.28137708  0.69749290  0.47913234  1  0.077533  0  0.09112  0.095662  0  1.017259  0
H  H32  1  0.26086648  0.70108657  0.38864048  1  0.058366  0  0.103286  0.110696  0  0.996401  0
H  H33  1  0.25445550  0.78988039  0.43771111  1  0.061485  0  0.092314  0.088398  0  0.993271  0
C  C34  1  0.52805457  0.34980441  0.49007686  1  1.626531  0  0.223053  0.637579  0  4.155705  0
C  C35  1  0.47188347  0.65104784  0.50972871  1  1.556743  0  0.221983  0.634714  0  4.157777  0
C  C36  1  0.53585778  0.26201145  0.49112127  1  0.016105  0  -0.01987  -0.214787  0  3.897396  0
C  C37  1  0.46423118  0.73881874  0.50865975  1  0.068512  0  -0.019367  -0.213605  0  3.897507  0
C  C38  1  0.48996702  0.21947787  0.44516071  1  0.544358  0  0.087884  0.262161  0  4.050053  0
C  C39  1  0.51002755  0.78132923  0.55468072  1  0.541536  0  0.088218  0.262135  0  4.051525  0
C  C40  1  0.48538434  0.13883208  0.45169979  1  -0.032017  0  -0.100144  -0.278826  0  3.947211  0
C  C41  1  0.51470803  0.86196756  0.54811176  1  -0.031398  0  -0.100284  -0.277973  0  3.947067  0
C  C42  1  0.52790507  0.09915555  0.50457265  1  0.365536  0  0.083049  0.203037  0  4.08489  0
C  C43  1  0.47231571  0.90162158  0.49514861  1  0.351767  0  0.082513  0.2024  0  4.082421  0
C  C44  1  0.57732890  0.13996296  0.54826240  1  0.011297  0  -0.094626  -0.269593  0  3.948369  0
C  C45  1  0.42296366  0.86082670  0.45139263  1  -0.01211  0  -0.094324  -0.269412  0  3.946916  0
C  C46  1  0.58143575  0.22097216  0.54149914  1  0.411728  0  0.08463  0.254762  0  4.046152  0
C  C47  1  0.41882509  0.77983734  0.45817965  1  0.476457  0  0.083918  0.254887  0  4.045067  0
C  C48  1  0.23930754  0.50362091  0.44896091  1  0.430617  0  0.06461  0.112612  0  3.895282  0
C  C49  1  0.76167349  0.49683719  0.55115391  1  0.482971  0  0.06513  0.112589  0  3.894445  0
C  C50  1  0.15191847  0.50437009  0.45082464  1  0.007809  0  -0.065718  -0.179215  0  3.901299  0
C  C51  1  0.84908355  0.49586470  0.54931865  1  0.025507  0  -0.066062  -0.179848  0  3.900917  0
C  C52  1  0.10932408  0.48131699  0.51236385  1  0.323293  0  0.107864  0.199173  0  4.040978  0
C  C53  1  0.89181276  0.51872279  0.48778239  1  0.273475  0  0.107833  0.199165  0  4.037982  0
C  C54  1  0.15573481  0.45652776  0.56868621  1  -0.012054  0  -0.065004  -0.180461  0  3.91508  0
C  C55  1  0.84548463  0.54343201  0.43138778  1  -0.058089  0  -0.064503  -0.179875  0  3.912915  0
C  C56  1  0.49646690  0.48699720  0.63573078  1  1.555979  0  0.219963  0.592217  0  4.172375  0
C  C57  1  0.50483276  0.51435598  0.36413855  1  1.565677  0  0.219181  0.590994  0  4.172702  0
C  C58  1  0.24310603  0.45857961  0.56272419  1  0.470876  0  0.064253  0.109772  0  3.902871  0
C  C59  1  0.75809211  0.54153145  0.43729546  1  0.488975  0  0.064414  0.109211  0  3.903369  0
C  C60  1  0.56751173  0.45307209  0.74712958  1  0.018117  0  -0.009902  0.009519  0  3.961226  0
C  C61  1  0.43249998  0.54702027  0.25313636  1  0.018197  0  -0.010067  0.008041  0  3.962664  0
C  C62  1  0.56836414  0.45699114  0.81907690  1  -0.056855  0  -0.064917  -0.116543  0  3.894955  0
C  C63  1  0.43031241  0.54140547  0.18139498  1  -0.017966  0  -0.065724  -0.117599  0  3.896216  0
C  C64  1  0.49912368  0.49192583  0.85766848  1  -0.042606  0  -0.002856  0.015583  0  3.99442  0
C  C65  1  0.49889531  0.50566385  0.14258235  1  -0.015233  0  -0.002801  0.017309  0  3.994328  0
C  C66  1  0.42946479  0.52431269  0.82325890  1  0.011781  0  -0.072211  -0.091254  0  3.948083  0
C  C67  1  0.56992366  0.47545342  0.17648441  1  -0.032838  0  -0.071776  -0.091925  0  3.947643  0
C  C68  1  0.42870565  0.52059313  0.75171625  1  0.043959  0  -0.077414  -0.086359  0  3.973664  0
C  C69  1  0.57205417  0.48094777  0.24786369  1  0.033854  0  -0.077466  -0.086926  0  3.970582  0
C  C70  1  0.49715077  0.48511050  0.71309086  1  -0.070994  0  0.001801  -0.037907  0  3.913141  0
C  C71  1  0.50365664  0.51610273  0.28679184  1  -0.068312  0  0.002205  -0.035124  0  3.910514  0
C  C72  1  0.49737389  0.49994196  0.06699666  1  0.948932  0  0.242749  0.249494  0  3.976596  0
C  C73  1  0.49806395  0.49364300  0.93358035  1  0.967055  0  0.243428  0.251733  0  3.975169  0
C  C74  1  0.63870746  0.41023575  0.70782415  1  0.930372  0  0.098949  0.281661  0  3.950338  0
C  C75  1  0.36166013  0.59001513  0.29268628  1  0.924568  0  0.098998  0.282703  0  3.951612  0
C  C76  1  0.63583224  0.73548587  0.60764930  1  0.434266  0  -0.137595  -0.161395  0  3.923501  0
C  C77  1  0.36384682  0.26487260  0.39245745  1  0.432025  0  -0.136968  -0.161451  0  3.924164  0
C  C78  1  0.71271044  0.26896384  0.56839160  1  0.302772  0  -0.142457  -0.169669  0  3.912649  0
C  C79  1  0.28759511  0.73186690  0.43101028  1  0.349092  0  -0.142288  -0.168  0  3.911212  0
N  N80  1  0.43075136  0.53066520  0.96778112  1  -0.570238  0  -0.154245  -0.149244  0  3.218525  0
N  N81  1  0.56222285  0.45898434  0.03310181  1  -0.57839  0  -0.154029  -0.148328  0  3.218591  0
N  N82  1  0.43038205  0.53395464  0.03557253  1  -0.532684  0  -0.152967  -0.142494  0  3.211823  0
N  N83  1  0.56264536  0.45578641  0.96528722  1  -0.52525  0  -0.153859  -0.144429  0  3.212146  0
N  N84  1  0.52501416  0.01790286  0.51809338  1  -0.46031  0  -0.152808  -0.135334  0  3.276379  0
N  N85  1  0.47520494  0.98287953  0.48163616  1  -0.513242  0  -0.153107  -0.137024  0  3.275739  0
N  N86  1  0.28381404  0.48201291  0.50407539  1  -1.22412  0  -0.312798  -0.193922  0  3.506318  0
N  N87  1  0.71722910  0.51839910  0.49597908  1  -1.236128  0  -0.314016  -0.195122  0  3.503403  0
N  N88  1  0.02038963  0.47963926  0.52190279  1  -0.405271  0  -0.126059  -0.110518  0  3.231062  0
N  N89  1  0.98074169  0.52034186  0.47827034  1  -0.441406  0  -0.126209  -0.109827  0  3.230318  0
O  O90  1  0.59494498  0.38714409  0.48522954  1  -1.148597  0  -0.310862  -0.537874  0  2.31699  0
O  O91  1  0.40491648  0.61381914  0.51445170  1  -1.164346  0  -0.309211  -0.535003  0  2.317323  0
O  O92  1  0.45281745  0.37956234  0.49619736  1  -1.153812  0  -0.310463  -0.54701  0  2.340952  0
O  O93  1  0.54710188  0.62118757  0.50375768  1  -1.154387  0  -0.311074  -0.547123  0  2.340215  0
O  O94  1  0.56792923  0.49166585  0.60297723  1  -1.153991  0  -0.304156  -0.543513  0  2.336432  0
O  O95  1  0.43347806  0.50940817  0.39702613  1  -1.158208  0  -0.302904  -0.542873  0  2.336244  0
O  O96  1  0.42519094  0.48554209  0.60939642  1  -1.161961  0  -0.30961  -0.5406  0  2.323765  0
O  O97  1  0.57617950  0.51593572  0.39033169  1  -1.162749  0  -0.309622  -0.539947  0  2.32176  0
O  O98  1  0.71256181  0.41072420  0.72341703  1  -1.091725  0  -0.28353  -0.381413  0  2.083286  0
O  O99  1  0.28752146  0.58899831  0.27786702  1  -1.088852  0  -0.283452  -0.381934  0  2.083609  0
O  O100  1  0.54534991  0.74054228  0.60866782  1  -1.103747  0  -0.211177  -0.194284  0  2.51434  0
O  O101  1  0.45432006  0.26027935  0.39133574  1  -1.104552  0  -0.211399  -0.194155  0  2.514191  0
O  O102  1  0.62502480  0.26099816  0.58859682  1  -1.076069  0  -0.215842  -0.208669  0  2.522145  0
O  O103  1  0.37537177  0.73977705  0.41101935  1  -1.081708  0  -0.215202  -0.209334  0  2.523738  0
