# generated using pymatgen
data_CuH13C20N3O5
_symmetry_space_group_name_H-M   'P 1'
_cell_length_a   19.38303768
_cell_length_b   19.38409352
_cell_length_c   19.65705393
_cell_angle_alpha   60.45941757
_cell_angle_beta   60.46347735
_cell_angle_gamma   60.02750339
_symmetry_Int_Tables_number   1
_chemical_formula_structural   CuH13C20N3O5
_chemical_formula_sum   'Cu6 H78 C120 N18 O30'
_cell_volume   5259.64396020
_cell_formula_units_Z   6
loop_
 _symmetry_equiv_pos_site_id
 _symmetry_equiv_pos_as_xyz
  1  'x, y, z'
loop_
 _atom_site_type_symbol
 _atom_site_label
 _atom_site_symmetry_multiplicity
 _atom_site_fract_x
 _atom_site_fract_y
 _atom_site_fract_z
 _atom_site_occupancy
 _atom_site_pbe_bader_charge
 _atom_site_pbe_bader_spin_density
 _atom_site_pbe_cm5_charge
 _atom_site_pbe_ddec_charge
 _atom_site_pbe_ddec_spin_density
 _atom_site_pbe_ddec_sum_bond_order
 _atom_site_pbe_magmom
Cu  Cu0  1  0.51283749  0.95856299  0.57034789  1  1.076498  -0.545383  0.688837  0.778106  -0.701286  2.383365  -0.543
Cu  Cu1  1  0.95856524  0.95818102  0.57038308  1  1.072454  -0.545357  0.688847  0.778725  -0.701654  2.384224  -0.542
Cu  Cu2  1  0.95823756  0.51287602  0.57034221  1  1.075266  -0.545278  0.688456  0.778179  -0.701422  2.384003  -0.542
Cu  Cu3  1  0.48717106  0.04143032  0.42965310  1  1.07547  0.545369  0.688721  0.777962  0.701284  2.383194  0.542
Cu  Cu4  1  0.04144465  0.04181076  0.42961292  1  1.075408  0.545356  0.688869  0.778739  0.701632  2.384449  0.543
Cu  Cu5  1  0.04175974  0.48712717  0.42965688  1  1.074473  0.54529  0.688431  0.778047  0.701433  2.384214  0.543
H  H6  1  0.39640373  0.03684688  0.86460512  1  0.092936  7e-06  0.111267  0.113445  5e-06  0.987501  0.0
H  H7  1  0.03674430  0.70209470  0.86468037  1  0.084951  7e-06  0.111295  0.113774  5e-06  0.987258  0.0
H  H8  1  0.70223629  0.39643479  0.86455433  1  0.116142  7e-06  0.111643  0.114748  5e-06  0.987467  0.0
H  H9  1  0.60359305  0.96316016  0.13538732  1  0.092806  -7e-06  0.111271  0.113414  -5e-06  0.987475  0.0
H  H10  1  0.96326178  0.29790188  0.13531873  1  0.084945  -6e-06  0.1113  0.113798  -5e-06  0.987156  0.0
H  H11  1  0.29776975  0.60354474  0.13544669  1  0.116751  -7e-06  0.111605  0.114689  -5e-06  0.987447  0.0
H  H12  1  0.25586306  0.28693803  0.88009218  1  0.110755  1.4e-05  0.108944  0.11287  1.2e-05  0.997871  0.0
H  H13  1  0.28677184  0.57746699  0.88028523  1  0.095326  1.4e-05  0.109122  0.112853  1.2e-05  0.99653  0.0
H  H14  1  0.57736804  0.25551729  0.88022092  1  0.093494  1.4e-05  0.108792  0.112891  1.2e-05  0.997117  0.0
H  H15  1  0.74413361  0.71306304  0.11990720  1  0.110734  -1.4e-05  0.108946  0.112928  -1.2e-05  0.99775  0.0
H  H16  1  0.71322192  0.42253339  0.11973925  1  0.095089  -1.4e-05  0.109123  0.112906  -1.2e-05  0.996528  0.0
H  H17  1  0.42261858  0.74448259  0.11977967  1  0.09344  -1.4e-05  0.108818  0.112876  -1.2e-05  0.997114  0.0
H  H18  1  0.43852236  0.99179197  0.98677867  1  0.08691  -0.0  0.108382  0.1266  -0.0  1.002676  0.0
H  H19  1  0.99171624  0.58282440  0.98693150  1  0.072674  -0.0  0.108845  0.126987  -0.0  1.001995  0.0
H  H20  1  0.58299997  0.43851690  0.98671741  1  0.088872  -0.0  0.108357  0.126544  -0.0  1.002361  0.0
H  H21  1  0.56148137  0.00821680  0.01321020  1  0.086714  0.0  0.108396  0.126656  0.0  1.002651  0.0
H  H22  1  0.00828230  0.41718244  0.01306886  1  0.072735  0.0  0.108835  0.126968  0.0  1.001944  0.0
H  H23  1  0.41700916  0.56146911  0.01328624  1  0.088849  0.0  0.108419  0.126626  0.0  1.002372  0.0
H  H24  1  0.29318928  0.24280013  0.00313493  1  0.039045  -1e-06  0.096548  0.102772  -1e-06  1.029679  0.0
H  H25  1  0.24266980  0.46125476  0.00345485  1  0.027811  -1e-06  0.096448  0.103088  -1e-06  1.029065  0.0
H  H26  1  0.46110755  0.29284768  0.00321948  1  0.029345  -1e-06  0.096278  0.102774  -1e-06  1.028595  0.0
H  H27  1  0.70681000  0.75720601  0.99685829  1  0.038808  1e-06  0.096608  0.102785  1e-06  1.029608  0.0
H  H28  1  0.75731002  0.53875855  0.99657875  1  0.027638  1e-06  0.096432  0.10309  1e-06  1.029075  0.0
H  H29  1  0.53888534  0.70715705  0.99678046  1  0.033733  1e-06  0.096299  0.102807  1e-06  1.028583  0.0
H  H30  1  0.35063766  0.19541214  0.09145076  1  0.040261  -4.2e-05  0.099204  0.060896  -2.1e-05  1.003899  0.0
H  H31  1  0.19529234  0.36262071  0.09154546  1  0.036841  -4.3e-05  0.099471  0.061067  -2.1e-05  1.003251  0.0
H  H32  1  0.36274092  0.35019482  0.09164555  1  0.034897  -4.3e-05  0.09913  0.060482  -2.1e-05  1.002818  0.0
H  H33  1  0.64936229  0.80459618  0.90853959  1  0.040307  4.2e-05  0.099251  0.060966  2.1e-05  1.003913  0.0
H  H34  1  0.80469924  0.63737384  0.90845836  1  0.036728  4.3e-05  0.099472  0.060985  2.1e-05  1.003235  0.0
H  H35  1  0.63725057  0.64980785  0.90836364  1  0.034638  4.3e-05  0.099134  0.060476  2.1e-05  1.002717  0.0
H  H36  1  0.22982272  0.22306389  0.22317202  1  0.026006  -3.3e-05  0.093041  0.086233  -1.3e-05  1.086982  0.0
H  H37  1  0.22293372  0.32385472  0.22345744  1  0.030422  -3.4e-05  0.093374  0.086191  -1.3e-05  1.086535  0.0
H  H38  1  0.32407686  0.22963278  0.22356868  1  0.022401  -3.3e-05  0.093442  0.086646  -1.3e-05  1.086472  0.0
H  H39  1  0.77017519  0.77693378  0.77682837  1  0.025934  3.3e-05  0.09308  0.086259  1.3e-05  1.087077  0.0
H  H40  1  0.77706223  0.67614707  0.77654702  1  0.030208  3.4e-05  0.093343  0.08619  1.3e-05  1.086496  0.0
H  H41  1  0.67592547  0.77036572  0.77642975  1  0.022442  3.4e-05  0.093434  0.086664  1.3e-05  1.086543  0.0
H  H42  1  0.28487398  0.01591955  0.15569434  1  0.12367  -2.8e-05  0.113176  0.123627  -1.1e-05  0.997724  0.0
H  H43  1  0.01606423  0.54358177  0.15565950  1  0.083925  -2.8e-05  0.113373  0.124155  -1.1e-05  0.997403  0.0
H  H44  1  0.54411837  0.28445669  0.15537227  1  0.075228  -2.8e-05  0.113149  0.12411  -1.1e-05  0.997141  0.0
H  H45  1  0.71513209  0.98407936  0.84430571  1  0.123317  2.8e-05  0.113167  0.123647  1.1e-05  0.997705  0.0
H  H46  1  0.98393283  0.45641004  0.84435422  1  0.083939  2.7e-05  0.113389  0.124198  1e-05  0.997497  0.0
H  H47  1  0.45588588  0.71554295  0.84462370  1  0.075272  2.8e-05  0.113163  0.124155  1.1e-05  0.997194  0.0
H  H48  1  0.15838818  0.37234189  0.67821484  1  0.089168  -0.000214  0.109756  0.118636  -0.000182  1.004172  0.0
H  H49  1  0.37243426  0.79097138  0.67806951  1  0.101704  -0.000207  0.109702  0.118338  -0.000182  1.004426  0.0
H  H50  1  0.79105649  0.15818791  0.67827997  1  0.074174  -0.000214  0.10957  0.11789  -0.000182  1.004528  0.0
H  H51  1  0.84160794  0.62766359  0.32177915  1  0.088961  0.000214  0.109741  0.118595  0.000182  1.004299  0.0
H  H52  1  0.62756738  0.20903256  0.32193279  1  0.101905  0.000206  0.109696  0.118353  0.000182  1.004448  0.0
H  H53  1  0.20894835  0.84180385  0.32171790  1  0.074424  0.000214  0.109582  0.11785  0.000182  1.004451  0.0
H  H54  1  0.36728072  0.13895329  0.67952353  1  0.122679  -0.000156  0.111295  0.118674  -0.000174  1.028757  0.0
H  H55  1  0.13896183  0.81414959  0.67936412  1  0.152316  -0.000144  0.111376  0.118928  -0.000172  1.028445  0.0
H  H56  1  0.81430440  0.36721933  0.67946463  1  0.152286  -0.000143  0.111384  0.118739  -0.000173  1.02908  0.0
H  H57  1  0.63272302  0.86105491  0.32046459  1  0.123172  0.000156  0.111312  0.118669  0.000174  1.02871  0.0
H  H58  1  0.86104737  0.18584411  0.32063588  1  0.15237  0.000144  0.111356  0.118934  0.000173  1.028417  0.0
H  H59  1  0.18567471  0.63278324  0.32053415  1  0.151923  0.000143  0.111318  0.118742  0.000172  1.029212  0.0
H  H60  1  0.25602682  0.26542666  0.48772632  1  0.08956  0.000655  0.110066  0.121035  0.000552  0.997795  0.0
H  H61  1  0.26551375  0.99084432  0.48769022  1  0.101774  0.000646  0.109962  0.120849  0.000551  0.997797  0.0
H  H62  1  0.99076695  0.25594083  0.48769220  1  0.102805  0.000648  0.109777  0.120916  0.000552  0.998093  0.0
H  H63  1  0.74398638  0.73458355  0.51225895  1  0.089472  -0.000656  0.11006  0.121085  -0.000552  0.997739  0.0
H  H64  1  0.73448982  0.00915079  0.51230871  1  0.101756  -0.000646  0.109944  0.120812  -0.00055  0.997778  0.0
H  H65  1  0.00923216  0.74405343  0.51231075  1  0.102798  -0.000647  0.109808  0.120979  -0.000552  0.998055  0.0
H  H66  1  0.09829284  0.19607630  0.33153817  1  0.127917  -5.5e-05  0.122575  0.097418  -3.6e-05  0.974564  0.0
H  H67  1  0.19601603  0.37396155  0.33177690  1  0.08185  -5.8e-05  0.122527  0.097371  -3.5e-05  0.974382  0.0
H  H68  1  0.37425424  0.09813004  0.33183920  1  0.117353  -5.7e-05  0.122392  0.097588  -3.7e-05  0.974435  0.0
H  H69  1  0.90170940  0.80391391  0.66846522  1  0.127824  5.6e-05  0.122558  0.09739  3.6e-05  0.974527  0.0
H  H70  1  0.80398367  0.62603948  0.66822870  1  0.081909  5.8e-05  0.122496  0.097307  3.6e-05  0.974457  0.0
H  H71  1  0.62575502  0.90186020  0.66815680  1  0.117417  5.7e-05  0.122412  0.097564  3.7e-05  0.974602  0.0
H  H72  1  0.14831110  0.00020902  0.26479009  1  0.126713  -1.7e-05  0.122484  0.097548  5e-06  0.990426  0.0
H  H73  1  0.00045480  0.58670934  0.26474422  1  0.128967  -1.7e-05  0.122933  0.098217  4e-06  0.989541  0.0
H  H74  1  0.58716918  0.14797461  0.26459111  1  0.122496  -1.7e-05  0.122633  0.09797  4e-06  0.989604  0.0
H  H75  1  0.85170006  0.99978585  0.73520488  1  0.126629  1.7e-05  0.122514  0.09756  -5e-06  0.990253  0.0
H  H76  1  0.99954742  0.41328377  0.73526087  1  0.128927  1.7e-05  0.122929  0.098209  -4e-06  0.989547  0.0
H  H77  1  0.41284201  0.85202381  0.73540217  1  0.122736  1.6e-05  0.122655  0.09798  -4e-06  0.989419  0.0
H  H78  1  0.39766384  0.09971407  0.15950790  1  0.091062  -6.5e-05  0.120789  0.104681  -3.3e-05  0.950091  0.0
H  H79  1  0.09958514  0.34319083  0.15966486  1  0.104671  -6.5e-05  0.121132  0.10521  -3.4e-05  0.948533  0.0
H  H80  1  0.34346852  0.39720907  0.15966515  1  0.10263  -6.5e-05  0.121055  0.104923  -3.4e-05  0.950027  0.0
H  H81  1  0.60233865  0.90029574  0.84048055  1  0.091042  6.5e-05  0.120798  0.104731  3.3e-05  0.950045  0.0
H  H82  1  0.90040074  0.65681739  0.84034233  1  0.104646  6.5e-05  0.121183  0.105154  3.4e-05  0.948568  0.0
H  H83  1  0.65654008  0.60279250  0.84033347  1  0.102549  6.5e-05  0.121058  0.104949  3.4e-05  0.950044  0.0
C  C84  1  0.32412178  0.16412854  0.86499641  1  0.354672  0.000118  0.078902  0.144597  9.2e-05  4.069659  0.0
C  C85  1  0.16402728  0.64683232  0.86505635  1  0.404413  0.000117  0.078476  0.145421  9.1e-05  4.067475  0.0
C  C86  1  0.64689946  0.32404342  0.86497732  1  0.42355  0.000116  0.079363  0.145541  9.2e-05  4.069702  0.0
C  C87  1  0.67587557  0.83587763  0.13499974  1  0.354844  -0.000118  0.078803  0.14453  -9.2e-05  4.069429  0.0
C  C88  1  0.83597553  0.35316816  0.13495110  1  0.404958  -0.000117  0.078466  0.145498  -9.1e-05  4.067386  0.0
C  C89  1  0.35309656  0.67595374  0.13502266  1  0.423811  -0.000116  0.079334  0.145598  -9.1e-05  4.069861  0.0
C  C90  1  0.26361248  0.25513533  0.68711746  1  0.296373  0.001259  0.08145  0.163635  0.000902  4.042843  0.001
C  C91  1  0.25514044  0.79404377  0.68699992  1  0.273746  0.001266  0.082109  0.163987  0.000901  4.043617  0.001
C  C92  1  0.79414889  0.26352398  0.68711862  1  0.268585  0.001267  0.081597  0.164973  0.000901  4.043191  0.001
C  C93  1  0.73639317  0.74486930  0.31286889  1  0.296312  -0.001258  0.081439  0.163629  -0.000901  4.043252  -0.001
C  C94  1  0.74486049  0.20595797  0.31300731  1  0.27363  -0.001265  0.082111  0.164048  -0.0009  4.043533  -0.001
C  C95  1  0.20584524  0.73646680  0.31288220  1  0.268139  -0.001267  0.081537  0.164754  -0.000901  4.043333  -0.001
C  C96  1  0.13067239  0.39295636  0.54469456  1  1.562854  -0.001144  0.216021  0.583042  -0.000916  4.155932  -0.001
C  C97  1  0.39307521  0.93152469  0.54463038  1  1.558462  -0.001107  0.215786  0.581949  -0.000915  4.160703  -0.001
C  C98  1  0.93160349  0.13061938  0.54471094  1  1.564181  -0.001118  0.216626  0.582925  -0.00091  4.159424  -0.001
C  C99  1  0.86933319  0.60704408  0.45529685  1  1.562609  0.001143  0.216187  0.583387  0.000918  4.155489  0.001
C  C100  1  0.60692882  0.06846828  0.45537850  1  1.559219  0.001105  0.216072  0.582223  0.000912  4.160803  0.001
C  C101  1  0.06840130  0.86937291  0.45528975  1  1.564423  0.001122  0.216529  0.582814  0.000912  4.159358  0.001
C  C102  1  0.38116108  0.12428594  0.54614168  1  1.549564  -0.001054  0.21505  0.581774  -0.000989  4.153589  -0.002
C  C103  1  0.12424991  0.94854961  0.54610764  1  1.552788  -0.00102  0.215128  0.581538  -0.000992  4.153359  -0.002
C  C104  1  0.94856075  0.38104324  0.54606821  1  1.56222  -0.00107  0.215099  0.58298  -0.001  4.152089  -0.002
C  C105  1  0.61884691  0.87571469  0.45385563  1  1.549883  0.001053  0.214969  0.581631  0.000987  4.153607  0.002
C  C106  1  0.87575934  0.05143651  0.45388877  1  1.552297  0.001024  0.21505  0.581542  0.000993  4.15294  0.002
C  C107  1  0.05142280  0.61897192  0.45392766  1  1.561582  0.001071  0.214779  0.582379  0.001  4.152635  0.002
C  C108  1  0.37523142  0.08077104  0.89586898  1  -0.016579  -5e-06  -0.073858  -0.106342  -3e-06  3.970749  0.0
C  C109  1  0.08067919  0.64811231  0.89593686  1  0.000744  -4e-06  -0.073333  -0.106841  -2e-06  3.969619  0.0
C  C110  1  0.64821463  0.37525941  0.89579283  1  -0.018921  -5e-06  -0.074129  -0.108419  -3e-06  3.972142  0.0
C  C111  1  0.62476467  0.91923265  0.10412689  1  -0.016886  5e-06  -0.073844  -0.106151  3e-06  3.970699  0.0
C  C112  1  0.91932249  0.35188698  0.10406303  1  0.000525  4e-06  -0.073388  -0.106982  2e-06  3.969576  0.0
C  C113  1  0.35178386  0.62473155  0.10420941  1  -0.019224  4e-06  -0.074068  -0.108279  3e-06  3.971803  0.0
C  C114  1  0.29504892  0.22234171  0.90418830  1  -0.03757  2.9e-05  -0.07797  -0.104393  2e-05  3.949011  0.0
C  C115  1  0.22220588  0.57865658  0.90436941  1  -0.036062  2.9e-05  -0.077627  -0.103529  2.1e-05  3.944035  0.0
C  C116  1  0.57863599  0.29482912  0.90422056  1  -0.041766  2.9e-05  -0.077902  -0.104852  2.1e-05  3.948893  0.0
C  C117  1  0.70494588  0.77766121  0.09581006  1  -0.03728  -2.9e-05  -0.078017  -0.104649  -2e-05  3.948761  0.0
C  C118  1  0.77778738  0.42135002  0.09564678  1  -0.037209  -2.9e-05  -0.077696  -0.103667  -2.1e-05  3.943706  0.0
C  C119  1  0.42135756  0.70516720  0.09577742  1  -0.041475  -2.9e-05  -0.077938  -0.104916  -2.1e-05  3.948779  0.0
C  C120  1  0.39799431  0.05572166  0.96326673  1  0.012449  1e-06  -0.103364  -0.196917  -0.0  4.006583  0.0
C  C121  1  0.05565130  0.58300078  0.96337624  1  -0.035419  1e-06  -0.104083  -0.196966  -0.0  4.005583  0.0
C  C122  1  0.58313459  0.39796298  0.96319448  1  -0.050888  1e-06  -0.103713  -0.196592  -0.0  4.007725  0.0
C  C123  1  0.60199863  0.94428193  0.03673067  1  0.013387  -1e-06  -0.103371  -0.197127  0.0  4.006895  0.0
C  C124  1  0.94434465  0.41700803  0.03662899  1  -0.035448  -1e-06  -0.10406  -0.196935  0.0  4.00529  0.0
C  C125  1  0.41687144  0.60202593  0.03680723  1  -0.053954  -1e-06  -0.103745  -0.196677  0.0  4.007367  0.0
C  C126  1  0.31666126  0.19733683  0.97282609  1  -0.005044  -2e-06  -0.110617  -0.212883  -3e-06  4.020941  0.0
C  C127  1  0.19721553  0.51341000  0.97307335  1  -0.00057  -2e-06  -0.111068  -0.214366  -3e-06  4.018206  0.0
C  C128  1  0.51337494  0.31642338  0.97284513  1  -0.008955  -2e-06  -0.110471  -0.212599  -3e-06  4.018649  0.0
C  C129  1  0.68332852  0.80266786  0.02717228  1  -0.005032  2e-06  -0.110646  -0.212736  3e-06  4.020742  0.0
C  C130  1  0.80277199  0.48660260  0.02694882  1  0.000535  2e-06  -0.110911  -0.214254  3e-06  4.01812  0.0
C  C131  1  0.48662177  0.68357655  0.02715171  1  -0.013175  2e-06  -0.110498  -0.212559  3e-06  4.018508  0.0
C  C132  1  0.36889727  0.11418489  0.00182913  1  0.413906  -1e-06  0.085424  0.255967  -2e-06  4.053165  0.0
C  C133  1  0.11410413  0.51516969  0.00199105  1  0.436971  -0.0  0.085181  0.25524  -1e-06  4.053844  0.0
C  C134  1  0.51524304  0.36876512  0.00178172  1  0.439225  -1e-06  0.085792  0.256302  -1e-06  4.053558  0.0
C  C135  1  0.63111027  0.88582553  0.99815718  1  0.413233  2e-06  0.085411  0.255978  2e-06  4.05293  0.0
C  C136  1  0.88588604  0.48484157  0.99802236  1  0.436828  0.0  0.085191  0.255258  1e-06  4.053735  0.0
C  C137  1  0.48476739  0.63122401  0.99821934  1  0.441891  1e-06  0.085861  0.256278  1e-06  4.053464  0.0
C  C138  1  0.35536451  0.12850029  0.12344831  1  0.442064  -4e-06  -0.052221  -0.017921  -7e-06  3.928036  0.0
C  C139  1  0.12840459  0.39275542  0.12358963  1  0.425844  -4e-06  -0.053006  -0.018577  -7e-06  3.925928  0.0
C  C140  1  0.39300372  0.35501123  0.12351021  1  0.426599  -4e-06  -0.05279  -0.018084  -7e-06  3.92672  0.0
C  C141  1  0.64463477  0.87150587  0.87654439  1  0.442477  4e-06  -0.05233  -0.01814  7e-06  3.928117  0.0
C  C142  1  0.87158884  0.60724782  0.87641636  1  0.425619  4e-06  -0.053014  -0.018336  7e-06  3.925641  0.0
C  C143  1  0.60699913  0.64498402  0.87649459  1  0.42702  4e-06  -0.052791  -0.018085  7e-06  3.926455  0.0
C  C144  1  0.27022478  0.12001484  0.18150980  1  -0.068619  -0.000937  -0.0009  0.112114  -0.000598  3.98551  -0.001
C  C145  1  0.12002666  0.42827950  0.18162824  1  -0.07085  -0.00094  -5.7e-05  0.112578  -0.0006  3.984747  -0.001
C  C146  1  0.42868626  0.26987866  0.18147067  1  -0.020545  -0.00094  -0.000827  0.111672  -0.000601  3.98441  -0.001
C  C147  1  0.72977631  0.87998589  0.81848714  1  -0.068759  0.000937  -0.00086  0.112217  0.000598  3.985182  0.001
C  C148  1  0.87997625  0.57171815  0.81837286  1  -0.070452  0.000939  -3e-05  0.11262  0.0006  3.984724  0.001
C  C149  1  0.57131484  0.73012266  0.81852600  1  -0.020325  0.00094  -0.000901  0.111617  0.000601  3.983985  0.001
C  C150  1  0.21507066  0.17216641  0.23039831  1  -0.004132  0.000197  -0.098484  -0.205737  0.000138  4.007697  0.0
C  C151  1  0.17213583  0.38232309  0.23058685  1  -0.037885  0.000195  -0.098897  -0.20556  0.000139  4.00968  0.0
C  C152  1  0.38264658  0.21481303  0.23056124  1  -0.064618  0.000193  -0.098608  -0.204896  0.000139  4.009167  0.0
C  C153  1  0.78492730  0.82783131  0.76959898  1  -0.004083  -0.000196  -0.098556  -0.205813  -0.000138  4.007684  0.0
C  C154  1  0.82786702  0.61767861  0.76941798  1  -0.03762  -0.000195  -0.098953  -0.205742  -0.000139  4.009759  0.0
C  C155  1  0.61735825  0.78518576  0.76943741  1  -0.064926  -0.000194  -0.098559  -0.204928  -0.000139  4.008975  0.0
C  C156  1  0.24527618  0.05792424  0.19254481  1  -0.047324  0.000214  -0.083404  -0.178618  0.000138  3.942704  0.0
C  C157  1  0.05801618  0.50430590  0.19256316  1  -0.012689  0.00021  -0.084357  -0.180257  0.000139  3.93963  0.0
C  C158  1  0.50477242  0.24490892  0.19234311  1  -0.03348  0.000211  -0.083583  -0.179686  0.000139  3.941083  0.0
C  C159  1  0.75472928  0.94207608  0.80745435  1  -0.046958  -0.000214  -0.083431  -0.17869  -0.000138  3.942261  0.0
C  C160  1  0.94198281  0.49568647  0.80744735  1  -0.013319  -0.00021  -0.084335  -0.180294  -0.000139  3.939663  0.0
C  C161  1  0.49522872  0.75509655  0.80765108  1  -0.034152  -0.000211  -0.083562  -0.179773  -0.000139  3.941274  0.0
C  C162  1  0.14097563  0.15826497  0.29040916  1  0.465575  -0.000868  0.049967  0.104315  -0.000592  3.966819  -0.001
C  C163  1  0.15824040  0.41027567  0.29060449  1  0.560735  -0.000863  0.050069  0.104921  -0.000594  3.969662  -0.001
C  C164  1  0.41061751  0.14074155  0.29057914  1  0.532042  -0.000868  0.049876  0.103487  -0.000596  3.970299  -0.001
C  C165  1  0.85902667  0.84173058  0.70959067  1  0.465752  0.000869  0.049951  0.104186  0.000592  3.966837  0.001
C  C166  1  0.84176053  0.58972431  0.70940306  1  0.5608  0.000862  0.05021  0.105156  0.000593  3.969704  0.001
C  C167  1  0.58939305  0.85925532  0.70941466  1  0.532333  0.000868  0.049951  0.103708  0.000596  3.970298  0.001
C  C168  1  0.16914205  0.04907797  0.25305935  1  0.471241  -0.000909  0.057041  0.120562  -0.000598  3.927485  -0.001
C  C169  1  0.04922186  0.52872936  0.25309012  1  0.546184  -0.000904  0.056985  0.120726  -0.000601  3.925357  -0.001
C  C170  1  0.52915789  0.16882669  0.25293691  1  0.500243  -0.000911  0.05726  0.12006  -0.000602  3.925736  -0.001
C  C171  1  0.83086594  0.95091388  0.74693751  1  0.471467  0.00091  0.057026  0.120542  0.000598  3.927235  0.001
C  C172  1  0.95077666  0.47127043  0.74691103  1  0.546748  0.000903  0.057001  0.120739  0.000601  3.925389  0.001
C  C173  1  0.47085210  0.83117517  0.74705278  1  0.500211  0.000911  0.057198  0.120087  0.000602  3.925702  0.001
C  C174  1  0.20331331  0.32264330  0.65082870  1  -0.02144  0.000789  -0.068483  -0.142782  0.00047  3.880434  0.001
C  C175  1  0.32268156  0.82312679  0.65073945  1  -0.0099  0.000765  -0.068861  -0.142564  0.00047  3.87916  0.001
C  C176  1  0.82321201  0.20315257  0.65089961  1  0.026962  0.000767  -0.068823  -0.14308  0.000474  3.879141  0.001
C  C177  1  0.79668718  0.67735708  0.34916717  1  -0.021365  -0.000791  -0.06839  -0.142647  -0.000472  3.880348  -0.001
C  C178  1  0.67731562  0.17687921  0.34926755  1  -0.010629  -0.000766  -0.068869  -0.14252  -0.00047  3.879225  -0.001
C  C179  1  0.17678905  0.79683580  0.34909960  1  0.027001  -0.000766  -0.068753  -0.142853  -0.000474  3.879187  -0.001
C  C180  1  0.32069659  0.19159090  0.65127354  1  0.011527  0.000813  -0.068933  -0.13454  0.000527  3.89183  0.001
C  C181  1  0.19156630  0.83642224  0.65116679  1  0.010733  0.000792  -0.069091  -0.134911  0.000525  3.892119  0.001
C  C182  1  0.83652413  0.32058967  0.65125910  1  -0.028661  0.000819  -0.068664  -0.135262  0.00053  3.892827  0.001
C  C183  1  0.67931095  0.80841190  0.34871227  1  0.010761  -0.000815  -0.068935  -0.134491  -0.000528  3.891803  -0.001
C  C184  1  0.80843526  0.16357869  0.34884053  1  0.010614  -0.000791  -0.06909  -0.134934  -0.000525  3.892163  -0.001
C  C185  1  0.16345314  0.67941301  0.34873744  1  -0.028053  -0.000816  -0.068642  -0.135405  -0.000528  3.892872  -0.001
C  C186  1  0.20000191  0.32549470  0.57956395  1  -0.016414  -0.000517  -0.013776  -0.020653  -0.000373  3.960349  0.0
C  C187  1  0.32554809  0.89485406  0.57950131  1  0.008691  -0.000466  -0.013464  -0.020234  -0.000383  3.962201  0.0
C  C188  1  0.89489501  0.19990261  0.57960748  1  -0.003215  -0.000485  -0.013128  -0.018523  -0.000388  3.956804  0.0
C  C189  1  0.79999857  0.67450801  0.42043286  1  -0.016069  0.000518  -0.013913  -0.020841  0.000374  3.960438  0.0
C  C190  1  0.67445347  0.10514394  0.42050586  1  0.009038  0.000464  -0.013482  -0.020446  0.000382  3.962566  0.0
C  C191  1  0.10510978  0.80008792  0.42039354  1  -0.003119  0.00049  -0.013036  -0.018453  0.000391  3.956693  0.0
C  C192  1  0.31823212  0.19502343  0.58016476  1  0.076949  -0.000534  -0.0119  -0.010107  -0.000383  3.971893  0.0
C  C193  1  0.19499677  0.90662997  0.58012815  1  -0.020163  -0.000606  -0.011534  -0.009141  -0.000394  3.96936  0.0
C  C194  1  0.90667064  0.31810316  0.58017162  1  -0.007123  -0.000603  -0.012853  -0.010714  -0.000379  3.973025  0.0
C  C195  1  0.68177604  0.80498265  0.41982228  1  0.076923  0.000531  -0.011881  -0.010168  0.000381  3.971869  0.0
C  C196  1  0.80500610  0.09336704  0.41987581  1  -0.019994  0.000609  -0.011527  -0.00923  0.000397  3.969574  0.0
C  C197  1  0.09331100  0.68190617  0.41982584  1  -0.007291  0.00061  -0.012798  -0.010427  0.000383  3.973154  0.0
C  C198  1  0.25831607  0.26252369  0.54332905  1  -0.040123  -0.002008  -0.067121  -0.092431  -0.001201  3.894928  -0.002
C  C199  1  0.26255308  0.93584321  0.54327010  1  -0.023032  -0.001975  -0.067211  -0.093106  -0.001198  3.893356  -0.002
C  C200  1  0.93584020  0.25821443  0.54334333  1  -0.005267  -0.00195  -0.067118  -0.093729  -0.001199  3.894461  -0.002
C  C201  1  0.74168061  0.73747504  0.45666939  1  -0.040312  0.002008  -0.067081  -0.092438  0.0012  3.895032  0.002
C  C202  1  0.73744729  0.06415941  0.45673291  1  -0.023306  0.001975  -0.067217  -0.092983  0.001198  3.893741  0.002
C  C203  1  0.06415453  0.74178313  0.45665963  1  -0.005492  0.001951  -0.067166  -0.093836  0.001199  3.894409  0.002
N  N204  1  0.26621776  0.25185620  0.76018083  1  -0.436337  0.001591  -0.158706  -0.15668  0.001027  3.204809  0.001
N  N205  1  0.25184799  0.72168300  0.76004241  1  -0.459562  0.001575  -0.159039  -0.156602  0.001019  3.208068  0.001
N  N206  1  0.72180042  0.26612786  0.76017234  1  -0.450429  0.001588  -0.158676  -0.156759  0.001028  3.205696  0.001
N  N207  1  0.73378155  0.74815115  0.23981028  1  -0.43649  -0.00159  -0.158681  -0.15666  -0.001027  3.204809  -0.001
N  N208  1  0.74815236  0.27831958  0.23996216  1  -0.459393  -0.001574  -0.159021  -0.156755  -0.001018  3.20778  -0.001
N  N209  1  0.27819372  0.73386821  0.23982803  1  -0.450419  -0.001587  -0.158705  -0.156752  -0.001027  3.205906  -0.001
N  N210  1  0.30964659  0.17874274  0.79513992  1  -0.523325  0.000776  -0.149031  -0.125948  0.000509  3.364284  0.001
N  N211  1  0.17865314  0.71652168  0.79515046  1  -0.477322  0.000767  -0.148744  -0.126457  0.000504  3.365165  0.001
N  N212  1  0.71656235  0.30958612  0.79510664  1  -0.501317  0.000777  -0.149044  -0.126088  0.000509  3.363649  0.001
N  N213  1  0.69034382  0.82126759  0.20485855  1  -0.523079  -0.000775  -0.148975  -0.125882  -0.000508  3.363844  -0.001
N  N214  1  0.82135223  0.28347621  0.20485344  1  -0.477295  -0.000766  -0.148751  -0.126353  -0.000504  3.364889  -0.001
N  N215  1  0.28343622  0.69040785  0.20489111  1  -0.501514  -0.000776  -0.149053  -0.126119  -0.000509  3.363964  -0.001
N  N216  1  0.11850141  0.09672792  0.30270984  1  -1.177354  -0.001624  -0.331786  -0.243903  -0.00078  3.472597  0.0
N  N217  1  0.09681339  0.48201165  0.30281990  1  -1.259766  -0.001628  -0.332023  -0.24447  -0.000779  3.475087  0.0
N  N218  1  0.48239455  0.11824851  0.30274296  1  -1.194617  -0.001623  -0.331891  -0.242813  -0.000779  3.47346  0.0
N  N219  1  0.88150595  0.90326590  0.69728741  1  -1.177719  0.001623  -0.331727  -0.24368  0.000779  3.472529  0.0
N  N220  1  0.90318251  0.51798656  0.69718831  1  -1.259991  0.001627  -0.332087  -0.244583  0.000778  3.475224  0.0
N  N221  1  0.51761851  0.88174690  0.69725034  1  -1.194533  0.001624  -0.33198  -0.242947  0.00078  3.473811  0.0
O  O222  1  0.13934115  0.40373823  0.47180859  1  -1.101982  0.087971  -0.311667  -0.515987  0.057315  2.31901  0.08
O  O223  1  0.40392718  0.98490003  0.47171440  1  -1.106517  0.087956  -0.311543  -0.515367  0.05736  2.319226  0.08
O  O224  1  0.98495389  0.13935767  0.47179697  1  -1.109993  0.08782  -0.312023  -0.516405  0.057147  2.321599  0.079
O  O225  1  0.86067344  0.59629455  0.52816847  1  -1.101296  -0.087986  -0.311791  -0.516176  -0.05733  2.3188  -0.08
O  O226  1  0.59605675  0.01510819  0.52829727  1  -1.106681  -0.087937  -0.311767  -0.515571  -0.057347  2.319457  -0.08
O  O227  1  0.01503906  0.86064066  0.52819933  1  -1.10997  -0.087847  -0.312054  -0.516415  -0.057162  2.321528  -0.079
O  O228  1  0.39224040  0.13434793  0.47279111  1  -1.099507  0.092305  -0.314238  -0.509772  0.060024  2.31115  0.083
O  O229  1  0.13433641  0.00076291  0.47275912  1  -1.105972  0.092163  -0.314279  -0.509663  0.059932  2.311886  0.083
O  O230  1  0.00075974  0.39210792  0.47271352  1  -1.106577  0.092373  -0.313768  -0.50959  0.060134  2.310452  0.083
O  O231  1  0.60776698  0.86565471  0.52720452  1  -1.099496  -0.092305  -0.314219  -0.509655  -0.060023  2.31126  -0.083
O  O232  1  0.86567406  0.99922508  0.52723992  1  -1.10565  -0.092171  -0.314214  -0.509627  -0.059935  2.311589  -0.083
O  O233  1  0.99925602  0.60787246  0.52730697  1  -1.106138  -0.09238  -0.313785  -0.509429  -0.060134  2.310425  -0.083
O  O234  1  0.41910314  0.05940523  0.59503226  1  -1.114453  -0.080455  -0.317077  -0.526128  -0.052359  2.390106  -0.072
O  O235  1  0.05934308  0.92660270  0.59504525  1  -1.108657  -0.080545  -0.317352  -0.526339  -0.052379  2.390605  -0.073
O  O236  1  0.92657887  0.41903899  0.59494152  1  -1.107119  -0.080345  -0.316946  -0.526439  -0.05232  2.389473  -0.072
O  O237  1  0.58089664  0.94059411  0.40496849  1  -1.114465  0.080452  -0.31706  -0.526111  0.052358  2.390249  0.073
O  O238  1  0.94067057  0.07338013  0.40495065  1  -1.108546  0.080566  -0.317349  -0.526332  0.052394  2.390438  0.073
O  O239  1  0.07336604  0.58101241  0.40503969  1  -1.107044  0.080327  -0.316689  -0.526145  0.05231  2.389604  0.072
O  O240  1  0.06700935  0.43250778  0.59283797  1  -1.12154  -0.080933  -0.309703  -0.529144  -0.052846  2.393705  -0.073
O  O241  1  0.43257602  0.90755455  0.59281114  1  -1.112003  -0.081048  -0.309816  -0.528641  -0.052889  2.394998  -0.073
O  O242  1  0.90767051  0.06687607  0.59291311  1  -1.114452  -0.081078  -0.309873  -0.528902  -0.052901  2.396055  -0.073
O  O243  1  0.93297640  0.56745045  0.40717650  1  -1.121797  0.08095  -0.309711  -0.529222  0.052859  2.393603  0.073
O  O244  1  0.56744706  0.09243789  0.40718344  1  -1.112129  0.081052  -0.309889  -0.528648  0.052894  2.395083  0.073
O  O245  1  0.09232845  0.93311685  0.40709970  1  -1.114876  0.081075  -0.30982  -0.52883  0.0529  2.396184  0.073
O  O246  1  0.39737306  0.08376618  0.06636968  1  -1.070816  -1.4e-05  -0.176949  -0.19844  -5e-06  2.552268  0.0
O  O247  1  0.08365867  0.45255953  0.06651784  1  -1.077491  -1.3e-05  -0.176542  -0.197906  -5e-06  2.554343  0.0
O  O248  1  0.45266694  0.39722580  0.06633262  1  -1.082323  -1.4e-05  -0.17694  -0.198583  -5e-06  2.552701  0.0
O  O249  1  0.60262311  0.91624404  0.93362156  1  -1.071013  1.4e-05  -0.176932  -0.198392  5e-06  2.551785  0.0
O  O250  1  0.91633032  0.54744931  0.93349115  1  -1.077401  1.3e-05  -0.176629  -0.197975  5e-06  2.554358  0.0
O  O251  1  0.54734037  0.60277267  0.93366755  1  -1.082527  1.4e-05  -0.176975  -0.198611  5e-06  2.552875  0.0
