# generated using pymatgen
data_PrH11C13O7
_symmetry_space_group_name_H-M   'P 1'
_cell_length_a   7.32954444
_cell_length_b   13.25777118
_cell_length_c   13.62110462
_cell_angle_alpha   99.09652378
_cell_angle_beta   90.00002650
_cell_angle_gamma   89.99981179
_symmetry_Int_Tables_number   1
_chemical_formula_structural   PrH11C13O7
_chemical_formula_sum   'Pr4 H44 C52 O28'
_cell_volume   1306.96285663
_cell_formula_units_Z   4
loop_
 _symmetry_equiv_pos_site_id
 _symmetry_equiv_pos_as_xyz
  1  'x, y, z'
loop_
 _atom_site_type_symbol
 _atom_site_label
 _atom_site_symmetry_multiplicity
 _atom_site_fract_x
 _atom_site_fract_y
 _atom_site_fract_z
 _atom_site_occupancy
 _atom_site_hle17_bader_spin_density
 _atom_site_hle17_ddec_charge
 _atom_site_hle17_ddec_spin_density
 _atom_site_hle17_ddec_sum_bond_order
 _atom_site_hle17_magmom
 _atom_site_hse06_10hf_bader_spin_density
 _atom_site_hse06_10hf_ddec_charge
 _atom_site_hse06_10hf_ddec_spin_density
 _atom_site_hse06_10hf_ddec_sum_bond_order
 _atom_site_hse06_10hf_magmom
 _atom_site_hse06_bader_spin_density
 _atom_site_hse06_ddec_charge
 _atom_site_hse06_ddec_spin_density
 _atom_site_hse06_ddec_sum_bond_order
 _atom_site_hse06_magmom
 _atom_site_pbe_bader_spin_density
 _atom_site_pbe_cm5_charge
 _atom_site_pbe_ddec_charge
 _atom_site_pbe_ddec_spin_density
 _atom_site_pbe_ddec_sum_bond_order
 _atom_site_pbe_magmom
Pr  Pr0  1  0.91540804  0.81510345  0.52514877  1  0  2.332483  0  1.606939  0  0  2.216685  0  1.967676  0  0  2.2586  0  1.924907  0  0  1.484547  2.135566  0  2.090408  0
Pr  Pr1  1  0.41541144  0.68489542  0.47485071  1  0  2.332518  0  1.606866  0  0  2.216724  0  1.967598  0  0  2.25864  0  1.924829  0  0  1.484552  2.135602  0  2.090337  0
Pr  Pr2  1  0.08458745  0.18489419  0.47485257  1  0  2.332485  0  1.606967  0  0  2.216687  0  1.967709  0  0  2.258603  0  1.92494  0  0  1.484523  2.135541  0  2.0905  0
Pr  Pr3  1  0.58458542  0.31510452  0.52514879  1  0  2.332507  0  1.606911  0  0  2.216716  0  1.967649  0  0  2.258631  0  1.924879  0  0  1.484534  2.135623  0  2.09034  0
H  H4  1  0.07802420  0.01194587  0.66189240  1  0  0.431954  0  0.871092  0  0  0.402731  0  0.932677  0  0  0.413179  0  0.917478  0  0  0.297707  0.395249  0  0.943386  0
H  H5  1  0.57802371  0.48805361  0.33810687  1  0  0.431942  0  0.871111  0  0  0.402734  0  0.932663  0  0  0.413181  0  0.917466  0  0  0.297743  0.395246  0  0.943378  0
H  H6  1  0.92197402  0.98805483  0.33810721  1  0  0.43195  0  0.871103  0  0  0.402738  0  0.93267  0  0  0.413186  0  0.917471  0  0  0.297716  0.395264  0  0.943372  0
H  H7  1  0.42197588  0.51194709  0.66189274  1  0  0.431922  0  0.871141  0  0  0.402715  0  0.932698  0  0  0.413162  0  0.9175  0  0  0.297719  0.395246  0  0.943395  0
H  H8  1  0.96524443  0.93154842  0.71222996  1  0  0.417744  0  0.879469  0  0  0.393288  0  0.935119  0  0  0.403107  0  0.920595  0  0  0.3005  0.386604  0  0.944839  0
H  H9  1  0.46524427  0.56845189  0.28776902  1  0  0.417788  0  0.879463  0  0  0.393334  0  0.935071  0  0  0.403153  0  0.920546  0  0  0.300535  0.386651  0  0.944789  0
H  H10  1  0.03475379  0.06845228  0.28777038  1  0  0.417763  0  0.879462  0  0  0.393306  0  0.935098  0  0  0.403124  0  0.920574  0  0  0.300502  0.386625  0  0.944815  0
H  H11  1  0.53475532  0.43154804  0.71223048  1  0  0.417738  0  0.879505  0  0  0.393282  0  0.935139  0  0  0.403101  0  0.920614  0  0  0.300511  0.386599  0  0.944857  0
H  H12  1  0.62991114  0.84716713  0.03696515  1  0  0.08825  0  0.963535  0  0  0.099081  0  1.028733  0  0  0.101817  0  1.02779  0  0  0.100647  0.09715  0  1.029385  0
H  H13  1  0.12991241  0.65283227  0.96303508  1  0  0.088244  0  0.963512  0  0  0.09908  0  1.028707  0  0  0.101815  0  1.027763  0  0  0.100643  0.097151  0  1.029353  0
H  H14  1  0.37008981  0.15283205  0.96303497  1  0  0.088256  0  0.963483  0  0  0.099095  0  1.028671  0  0  0.10183  0  1.027729  0  0  0.100651  0.097165  0  1.029321  0
H  H15  1  0.87008990  0.34716691  0.03696430  1  0  0.088256  0  0.963528  0  0  0.099091  0  1.028721  0  0  0.101825  0  1.027778  0  0  0.10065  0.097164  0  1.029362  0
H  H16  1  0.14546239  0.90347862  0.87568922  1  0  0.098765  0  0.948262  0  0  0.111383  0  1.006107  0  0  0.114438  0  1.004593  0  0  0.10538  0.109097  0  1.007392  0
H  H17  1  0.64546404  0.59652228  0.12431050  1  0  0.098697  0  0.948299  0  0  0.111311  0  1.006159  0  0  0.114366  0  1.004646  0  0  0.105353  0.109023  0  1.007444  0
H  H18  1  0.85453582  0.09652209  0.12431259  1  0  0.098745  0  0.948282  0  0  0.111356  0  1.006134  0  0  0.11441  0  1.004623  0  0  0.105371  0.109074  0  1.007423  0
H  H19  1  0.35453690  0.40347842  0.87568984  1  0  0.0987  0  0.948292  0  0  0.111315  0  1.00615  0  0  0.114371  0  1.004637  0  0  0.105356  0.109028  0  1.007431  0
H  H20  1  0.96158779  0.90159661  0.02747845  1  0  0.082147  0  0.9627  0  0  0.093572  0  1.024464  0  0  0.096249  0  1.023557  0  0  0.09715  0.091662  0  1.025191  0
H  H21  1  0.46158940  0.59840294  0.97252041  1  0  0.082122  0  0.962751  0  0  0.093537  0  1.024528  0  0  0.096215  0  1.023619  0  0  0.097142  0.091626  0  1.025256  0
H  H22  1  0.03841179  0.09840257  0.97252386  1  0  0.082175  0  0.962769  0  0  0.093601  0  1.024521  0  0  0.096277  0  1.023615  0  0  0.097159  0.091692  0  1.025244  0
H  H23  1  0.53840882  0.40159776  0.02747994  1  0  0.082131  0  0.962827  0  0  0.093563  0  1.024566  0  0  0.09624  0  1.023658  0  0  0.097157  0.091651  0  1.025294  0
H  H24  1  0.10804241  0.86839737  0.18458377  1  0  0.104894  0  0.947892  0  0  0.11468  0  1.008985  0  0  0.118085  0  1.007335  0  0  0.105289  0.112126  0  1.010455  0
H  H25  1  0.60804309  0.63160129  0.81541487  1  0  0.104869  0  0.947908  0  0  0.114669  0  1.008985  0  0  0.118074  0  1.007335  0  0  0.105293  0.112116  0  1.010453  0
H  H26  1  0.89196126  0.13160180  0.81541708  1  0  0.104885  0  0.947921  0  0  0.114682  0  1.009005  0  0  0.118087  0  1.007353  0  0  0.105287  0.112125  0  1.010476  0
H  H27  1  0.39195513  0.36839864  0.18458462  1  0  0.104888  0  0.947922  0  0  0.114685  0  1.008998  0  0  0.118089  0  1.007348  0  0  0.105304  0.112133  0  1.010468  0
H  H28  1  0.73970510  0.88056976  0.18512121  1  0  0.113121  0  0.949724  0  0  0.126064  0  1.005563  0  0  0.129678  0  1.004852  0  0  0.10544  0.123409  0  1.006537  0
H  H29  1  0.23970645  0.61943019  0.81487619  1  0  0.113096  0  0.949694  0  0  0.126027  0  1.005556  0  0  0.129641  0  1.004845  0  0  0.105391  0.123368  0  1.006529  0
H  H30  1  0.26029994  0.11942941  0.81487743  1  0  0.113068  0  0.949736  0  0  0.125975  0  1.00562  0  0  0.12959  0  1.004909  0  0  0.105387  0.123318  0  1.006596  0
H  H31  1  0.76029450  0.38056898  0.18512319  1  0  0.113079  0  0.949684  0  0  0.126016  0  1.005539  0  0  0.12963  0  1.004829  0  0  0.105396  0.123358  0  1.006515  0
H  H32  1  0.37637853  0.81254565  0.26896938  1  0  0.106613  0  0.962019  0  0  0.113962  0  1.028164  0  0  0.117273  0  1.025354  0  0  0.114675  0.111868  0  1.029513  0
H  H33  1  0.87637743  0.68745330  0.73102937  1  0  0.106609  0  0.962047  0  0  0.113959  0  1.028185  0  0  0.11727  0  1.025375  0  0  0.114671  0.111864  0  1.029535  0
H  H34  1  0.62362515  0.18745353  0.73103073  1  0  0.106591  0  0.962039  0  0  0.113951  0  1.028165  0  0  0.117262  0  1.025356  0  0  0.114675  0.111857  0  1.029514  0
H  H35  1  0.12362215  0.31254588  0.26897075  1  0  0.106604  0  0.962012  0  0  0.113956  0  1.028152  0  0  0.117268  0  1.02534  0  0  0.114668  0.111862  0  1.029502  0
H  H36  1  0.32610803  0.87569915  0.74138307  1  0  0.135392  0  0.963795  0  0  0.14327  0  1.024404  0  0  0.147627  0  1.022532  0  0  0.109282  0.140036  0  1.026256  0
H  H37  1  0.82610963  0.62430141  0.25861664  1  0  0.135411  0  0.963751  0  0  0.143287  0  1.024354  0  0  0.147642  0  1.022481  0  0  0.10929  0.140055  0  1.026205  0
H  H38  1  0.67389156  0.12430079  0.25861716  1  0  0.1354  0  0.963764  0  0  0.143274  0  1.024374  0  0  0.14763  0  1.022501  0  0  0.109274  0.140042  0  1.026226  0
H  H39  1  0.17389132  0.37570005  0.74138308  1  0  0.135385  0  0.963785  0  0  0.14326  0  1.024399  0  0  0.147616  0  1.022527  0  0  0.109277  0.140028  0  1.026245  0
H  H40  1  0.66537887  0.86089324  0.87274083  1  0  0.09125  0  0.943571  0  0  0.102181  0  1.005412  0  0  0.10514  0  1.003484  0  0  0.102097  0.099925  0  1.007054  0
H  H41  1  0.16537951  0.63910685  0.12725877  1  0  0.091251  0  0.943539  0  0  0.102197  0  1.005361  0  0  0.105157  0  1.003433  0  0  0.102108  0.099941  0  1.007004  0
H  H42  1  0.33462071  0.13910669  0.12725793  1  0  0.09128  0  0.943537  0  0  0.102211  0  1.005377  0  0  0.105171  0  1.00345  0  0  0.102098  0.099957  0  1.00702  0
H  H43  1  0.83462143  0.36089385  0.87274084  1  0  0.091271  0  0.943562  0  0  0.102204  0  1.005398  0  0  0.105164  0  1.00347  0  0  0.102101  0.099948  0  1.007041  0
H  H44  1  0.94204485  0.55990908  0.56733355  1  0  0.017619  0  0.920342  0  0  0.026828  0  0.988106  0  0  0.026668  0  0.98476  0  0  0.127336  0.026516  0  0.991068  0
H  H45  1  0.44204260  0.94009051  0.43266678  1  0  0.017623  0  0.920345  0  0  0.026829  0  0.988111  0  0  0.026667  0  0.984764  0  0  0.127343  0.026519  0  0.991075  0
H  H46  1  0.05795473  0.44009086  0.43266595  1  0  0.017608  0  0.920341  0  0  0.026815  0  0.988111  0  0  0.026655  0  0.984764  0  0  0.127326  0.026503  0  0.991073  0
H  H47  1  0.55795425  0.05990942  0.56733418  1  0  0.017611  0  0.920305  0  0  0.026821  0  0.988071  0  0  0.026662  0  0.984723  0  0  0.127344  0.026511  0  0.991031  0
C  C48  1  0.38068692  0.85847371  0.12269661  1  0  0.075395  0  3.822427  0  0  0.096534  0  4.054451  0  0  0.094289  0  4.079671  0  0  -0.010812  0.097884  0  4.037356  0
C  C49  1  0.88068759  0.64152599  0.87730299  1  0  0.075359  0  3.822367  0  0  0.096493  0  4.054403  0  0  0.094248  0  4.079624  0  0  -0.010826  0.097845  0  4.037304  0
C  C50  1  0.61931539  0.14152623  0.87730362  1  0  0.075245  0  3.822488  0  0  0.096462  0  4.054433  0  0  0.094217  0  4.079652  0  0  -0.010822  0.097815  0  4.037332  0
C  C51  1  0.11931200  0.35847318  0.12269566  1  0  0.075345  0  3.822462  0  0  0.096496  0  4.054471  0  0  0.09425  0  4.079694  0  0  -0.010813  0.097845  0  4.037377  0
C  C52  1  0.48338221  0.86126976  0.03619270  1  0  -0.13634  0  3.683253  0  0  -0.161152  0  3.921737  0  0  -0.164141  0  3.944459  0  0  -0.077442  -0.158869  0  3.906191  0
C  C53  1  0.98338160  0.63873128  0.96380713  1  0  -0.13631  0  3.683175  0  0  -0.161125  0  3.921663  0  0  -0.164113  0  3.944385  0  0  -0.07743  -0.158843  0  3.906119  0
C  C54  1  0.51662147  0.13872941  0.96380814  1  0  -0.136246  0  3.683223  0  0  -0.161082  0  3.921685  0  0  -0.164072  0  3.944405  0  0  -0.077416  -0.1588  0  3.906141  0
C  C55  1  0.01661798  0.36126942  0.03619322  1  0  -0.136366  0  3.683229  0  0  -0.161189  0  3.921713  0  0  -0.164177  0  3.944434  0  0  -0.077466  -0.158906  0  3.906171  0
C  C56  1  0.40248530  0.87637692  0.94647210  1  0  0.072383  0  3.83514  0  0  0.092247  0  4.068816  0  0  0.090397  0  4.094291  0  0  -0.012388  0.093355  0  4.05144  0
C  C57  1  0.90248264  0.62362427  0.05352700  1  0  0.072514  0  3.835112  0  0  0.092375  0  4.068792  0  0  0.090523  0  4.094278  0  0  -0.012317  0.09348  0  4.051419  0
C  C58  1  0.59751701  0.12362379  0.05352824  1  0  0.072499  0  3.835192  0  0  0.092363  0  4.068869  0  0  0.090517  0  4.094339  0  0  -0.01233  0.093468  0  4.051497  0
C  C59  1  0.09751558  0.37637566  0.94647250  1  0  0.072504  0  3.835124  0  0  0.092372  0  4.06879  0  0  0.090523  0  4.094265  0  0  -0.012337  0.093478  0  4.051415  0
C  C60  1  0.21206414  0.89191325  0.94464911  1  0  -0.09676  0  3.695258  0  0  -0.116494  0  3.939184  0  0  -0.118275  0  3.960333  0  0  -0.080552  -0.115021  0  3.924707  0
C  C61  1  0.71206566  0.60808676  0.05535050  1  0  -0.096791  0  3.695431  0  0  -0.116522  0  3.939349  0  0  -0.118305  0  3.960504  0  0  -0.080582  -0.115049  0  3.924874  0
C  C62  1  0.78793544  0.10808822  0.05535209  1  0  -0.096781  0  3.695397  0  0  -0.11651  0  3.939327  0  0  -0.118291  0  3.960475  0  0  -0.080589  -0.115047  0  3.924863  0
C  C63  1  0.28793392  0.39191318  0.94464973  1  0  -0.096766  0  3.695432  0  0  -0.116499  0  3.939352  0  0  -0.118281  0  3.960505  0  0  -0.080572  -0.115022  0  3.924869  0
C  C64  1  0.10863986  0.89009191  0.03014876  1  0  -0.074646  0  3.808079  0  0  -0.08789  0  4.063115  0  0  -0.090917  0  4.085972  0  0  -0.092889  -0.085859  0  4.047473  0
C  C65  1  0.60864080  0.60990905  0.96985097  1  0  -0.074584  0  3.808213  0  0  -0.087813  0  4.063233  0  0  -0.09084  0  4.086091  0  0  -0.092878  -0.085783  0  4.04759  0
C  C66  1  0.89136245  0.10990956  0.96985391  1  0  -0.074724  0  3.808206  0  0  -0.087959  0  4.063259  0  0  -0.090987  0  4.086114  0  0  -0.092876  -0.085928  0  4.047618  0
C  C67  1  0.39135878  0.39009241  0.03014876  1  0  -0.074631  0  3.808356  0  0  -0.087877  0  4.063372  0  0  -0.090905  0  4.086229  0  0  -0.092894  -0.085847  0  4.04773  0
C  C68  1  0.19050316  0.87230558  0.11849558  1  0  -0.098493  0  3.684511  0  0  -0.11964  0  3.930969  0  0  -0.12131  0  3.951324  0  0  -0.081237  -0.118328  0  3.917224  0
C  C69  1  0.69050391  0.62769447  0.88150402  1  0  -0.098488  0  3.684609  0  0  -0.119651  0  3.931069  0  0  -0.121322  0  3.951426  0  0  -0.081253  -0.118338  0  3.917316  0
C  C70  1  0.80950051  0.12769512  0.88150623  1  0  -0.098421  0  3.68454  0  0  -0.119611  0  3.931002  0  0  -0.121286  0  3.951367  0  0  -0.081249  -0.118297  0  3.917249  0
C  C71  1  0.30949567  0.37230547  0.11849547  1  0  -0.098449  0  3.684648  0  0  -0.119608  0  3.931089  0  0  -0.121279  0  3.95145  0  0  -0.081227  -0.118298  0  3.917344  0
C  C72  1  0.72883560  0.83115078  0.32887930  1  0  0.714426  0  3.897507  0  0  0.670839  0  4.188028  0  0  0.706311  0  4.177965  0  0  0.211152  0.647058  0  4.189455  0
C  C73  1  0.22883244  0.66884843  0.67111872  1  0  0.714493  0  3.8975  0  0  0.67089  0  4.188029  0  0  0.706365  0  4.177964  0  0  0.211164  0.64711  0  4.189453  0
C  C74  1  0.27116807  0.16884839  0.67112081  1  0  0.714469  0  3.897486  0  0  0.670902  0  4.187966  0  0  0.706374  0  4.177899  0  0  0.211161  0.64712  0  4.18939  0
C  C75  1  0.77116578  0.33115074  0.32888140  1  0  0.714471  0  3.897529  0  0  0.670865  0  4.188081  0  0  0.706339  0  4.17802  0  0  0.211183  0.647084  0  4.18951  0
C  C76  1  0.64568982  0.85093092  0.23570547  1  0  -0.24234  0  3.669782  0  0  -0.254448  0  3.922588  0  0  -0.268343  0  3.941093  0  0  -0.097514  -0.245865  0  3.91121  0
C  C77  1  0.14568958  0.64906844  0.76429182  1  0  -0.242322  0  3.669649  0  0  -0.254414  0  3.922452  0  0  -0.268311  0  3.940957  0  0  -0.097448  -0.245828  0  3.911067  0
C  C78  1  0.35431386  0.14906826  0.76429391  1  0  -0.242208  0  3.66967  0  0  -0.254289  0  3.922468  0  0  -0.268184  0  3.940973  0  0  -0.097407  -0.245707  0  3.91109  0
C  C79  1  0.85431000  0.35092996  0.23570671  1  0  -0.242322  0  3.66966  0  0  -0.254407  0  3.922455  0  0  -0.268303  0  3.94096  0  0  -0.097475  -0.245823  0  3.911077  0
C  C80  1  0.46640585  0.83913465  0.21450961  1  0  -0.01245  0  3.680967  0  0  -0.038506  0  3.929901  0  0  -0.032462  0  3.94625  0  0  -0.058294  -0.042347  0  3.919022  0
C  C81  1  0.96640632  0.66086413  0.78548914  1  0  -0.012419  0  3.680894  0  0  -0.03847  0  3.92981  0  0  -0.032424  0  3.946159  0  0  -0.058268  -0.042314  0  3.918931  0
C  C82  1  0.53359646  0.16086453  0.78549051  1  0  -0.012466  0  3.681008  0  0  -0.038558  0  3.929926  0  0  -0.032512  0  3.946274  0  0  -0.058348  -0.042402  0  3.919045  0
C  C83  1  0.03359462  0.33913504  0.21450950  1  0  -0.012419  0  3.680891  0  0  -0.038485  0  3.929824  0  0  -0.03244  0  3.946174  0  0  -0.0583  -0.042326  0  3.918946  0
C  C84  1  0.60128890  0.84748582  0.68263710  1  0  0.730159  0  3.888773  0  0  0.685305  0  4.182054  0  0  0.721567  0  4.170184  0  0  0.212639  0.661178  0  4.183951  0
C  C85  1  0.10128826  0.65251439  0.31736251  1  0  0.730242  0  3.888784  0  0  0.685312  0  4.182186  0  0  0.721573  0  4.170317  0  0  0.212647  0.661186  0  4.184083  0
C  C86  1  0.39870932  0.15251488  0.31736398  1  0  0.730197  0  3.888799  0  0  0.685359  0  4.182053  0  0  0.721621  0  4.170184  0  0  0.212651  0.661233  0  4.183952  0
C  C87  1  0.89871132  0.34748631  0.68263784  1  0  0.730167  0  3.888816  0  0  0.685299  0  4.182126  0  0  0.721562  0  4.170255  0  0  0.21262  0.661172  0  4.184022  0
C  C88  1  0.46744017  0.86771959  0.76406466  1  0  -0.232512  0  3.636419  0  0  -0.246874  0  3.890578  0  0  -0.259804  0  3.908452  0  0  -0.097216  -0.238821  0  3.879422  0
C  C89  1  0.96744171  0.63228148  0.23593517  1  0  -0.232546  0  3.636369  0  0  -0.246863  0  3.890525  0  0  -0.25979  0  3.908396  0  0  -0.097225  -0.238814  0  3.879371  0
C  C90  1  0.53255941  0.13228111  0.23593569  1  0  -0.232562  0  3.636412  0  0  -0.246912  0  3.89054  0  0  -0.259841  0  3.908415  0  0  -0.097235  -0.238863  0  3.879389  0
C  C91  1  0.03255924  0.36771998  0.76406529  1  0  -0.232535  0  3.636392  0  0  -0.246882  0  3.890545  0  0  -0.25981  0  3.908418  0  0  -0.097231  -0.238827  0  3.879382  0
C  C92  1  0.51950074  0.86979692  0.85924829  1  0  -0.033047  0  3.731446  0  0  -0.057964  0  3.983769  0  0  -0.054399  0  4.003667  0  0  -0.071496  -0.060203  0  3.970681  0
C  C93  1  0.01950145  0.63020497  0.14075155  1  0  -0.033133  0  3.731342  0  0  -0.058069  0  3.983677  0  0  -0.054506  0  4.003577  0  0  -0.071542  -0.060307  0  3.970591  0
C  C94  1  0.48050021  0.13020378  0.14075132  1  0  -0.033144  0  3.731397  0  0  -0.058066  0  3.983732  0  0  -0.054505  0  4.003633  0  0  -0.071524  -0.060301  0  3.970647  0
C  C95  1  0.98049950  0.36979650  0.85924891  1  0  -0.03312  0  3.731389  0  0  -0.058048  0  3.983725  0  0  -0.054485  0  4.003625  0  0  -0.071514  -0.060288  0  3.970638  0
C  C96  1  0.79804406  0.56547494  0.54476423  1  0  0.675139  0  3.823733  0  0  0.607617  0  4.133144  0  0  0.642197  0  4.119501  0  0  0.184758  0.583985  0  4.136523  0
C  C97  1  0.29804186  0.93452415  0.45523599  1  0  0.675193  0  3.823748  0  0  0.607684  0  4.13315  0  0  0.642264  0  4.119503  0  0  0.184772  0.584049  0  4.136533  0
C  C98  1  0.20195689  0.43452576  0.45523611  1  0  0.67519  0  3.82375  0  0  0.607667  0  4.133172  0  0  0.642246  0  4.119527  0  0  0.184756  0.584033  0  4.136552  0
C  C99  1  0.70195772  0.06547349  0.54476315  1  0  0.67523  0  3.823665  0  0  0.607705  0  4.133095  0  0  0.642284  0  4.119448  0  0  0.184772  0.584071  0  4.136478  0
O  O100  1  0.89262332  0.86226397  0.34819000  1  0  -0.698195  0  2.008659  0  0  -0.642378  0  2.234699  0  0  -0.666962  0  2.225233  0  0  -0.354553  -0.621229  0  2.241376  0
O  O101  1  0.39262033  0.63773494  0.65180728  1  0  -0.698187  0  2.008752  0  0  -0.642378  0  2.234832  0  0  -0.666953  0  2.225343  0  0  -0.354537  -0.62122  0  2.241491  0
O  O102  1  0.10737899  0.13773673  0.65181108  1  0  -0.698197  0  2.008736  0  0  -0.642387  0  2.234772  0  0  -0.666975  0  2.225314  0  0  -0.354538  -0.621237  0  2.241457  0
O  O103  1  0.60737789  0.36226500  0.34819221  1  0  -0.698173  0  2.008729  0  0  -0.642385  0  2.234833  0  0  -0.666957  0  2.225341  0  0  -0.354538  -0.621231  0  2.241505  0
O  O104  1  0.64240065  0.78538126  0.39103455  1  0  -0.795195  0  2.08487  0  0  -0.749114  0  2.348325  0  0  -0.772639  0  2.335329  0  0  -0.412439  -0.722  0  2.356578  0
O  O105  1  0.14239853  0.71461887  0.60896285  1  0  -0.795213  0  2.084786  0  0  -0.749142  0  2.348278  0  0  -0.772669  0  2.335283  0  0  -0.412461  -0.722031  0  2.356529  0
O  O106  1  0.35759893  0.21461867  0.60896348  1  0  -0.795243  0  2.084861  0  0  -0.749157  0  2.348276  0  0  -0.772681  0  2.335278  0  0  -0.412465  -0.722043  0  2.356526  0
O  O107  1  0.85760105  0.28538031  0.39103652  1  0  -0.79521  0  2.084829  0  0  -0.749121  0  2.348293  0  0  -0.772649  0  2.335299  0  0  -0.412456  -0.722007  0  2.356548  0
O  O108  1  0.54300834  0.83056414  0.59282268  1  0  -0.785756  0  2.08587  0  0  -0.73841  0  2.339222  0  0  -0.762868  0  2.328054  0  0  -0.403429  -0.712111  0  2.345651  0
O  O109  1  0.04301041  0.66943465  0.40717670  1  0  -0.785751  0  2.085875  0  0  -0.73837  0  2.339236  0  0  -0.762825  0  2.328065  0  0  -0.4034  -0.712069  0  2.34566  0
O  O110  1  0.45698987  0.16943580  0.40717828  1  0  -0.785762  0  2.085885  0  0  -0.73841  0  2.3392  0  0  -0.762868  0  2.328032  0  0  -0.403415  -0.712108  0  2.345621  0
O  O111  1  0.95699190  0.33056529  0.59282280  1  0  -0.785731  0  2.085863  0  0  -0.738379  0  2.339217  0  0  -0.762835  0  2.328048  0  0  -0.403396  -0.712082  0  2.345653  0
O  O112  1  0.77247145  0.84506956  0.70098910  1  0  -0.735157  0  2.014499  0  0  -0.678223  0  2.245995  0  0  -0.703268  0  2.234266  0  0  -0.371194  -0.656446  0  2.253704  0
O  O113  1  0.27246941  0.65493034  0.29901124  1  0  -0.735204  0  2.01451  0  0  -0.678257  0  2.246041  0  0  -0.7033  0  2.234314  0  0  -0.371226  -0.656477  0  2.25375  0
O  O114  1  0.22752813  0.15493038  0.29901186  1  0  -0.735153  0  2.014497  0  0  -0.67823  0  2.245986  0  0  -0.703275  0  2.234259  0  0  -0.371183  -0.656448  0  2.253698  0
O  O115  1  0.72752880  0.34506959  0.70098899  1  0  -0.735144  0  2.014474  0  0  -0.678211  0  2.24598  0  0  -0.703253  0  2.23425  0  0  -0.371182  -0.65643  0  2.253688  0
O  O116  1  0.73887640  0.65456803  0.53651515  1  0  -0.778326  0  2.176663  0  0  -0.72525  0  2.444655  0  0  -0.750115  0  2.432359  0  0  -0.431694  -0.696991  0  2.452751  0
O  O117  1  0.23887338  0.84543193  0.46348519  1  0  -0.77842  0  2.176662  0  0  -0.725343  0  2.444627  0  0  -0.750202  0  2.432318  0  0  -0.43172  -0.697084  0  2.452725  0
O  O118  1  0.26112181  0.34543038  0.46348485  1  0  -0.778414  0  2.176575  0  0  -0.725346  0  2.444577  0  0  -0.750211  0  2.432276  0  0  -0.431715  -0.697086  0  2.452673  0
O  O119  1  0.76112347  0.15456877  0.53651589  1  0  -0.778416  0  2.176551  0  0  -0.725342  0  2.444547  0  0  -0.750205  0  2.432243  0  0  -0.431716  -0.697082  0  2.452645  0
O  O120  1  0.70233848  0.48643179  0.52918274  1  0  -0.69781  0  2.135282  0  0  -0.650036  0  2.401291  0  0  -0.673272  0  2.389287  0  0  -0.388802  -0.626422  0  2.409466  0
O  O121  1  0.20233743  0.01356747  0.47081800  1  0  -0.697785  0  2.135304  0  0  -0.650013  0  2.401298  0  0  -0.673248  0  2.389291  0  0  -0.388787  -0.626394  0  2.40948  0
O  O122  1  0.29765974  0.51356663  0.47081799  1  0  -0.697784  0  2.135409  0  0  -0.650002  0  2.401403  0  0  -0.673238  0  2.389398  0  0  -0.388771  -0.626386  0  2.409582  0
O  O123  1  0.79765806  0.98643170  0.52917991  1  0  -0.697813  0  2.135423  0  0  -0.650046  0  2.401454  0  0  -0.67328  0  2.389444  0  0  -0.388794  -0.626432  0  2.409633  0
O  O124  1  0.07165134  0.93854615  0.66982120  1  0  -0.870734  0  1.843092  0  0  -0.829916  0  2.013196  0  0  -0.847878  0  1.984031  0  0  -0.616656  -0.812182  0  2.035654  0
O  O125  1  0.57165201  0.56145258  0.33017671  1  0  -0.870772  0  1.843118  0  0  -0.829962  0  2.013192  0  0  -0.84793  0  1.984034  0  0  -0.616724  -0.812232  0  2.035696  0
O  O126  1  0.92834688  0.06145379  0.33017756  1  0  -0.870741  0  1.843125  0  0  -0.829937  0  2.013217  0  0  -0.847898  0  1.984049  0  0  -0.616657  -0.81221  0  2.035666  0
O  O127  1  0.42834621  0.43854659  0.66982341  1  0  -0.870695  0  1.843144  0  0  -0.829888  0  2.013219  0  0  -0.847857  0  1.984065  0  0  -0.616687  -0.812199  0  2.035693  0
