# generated using pymatgen
data_H15PbC20S2N5
_symmetry_space_group_name_H-M   'P 1'
_cell_length_a   9.95574913
_cell_length_b   9.63322468
_cell_length_c   11.32002482
_cell_angle_alpha   105.90407400
_cell_angle_beta   105.35629167
_cell_angle_gamma   91.88764787
_symmetry_Int_Tables_number   1
_chemical_formula_structural   H15PbC20S2N5
_chemical_formula_sum   'H30 Pb2 C40 S4 N10'
_cell_volume   1000.28705211
_cell_formula_units_Z   2
loop_
 _symmetry_equiv_pos_site_id
 _symmetry_equiv_pos_as_xyz
  1  'x, y, z'
loop_
 _atom_site_type_symbol
 _atom_site_label
 _atom_site_symmetry_multiplicity
 _atom_site_fract_x
 _atom_site_fract_y
 _atom_site_fract_z
 _atom_site_occupancy
 _atom_site_pbe_bader_spin_density
 _atom_site_pbe_cm5_charge
 _atom_site_pbe_ddec_charge
 _atom_site_pbe_ddec_spin_density
 _atom_site_pbe_ddec_sum_bond_order
 _atom_site_pbe_magmom
H  H0  1  0.03044575  0.17442352  0.13455488  1  0  0.104494  0.067664  0  1.042763  0
H  H1  1  0.96956052  0.82558826  0.86549622  1  0  0.104523  0.067782  0  1.042535  0
H  H2  1  0.19202642  0.98346735  0.09571163  1  0  0.096534  0.103285  0  1.049962  0
H  H3  1  0.80798166  0.01655492  0.90431424  1  0  0.096536  0.10326  0  1.050053  0
H  H4  1  0.53763571  0.31145209  0.32955359  1  0  0.095444  0.10293  0  1.055131  0
H  H5  1  0.46238066  0.68857178  0.67045598  1  0  0.095352  0.102779  0  1.055267  0
H  H6  1  0.36224002  0.48652822  0.35815047  1  0  0.104223  0.069577  0  1.045956  0
H  H7  1  0.63776970  0.51349802  0.64189178  1  0  0.104259  0.069743  0  1.04591  0
H  H8  1  0.42066194  0.91125680  0.13308942  1  0  0.093977  0.096486  0  1.05386  0
H  H9  1  0.57933485  0.08878170  0.86689468  1  0  0.093933  0.096538  0  1.053477  0
H  H10  1  0.66210484  0.15976620  0.22791110  1  0  0.09615  0.101694  0  1.034248  0
H  H11  1  0.33790633  0.84025620  0.77211107  1  0  0.096104  0.10162  0  1.034414  0
H  H12  1  0.53184185  0.76211383  0.03492615  1  0  0.096269  0.102421  0  1.044987  0
H  H13  1  0.46815853  0.23790814  0.96506522  1  0  0.096337  0.102497  0  1.044931  0
H  H14  1  0.69667013  0.58039092  0.99209314  1  0  0.105091  0.073852  0  1.023399  0
H  H15  1  0.30333004  0.41962601  0.00792431  1  0  0.105111  0.073856  0  1.023545  0
H  H16  1  0.04310925  0.87979771  0.20177712  1  0  0.105667  0.072537  0  1.020694  0
H  H17  1  0.95688487  0.12020886  0.79825846  1  0  0.105707  0.072569  0  1.020533  0
H  H18  1  0.89282480  0.07817958  0.25266092  1  0  0.101298  0.112665  0  1.039607  0
H  H19  1  0.10717586  0.92184160  0.74736124  1  0  0.10139  0.112753  0  1.039664  0
H  H20  1  0.66324597  0.52190560  0.25193560  1  0  0.104942  0.0687  0  1.017915  0
H  H21  1  0.33683367  0.47805129  0.74811557  1  0  0.104866  0.068628  0  1.017702  0
H  H22  1  0.46860027  0.66332791  0.30108534  1  0  0.100801  0.116253  0  1.044898  0
H  H23  1  0.53142978  0.33657074  0.69887116  1  0  0.100843  0.116299  0  1.045018  0
H  H24  1  0.78467412  0.01194742  0.55642955  1  0  0.097312  0.102275  0  1.045565  0
H  H25  1  0.21528054  0.98806298  0.44348061  1  0  0.097197  0.102381  0  1.045581  0
H  H26  1  0.96384741  0.85862061  0.49388687  1  0  0.103759  0.066606  0  1.030664  0
H  H27  1  0.03615222  0.14140335  0.50611190  1  0  0.103812  0.066696  0  1.030969  0
H  H28  1  0.38967051  0.88060844  0.39733203  1  0  0.0981  0.106166  0  1.025137  0
H  H29  1  0.61029892  0.11931689  0.60253625  1  0  0.097916  0.10585  0  1.025194  0
Pb  Pb30  1  0.01008118  0.53301498  0.24430986  1  0  0.571832  0.869508  0  2.067376  0
Pb  Pb31  1  0.98993472  0.46698377  0.75569949  1  0  0.571848  0.869531  0  2.067194  0
C  C32  1  0.14386926  0.19949797  0.17635975  1  0  0.043886  0.097952  0  3.973464  0
C  C33  1  0.85612995  0.80050759  0.82367495  1  0  0.04394  0.097902  0  3.973248  0
C  C34  1  0.23358072  0.09398243  0.15544836  1  0  -0.085726  -0.175253  0  3.916823  0
C  C35  1  0.76642132  0.90603231  0.84456984  1  0  -0.085803  -0.175431  0  3.916745  0
C  C36  1  0.37942269  0.13191081  0.20596330  1  0  0.009159  0.15608  0  4.00375  0
C  C37  1  0.62057462  0.86810961  0.79404466  1  0  0.009257  0.156327  0  4.003368  0
C  C38  1  0.42655439  0.27616825  0.28222859  1  0  -0.085948  -0.172703  0  3.916456  0
C  C39  1  0.57344480  0.72383880  0.71779058  1  0  -0.085923  -0.172561  0  3.916327  0
C  C40  1  0.32933096  0.37407228  0.29944301  1  0  0.042735  0.091711  0  3.982993  0
C  C41  1  0.67067253  0.62593438  0.70059293  1  0  0.04261  0.091301  0  3.983266  0
C  C42  1  0.47192312  0.02256758  0.17490056  1  0  -0.081199  -0.110618  0  3.942641  0
C  C43  1  0.52807820  0.97745328  0.82509162  1  0  -0.081217  -0.110791  0  3.942248  0
C  C44  1  0.60990701  0.04879596  0.18785794  1  0  -0.080438  -0.112024  0  3.936893  0
C  C45  1  0.39008992  0.95123101  0.81214981  1  0  -0.080334  -0.111903  0  3.937311  0
C  C46  1  0.69841004  0.93657887  0.15209452  1  0  0.008499  0.154783  0  3.993798  0
C  C47  1  0.30158678  0.06343730  0.84790872  1  0  0.008634  0.154948  0  3.993707  0
C  C48  1  0.64447123  0.79388983  0.07542074  1  0  -0.083483  -0.162509  0  3.911154  0
C  C49  1  0.35552772  0.20613591  0.92459334  1  0  -0.083685  -0.162792  0  3.910809  0
C  C50  1  0.73640718  0.69195251  0.05037936  1  0  0.035762  0.083919  0  4.012351  0
C  C51  1  0.26358989  0.30806434  0.94964002  1  0  0.035869  0.083986  0  4.012269  0
C  C52  1  0.92881917  0.85858370  0.16616254  1  0  0.033711  0.081053  0  4.006852  0
C  C53  1  0.07117358  0.14141958  0.83387279  1  0  0.033722  0.081015  0  4.006854  0
C  C54  1  0.84526670  0.96857472  0.19504320  1  0  -0.087882  -0.180669  0  3.921473  0
C  C55  1  0.15472032  0.03143551  0.80497403  1  0  -0.088072  -0.18089  0  3.921677  0
C  C56  1  0.68587970  0.63100563  0.31991438  1  0  0.039804  0.092851  0  3.992402  0
C  C57  1  0.31415771  0.36895949  0.68009491  1  0  0.039967  0.093047  0  3.992116  0
C  C58  1  0.57762357  0.70910045  0.34827225  1  0  -0.087157  -0.177538  0  3.902211  0
C  C59  1  0.42239839  0.29083913  0.65170330  1  0  -0.087324  -0.177901  0  3.90333  0
C  C60  1  0.60863172  0.85038066  0.43426020  1  0  0.006905  0.153599  0  3.999374  0
C  C61  1  0.39134552  0.14957519  0.56565725  1  0  0.006913  0.153542  0  4.000216  0
C  C62  1  0.75167264  0.90322419  0.48981454  1  0  -0.086214  -0.173225  0  3.91863  0
C  C63  1  0.24828667  0.09675707  0.51012647  1  0  -0.086019  -0.173338  0  3.918794  0
C  C64  1  0.85256492  0.81802810  0.45443063  1  0  0.039297  0.094608  0  3.989948  0
C  C65  1  0.14742593  0.18197201  0.54555665  1  0  0.03926  0.094644  0  3.99005  0
C  C66  1  0.49356637  0.93364887  0.45727690  1  0  -0.081619  -0.114295  0  3.933518  0
C  C67  1  0.50638901  0.06630273  0.54258333  1  0  -0.081071  -0.112871  0  3.933283  0
C  C68  1  0.22707441  0.68080470  0.08908665  1  0  0.138921  0.24401  0  4.331177  0
C  C69  1  0.77292167  0.31919256  0.91092936  1  0  0.138906  0.244115  0  4.330324  0
C  C70  1  0.86377503  0.33627537  0.41868351  1  0  0.152554  0.246579  0  4.312239  0
C  C71  1  0.13620407  0.66372124  0.58130732  1  0  0.152522  0.246498  0  4.311757  0
S  S72  1  0.78181072  0.29973144  0.51550776  1  0  -0.091589  -0.276333  0  2.507573  0
S  S73  1  0.21818995  0.70027169  0.48449397  1  0  -0.091635  -0.276358  0  2.507289  0
S  S74  1  0.22758386  0.70173913  0.95074446  1  0  -0.125474  -0.325582  0  2.460794  0
S  S75  1  0.77242328  0.29827454  0.04927551  1  0  -0.125501  -0.325656  0  2.460823  0
N  N76  1  0.19037823  0.33803939  0.24595142  1  0  -0.302486  -0.245084  0  3.460518  0
N  N77  1  0.80961524  0.66197029  0.75409010  1  0  -0.302458  -0.24486  0  3.460743  0
N  N78  1  0.82196558  0.68416056  0.36999411  1  0  -0.307474  -0.266796  0  3.419919  0
N  N79  1  0.17806974  0.31582401  0.63002312  1  0  -0.307597  -0.266976  0  3.419838  0
N  N80  1  0.92292318  0.35705018  0.34607159  1  0  -0.352025  -0.447736  0  3.08641  0
N  N81  1  0.07705557  0.64294321  0.65391659  1  0  -0.351992  -0.447634  0  3.086194  0
N  N82  1  0.22827422  0.66768022  0.19072223  1  0  -0.366277  -0.487064  0  2.990791  0
N  N83  1  0.77172367  0.33232613  0.80928056  1  0  -0.366248  -0.487209  0  2.990095  0
N  N84  1  0.87688160  0.72115049  0.09605884  1  0  -0.322255  -0.302669  0  3.432258  0
N  N85  1  0.12311597  0.27885945  0.90397482  1  0  -0.322333  -0.302599  0  3.432227  0
