# generated using pymatgen
data_Zn4SiH48C80(N2F)8
_symmetry_space_group_name_H-M   'P 1'
_cell_length_a   13.94666566
_cell_length_b   13.94687177
_cell_length_c   15.62281299
_cell_angle_alpha   116.50503682
_cell_angle_beta   116.50526323
_cell_angle_gamma   89.99881025
_symmetry_Int_Tables_number   1
_chemical_formula_structural   Zn4SiH48C80(N2F)8
_chemical_formula_sum   'Zn4 Si1 H48 C80 N16 F8'
_cell_volume   2357.16029177
_cell_formula_units_Z   1
loop_
 _symmetry_equiv_pos_site_id
 _symmetry_equiv_pos_as_xyz
  1  'x, y, z'
loop_
 _atom_site_type_symbol
 _atom_site_label
 _atom_site_symmetry_multiplicity
 _atom_site_fract_x
 _atom_site_fract_y
 _atom_site_fract_z
 _atom_site_occupancy
 _atom_site_pbe_bader_charge
 _atom_site_pbe_bader_spin_density
 _atom_site_pbe_cm5_charge
 _atom_site_pbe_ddec_charge
 _atom_site_pbe_ddec_spin_density
 _atom_site_pbe_ddec_sum_bond_order
 _atom_site_pbe_magmom
Zn  Zn0  1  0.65959081  0.65954886  0.31923584  1  1.318311  0  0.688355  0.721147  0  2.459319  0
Zn  Zn1  1  0.34040934  0.34045088  0.68076403  1  1.318329  0  0.688365  0.721147  0  2.459343  0
Zn  Zn2  1  0.82709496  0.82703728  0.65412854  1  1.282786  0  0.683182  0.71173  0  2.479842  0
Zn  Zn3  1  0.17290583  0.17296246  0.34587197  1  1.282752  0  0.683148  0.711661  0  2.479888  0
Si  Si4  1  0.49999963  0.49999984  0.00000044  1  3.230592  0  0.257179  1.727837  0  3.94232  0
H  H5  1  0.68273330  0.55744421  0.46017195  1  0.146255  0  0.112239  0.088917  0  1.02282  0
H  H6  1  0.77745301  0.90263982  0.46032813  1  0.143303  0  0.112805  0.089462  0  1.023207  0
H  H7  1  0.55744162  0.77732252  0.46031352  1  0.09833  0  0.112536  0.089193  0  1.022957  0
H  H8  1  0.90271203  0.68279933  0.46021925  1  0.15032  0  0.112748  0.089586  0  1.02323  0
H  H9  1  0.31726655  0.44255695  0.53983011  1  0.146288  0  0.11223  0.088921  0  1.022849  0
H  H10  1  0.22254736  0.09736173  0.53967279  1  0.143329  0  0.112794  0.089454  0  1.023187  0
H  H11  1  0.44256000  0.22267841  0.53968616  1  0.098309  0  0.11253  0.08919  0  1.022957  0
H  H12  1  0.09728834  0.31720062  0.53978167  1  0.150314  0  0.112751  0.089582  0  1.023255  0
H  H13  1  0.56577615  0.43110348  0.47014505  1  0.070906  0  0.103553  0.111595  0  1.023927  0
H  H14  1  0.90423462  0.03902329  0.47024491  1  0.109899  0  0.103665  0.111758  0  1.024894  0
H  H15  1  0.43101590  0.90416838  0.47015754  1  0.103606  0  0.103578  0.112  0  1.023645  0
H  H16  1  0.03891755  0.56569652  0.47006776  1  0.085634  0  0.103622  0.111458  0  1.024788  0
H  H17  1  0.43422307  0.56889767  0.52985637  1  0.070918  0  0.103547  0.111575  0  1.023906  0
H  H18  1  0.09576585  0.96097725  0.52975527  1  0.109922  0  0.103674  0.111771  0  1.024908  0
H  H19  1  0.56898434  0.09583035  0.52984160  1  0.103582  0  0.103597  0.111982  0  1.023656  0
H  H20  1  0.96108241  0.43430363  0.52993357  1  0.085644  0  0.10361  0.11144  0  1.024865  0
H  H21  1  0.30269730  0.36762632  0.15280431  1  0.095991  0  0.114072  0.125052  0  0.9773  0
H  H22  1  0.85006867  0.78521937  0.15288728  1  0.084195  0  0.113985  0.12515  0  0.97709  0
H  H23  1  0.36799772  0.85013302  0.15295731  1  0.091791  0  0.113768  0.124601  0  0.977476  0
H  H24  1  0.78493756  0.30275425  0.15273500  1  0.098763  0  0.114073  0.125329  0  0.977983  0
H  H25  1  0.69730211  0.63237282  0.84719565  1  0.095993  0  0.114074  0.125065  0  0.977297  0
H  H26  1  0.14993106  0.21478218  0.84711299  1  0.084206  0  0.113992  0.125168  0  0.977063  0
H  H27  1  0.63200243  0.14986672  0.84704256  1  0.091692  0  0.11377  0.124601  0  0.977483  0
H  H28  1  0.21506290  0.69724629  0.84726519  1  0.098757  0  0.114074  0.125309  0  0.977968  0
H  H29  1  0.43106414  0.49413032  0.15450336  1  0.172416  0  0.118697  0.10655  0  1.030114  0
H  H30  1  0.72356089  0.66037196  0.15469074  1  0.193973  0  0.119002  0.106852  0  1.028839  0
H  H31  1  0.49450790  0.72353849  0.15481844  1  0.18386  0  0.118929  0.106641  0  1.029534  0
H  H32  1  0.66020016  0.43117507  0.15470564  1  0.191842  0  0.119021  0.106993  0  1.029884  0
H  H33  1  0.56893496  0.50586803  0.84549628  1  0.172401  0  0.118694  0.106525  0  1.030128  0
H  H34  1  0.27643852  0.33962878  0.84530922  1  0.193956  0  0.119027  0.106928  0  1.028842  0
H  H35  1  0.50549151  0.27646225  0.84518152  1  0.183865  0  0.118917  0.106612  0  1.02948  0
H  H36  1  0.33980073  0.56882527  0.84529414  1  0.191613  0  0.119014  0.106984  0  1.029894  0
H  H37  1  0.27662014  0.51779737  0.31332820  1  0.07908  0  0.102943  0.120225  0  1.022043  0
H  H38  1  0.03659673  0.79549215  0.31321092  1  0.090033  0  0.102858  0.120724  0  1.021365  0
H  H39  1  0.51780544  0.03676033  0.31330176  1  0.073021  0  0.102833  0.120299  0  1.021024  0
H  H40  1  0.79549429  0.27663893  0.31329164  1  0.072011  0  0.102852  0.120029  0  1.021423  0
H  H41  1  0.72337937  0.48220237  0.68667103  1  0.079083  0  0.102947  0.120228  0  1.022034  0
H  H42  1  0.96340179  0.20450616  0.68678483  1  0.090059  0  0.102853  0.12075  0  1.021373  0
H  H43  1  0.48219397  0.96323881  0.68669821  1  0.073037  0  0.10283  0.120289  0  1.021025  0
H  H44  1  0.20450554  0.72336161  0.68670790  1  0.072031  0  0.102844  0.12002  0  1.021458  0
H  H45  1  0.08444881  0.52951667  0.31217831  1  0.09437  0  0.103793  0.123462  0  1.01464  0
H  H46  1  0.22776846  0.78275587  0.31231409  1  0.062261  0  0.103543  0.123212  0  1.014652  0
H  H47  1  0.52937006  0.22778116  0.31215445  1  0.084953  0  0.103793  0.123464  0  1.013889  0
H  H48  1  0.78291743  0.08465986  0.31259653  1  0.082392  0  0.103473  0.123057  0  1.015691  0
H  H49  1  0.91555092  0.47048327  0.68782197  1  0.094352  0  0.103784  0.123436  0  1.01464  0
H  H50  1  0.77223051  0.21724286  0.68768377  1  0.062313  0  0.103552  0.123222  0  1.014687  0
H  H51  1  0.47063073  0.77221858  0.68784606  1  0.084979  0  0.10378  0.123445  0  1.01395  0
H  H52  1  0.21708367  0.91534068  0.68740430  1  0.082376  0  0.103463  0.123045  0  1.015713  0
C  C53  1  0.59830187  0.51207433  0.39322736  1  0.420614  0  0.043391  0.091657  0  3.947693  0
C  C54  1  0.79495507  0.88108934  0.39338393  1  0.429574  0  0.042693  0.090381  0  3.949285  0
C  C55  1  0.51216369  0.79489404  0.39340491  1  0.452611  0  0.042738  0.091353  0  3.947428  0
C  C56  1  0.88109337  0.59834610  0.39329180  1  0.447564  0  0.042408  0.089365  0  3.949846  0
C  C57  1  0.40169786  0.48792561  0.60677292  1  0.420516  0  0.043374  0.091623  0  3.947646  0
C  C58  1  0.20504530  0.11891220  0.60661698  1  0.42958  0  0.042695  0.090412  0  3.949271  0
C  C59  1  0.48783697  0.20510609  0.60659382  1  0.452584  0  0.042733  0.09132  0  3.947451  0
C  C60  1  0.11890688  0.40165423  0.60670734  1  0.447573  0  0.042398  0.089377  0  3.949847  0
C  C61  1  0.53254432  0.44209077  0.39832604  1  0.009715  0  -0.090298  -0.19318  0  3.968082  0
C  C62  1  0.86569372  0.95622178  0.39843731  1  -0.035636  0  -0.090463  -0.193385  0  3.971495  0
C  C63  1  0.44214201  0.86570938  0.39841578  1  0.005383  0  -0.090098  -0.193615  0  3.968413  0
C  C64  1  0.95611785  0.53252988  0.39827420  1  -0.053329  0  -0.090119  -0.191782  0  3.96859  0
C  C65  1  0.46745531  0.55791018  0.60167497  1  0.009791  0  -0.090291  -0.193136  0  3.968025  0
C  C66  1  0.13430505  0.04377896  0.60156200  1  -0.035482  0  -0.09048  -0.19343  0  3.971474  0
C  C67  1  0.55785654  0.13428956  0.60158248  1  0.005396  0  -0.090117  -0.193547  0  3.968404  0
C  C68  1  0.04388262  0.46747066  0.60172598  1  -0.053313  0  -0.090131  -0.191801  0  3.968692  0
C  C69  1  0.42257615  0.39022153  0.31270148  1  -0.044124  0  0.014539  0.125108  0  3.996266  0
C  C70  1  0.89006585  0.92250786  0.31281014  1  -0.002431  0  0.01438  0.124722  0  3.997756  0
C  C71  1  0.39034863  0.89008798  0.31277975  1  -0.015112  0  0.014319  0.124856  0  3.997226  0
C  C72  1  0.92233498  0.42259276  0.31259054  1  -0.014362  0  0.014189  0.124151  0  3.997183  0
C  C73  1  0.57742358  0.60977842  0.68729880  1  -0.044094  0  0.014544  0.125112  0  3.99628  0
C  C74  1  0.10993356  0.07749289  0.68718981  1  -0.002606  0  0.014376  0.124757  0  3.997661  0
C  C75  1  0.60965129  0.10991155  0.68721907  1  -0.015122  0  0.014314  0.124821  0  3.997182  0
C  C76  1  0.07766571  0.57740799  0.68741069  1  -0.014406  0  0.014221  0.124155  0  3.997145  0
C  C77  1  0.38642883  0.40811197  0.22284972  1  -0.049445  0  -0.0811  -0.175299  0  3.935988  0
C  C78  1  0.83639527  0.81477383  0.22295797  1  -0.053339  0  -0.080522  -0.174879  0  3.936359  0
C  C79  1  0.40842775  0.83646713  0.22303778  1  -0.046985  0  -0.080089  -0.173764  0  3.935407  0
C  C80  1  0.81454818  0.38647228  0.22281771  1  -0.036073  0  -0.080293  -0.175283  0  3.937256  0
C  C81  1  0.61357058  0.59188718  0.77715024  1  -0.049442  0  -0.081121  -0.175348  0  3.936072  0
C  C82  1  0.16360318  0.18522611  0.77704103  1  -0.05335  0  -0.080548  -0.174926  0  3.936333  0
C  C83  1  0.59157345  0.16353401  0.77696232  1  -0.046854  0  -0.0801  -0.17378  0  3.935423  0
C  C84  1  0.18545229  0.61352826  0.77718248  1  -0.036111  0  -0.080285  -0.175227  0  3.937214  0
C  C85  1  0.45728390  0.47872014  0.22334418  1  0.506109  0  0.053347  0.103383  0  3.90848  0
C  C86  1  0.76613123  0.74462653  0.22350044  1  0.449767  0  0.053061  0.103291  0  3.908231  0
C  C87  1  0.47905099  0.76613876  0.22362504  1  0.435925  0  0.053058  0.103162  0  3.90899  0
C  C88  1  0.74445138  0.45733153  0.22349746  1  0.44315  0  0.052123  0.102654  0  3.910271  0
C  C89  1  0.54271583  0.52127980  0.77665610  1  0.506101  0  0.053346  0.103421  0  3.908543  0
C  C90  1  0.23386872  0.25537522  0.77650088  1  0.449754  0  0.053036  0.103207  0  3.908216  0
C  C91  1  0.52094989  0.23386157  0.77637474  1  0.43593  0  0.053108  0.103252  0  3.908913  0
C  C92  1  0.25554845  0.54266901  0.77650208  1  0.443281  0  0.052112  0.102634  0  3.910269  0
C  C93  1  0.34536296  0.32178506  0.31735295  1  0.003582  0  0.001294  -0.079323  0  3.918087  0
C  C94  1  0.97192069  0.99560127  0.31745384  1  0.009662  0  0.001506  -0.07852  0  3.919258  0
C  C95  1  0.32182170  0.97187967  0.31737012  1  0.008177  0  0.001404  -0.079609  0  3.91846  0
C  C96  1  0.99544498  0.34541586  0.31723499  1  0.027103  0  0.001782  -0.077563  0  3.917328  0
C  C97  1  0.65463677  0.67821488  0.68264733  1  0.003552  0  0.001288  -0.079361  0  3.918115  0
C  C98  1  0.02807892  0.00439746  0.68254466  1  0.009654  0  0.00148  -0.078607  0  3.919302  0
C  C99  1  0.67817813  0.02811927  0.68262943  1  0.008208  0  0.001376  -0.079659  0  3.918573  0
C  C100  1  0.00455539  0.65458409  0.68276593  1  0.027148  0  0.00176  -0.077548  0  3.917297  0
C  C101  1  0.25127920  0.35937464  0.31700965  1  0.44505  0  0.093146  0.186297  0  4.043403  0
C  C102  1  0.06564069  0.95764934  0.31702204  1  0.428558  0  0.092729  0.186461  0  4.042802  0
C  C103  1  0.35935388  0.06563388  0.31701000  1  0.46971  0  0.093141  0.187152  0  4.040561  0
C  C104  1  0.95759543  0.25133539  0.31693795  1  0.438251  0  0.092989  0.185575  0  4.043579  0
C  C105  1  0.74872085  0.64062611  0.68299095  1  0.445041  0  0.093171  0.186356  0  4.04336  0
C  C106  1  0.93435840  0.04235060  0.68297760  1  0.428485  0  0.09277  0.186548  0  4.04279  0
C  C107  1  0.64064637  0.93436485  0.68298914  1  0.469704  0  0.093185  0.187219  0  4.040582  0
C  C108  1  0.04240504  0.74866515  0.68306224  1  0.438279  0  0.092982  0.185563  0  4.04347  0
C  C109  1  0.22689101  0.46001795  0.31553374  1  -0.098643  0  -0.108427  -0.191772  0  3.997004  0
C  C110  1  0.08856553  0.85551226  0.31549297  1  -0.066668  0  -0.108761  -0.193441  0  3.997264  0
C  C111  1  0.45996503  0.08863316  0.31551147  1  -0.065299  0  -0.108364  -0.192106  0  3.997461  0
C  C112  1  0.85550488  0.22694758  0.31552638  1  -0.080477  0  -0.108804  -0.19157  0  3.994169  0
C  C113  1  0.77310914  0.53998179  0.68446613  1  -0.098637  0  -0.108413  -0.191762  0  3.996962  0
C  C114  1  0.91143376  0.14448727  0.68450520  1  -0.066584  0  -0.108787  -0.193543  0  3.997267  0
C  C115  1  0.54003481  0.91136578  0.68448808  1  -0.065077  0  -0.108364  -0.192083  0  3.997471  0
C  C116  1  0.14449537  0.77305275  0.68447275  1  -0.080494  0  -0.108797  -0.191567  0  3.99426  0
C  C117  1  0.12931904  0.46659565  0.31583670  1  -0.092369  0  -0.106561  -0.182544  0  3.981921  0
C  C118  1  0.18649207  0.84928861  0.31589394  1  -0.070122  0  -0.106059  -0.18189  0  3.981795  0
C  C119  1  0.46648424  0.18652365  0.31582771  1  -0.101158  0  -0.106779  -0.18306  0  3.982125  0
C  C120  1  0.84936744  0.12948838  0.31607136  1  -0.062242  0  -0.106204  -0.182509  0  3.981746  0
C  C121  1  0.87068197  0.53340589  0.68416486  1  -0.092367  0  -0.106562  -0.182522  0  3.981902  0
C  C122  1  0.81350734  0.15071053  0.68410602  1  -0.070159  0  -0.10604  -0.181855  0  3.981753  0
C  C123  1  0.53351591  0.81347609  0.68417216  1  -0.101409  0  -0.106766  -0.183056  0  3.982196  0
C  C124  1  0.15063280  0.87051195  0.68392778  1  -0.062255  0  -0.106196  -0.182507  0  3.981853  0
C  C125  1  0.09449146  0.37116778  0.31942410  1  0.434492  0  0.091374  0.189643  0  4.042623  0
C  C126  1  0.22490871  0.94832328  0.31952343  1  0.413393  0  0.091821  0.191912  0  4.041597  0
C  C127  1  0.37107145  0.22488585  0.31948094  1  0.454102  0  0.091752  0.191768  0  4.041175  0
C  C128  1  0.94836293  0.09463991  0.31960545  1  0.457358  0  0.091861  0.191014  0  4.043232  0
C  C129  1  0.90550923  0.62883297  0.68057714  1  0.434504  0  0.091357  0.189592  0  4.042657  0
C  C130  1  0.77509070  0.05167587  0.68047653  1  0.413348  0  0.091811  0.19191  0  4.041644  0
C  C131  1  0.62892870  0.77511389  0.68051892  1  0.454098  0  0.091754  0.191793  0  4.041153  0
C  C132  1  0.05163658  0.90535983  0.68039378  1  0.457346  0  0.091939  0.191151  0  4.04312  0
N  N133  1  0.56112608  0.53140641  0.30830351  1  -1.259947  0  -0.321093  -0.227312  0  3.537689  0
N  N134  1  0.74725216  0.77683396  0.30847130  1  -1.249223  0  -0.32113  -0.226798  0  3.536521  0
N  N135  1  0.53163192  0.74719425  0.30856107  1  -1.243997  0  -0.321285  -0.227654  0  3.538692  0
N  N136  1  0.77679602  0.56119004  0.30844903  1  -1.250534  0  -0.320305  -0.225836  0  3.539831  0
N  N137  1  0.43887429  0.46859354  0.69169741  1  -1.25996  0  -0.321062  -0.227304  0  3.537604  0
N  N138  1  0.25274789  0.22316678  0.69152930  1  -1.249245  0  -0.321102  -0.226765  0  3.536539  0
N  N139  1  0.46836823  0.25280548  0.69143880  1  -1.243964  0  -0.321293  -0.227685  0  3.538694  0
N  N140  1  0.22320486  0.43881029  0.69155074  1  -1.250409  0  -0.32029  -0.225818  0  3.539771  0
N  N141  1  0.17019509  0.30803439  0.32055038  1  -1.190395  0  -0.35635  -0.365037  0  3.422324  0
N  N142  1  0.15031423  0.01257013  0.32063269  1  -1.195065  0  -0.356304  -0.366669  0  3.422584  0
N  N143  1  0.30797789  0.15026897  0.32058920  1  -1.183059  0  -0.356586  -0.367056  0  3.421218  0
N  N144  1  0.01254133  0.17028779  0.32058558  1  -1.198163  0  -0.356615  -0.366258  0  3.424804  0
N  N145  1  0.82980583  0.69196657  0.67945191  1  -1.190368  0  -0.356353  -0.365039  0  3.422373  0
N  N146  1  0.84968561  0.98742881  0.67936686  1  -1.195141  0  -0.356318  -0.366696  0  3.42262  0
N  N147  1  0.69202236  0.84972976  0.67940994  1  -1.183063  0  -0.356622  -0.367124  0  3.421199  0
N  N148  1  0.98745914  0.82971275  0.67941461  1  -1.198165  0  -0.356661  -0.366341  0  3.424681  0
F  F149  1  0.74294836  0.74293746  0.48621234  1  -0.792233  0  -0.368313  -0.537738  0  1.145893  0
F  F150  1  0.25705253  0.25706127  0.51378744  1  -0.792235  0  -0.368322  -0.537733  0  1.145906  0
F  F151  1  0.57153273  0.57159388  0.14296397  1  -0.831319  0  -0.193584  -0.503473  0  1.384283  0
F  F152  1  0.42846562  0.42840546  0.85703576  1  -0.83132  0  -0.193597  -0.503466  0  1.384279  0
F  F153  1  0.37739228  0.50032482  0.00009629  1  -0.841278  0  -0.246604  -0.543662  0  1.083436  0
F  F154  1  0.62260630  0.49967473  0.99990449  1  -0.841264  0  -0.246579  -0.543626  0  1.083471  0
F  F155  1  0.50021661  0.62255904  0.99983362  1  -0.842412  0  -0.246415  -0.543675  0  1.083647  0
F  F156  1  0.49978322  0.37743989  0.00016593  1  -0.842382  0  -0.246418  -0.543681  0  1.083611  0
