# generated using pymatgen
data_ZnH4C9N(ClO2)2
_symmetry_space_group_name_H-M   'P 1'
_cell_length_a   8.48050124
_cell_length_b   9.29749569
_cell_length_c   16.01736626
_cell_angle_alpha   90.00154021
_cell_angle_beta   91.88571945
_cell_angle_gamma   89.99750632
_symmetry_Int_Tables_number   1
_chemical_formula_structural   ZnH4C9N(ClO2)2
_chemical_formula_sum   'Zn2 H8 C18 N2 Cl4 O8'
_cell_volume   1262.24412185
_cell_formula_units_Z   2
loop_
 _symmetry_equiv_pos_site_id
 _symmetry_equiv_pos_as_xyz
  1  'x, y, z'
loop_
 _atom_site_type_symbol
 _atom_site_label
 _atom_site_symmetry_multiplicity
 _atom_site_fract_x
 _atom_site_fract_y
 _atom_site_fract_z
 _atom_site_occupancy
 _atom_site_pbe_bader_charge
 _atom_site_pbe_bader_spin_density
 _atom_site_pbe_cm5_charge
 _atom_site_pbe_ddec_charge
 _atom_site_pbe_ddec_spin_density
 _atom_site_pbe_ddec_sum_bond_order
 _atom_site_pbe_magmom
Zn  Zn0  1  0.65702666  0.50025121  0.50123019  1  1.303176  0  0.686149  0.860116  0  2.370233  0
Zn  Zn1  1  0.34297749  0.50025846  0.49877461  1  1.292826  0  0.686048  0.8599  0  2.370592  0
H  H2  1  0.56125781  0.72557142  0.92061437  1  0.071489  0  0.096767  0.112289  0  0.979085  0
H  H3  1  0.36027135  0.68637388  0.93784829  1  0.069772  0  0.093902  0.107144  0  0.985475  0
H  H4  1  0.63971457  0.68638333  0.06214643  1  0.069126  0  0.09386  0.107055  0  0.985555  0
H  H5  1  0.43872509  0.72558863  0.07937901  1  0.071836  0  0.09667  0.112082  0  0.979218  0
H  H6  1  0.59392730  0.28777996  0.05523258  1  0.093326  0  0.109048  0.090637  0  0.95775  0
H  H7  1  0.31605668  0.33050825  0.07584912  1  0.093471  0  0.110985  0.098046  0  0.949114  0
H  H8  1  0.68396488  0.33049171  0.92415660  1  0.093471  0  0.11101  0.098223  0  0.94906  0
H  H9  1  0.40609272  0.28777118  0.94477375  1  0.093112  0  0.109038  0.090599  0  0.957739  0
C  C10  1  0.49999149  0.22114580  0.49999802  1  1.668702  0  0.231941  0.674157  0  4.202179  0
C  C11  1  0.36764499  0.40025612  0.94978971  1  0.089799  0  -0.044315  0.003337  0  3.784608  0
C  C12  1  0.63236738  0.40026098  0.05021376  1  0.090378  0  -0.044259  0.003409  0  3.784492  0
C  C13  1  0.34214553  0.43160083  0.04384690  1  0.101188  0  -0.042958  0.003215  0  3.767411  0
C  C14  1  0.48929340  0.50013215  0.24822571  1  0.177686  0  -0.046436  -0.181352  0  3.949506  0
C  C15  1  0.51071312  0.50010002  0.75177975  1  0.177786  0  -0.046566  -0.18157  0  3.949582  0
C  C16  1  0.50281118  0.49824570  0.91777626  1  0.174413  0  -0.002202  0.10776  0  3.883018  0
C  C17  1  0.49719069  0.49825858  0.08222660  1  0.174618  0  -0.002135  0.107749  0  3.88325  0
C  C18  1  0.51798728  0.65243216  0.04741426  1  -0.071378  0  -0.162212  -0.196933  0  3.860739  0
C  C19  1  0.48200378  0.65242290  0.95258193  1  -0.035782  0  -0.162253  -0.197242  0  3.86076  0
C  C20  1  0.49278573  0.49873844  0.17255696  1  -0.413512  0  -0.029072  -0.030599  0  4.053079  0
C  C21  1  0.50721846  0.49870803  0.82744344  1  -0.413664  0  -0.02902  -0.030479  0  4.052835  0
C  C22  1  0.50911308  0.50038716  0.66179610  1  1.613734  0  0.227359  0.684622  0  4.196206  0
C  C23  1  0.49092880  0.50039677  0.33820680  1  1.615761  0  0.227269  0.684478  0  4.196387  0
C  C24  1  0.49999363  0.93495845  0.49999887  1  -0.208889  0  -0.018313  -0.105066  0  3.912972  0
C  C25  1  0.49998924  0.06552755  0.49999810  1  0.025178  0  -0.019436  -0.107867  0  3.914147  0
C  C26  1  0.49998549  0.77933590  0.50000073  1  1.674784  0  0.23217  0.673804  0  4.203155  0
C  C27  1  0.65786418  0.43158799  0.95615511  1  0.101071  0  -0.042948  0.002916  0  3.767647  0
N  N28  1  0.06536693  0.50049417  0.49972932  1  0.157315  0  0.097648  0.121911  0  2.886578  0
N  N29  1  0.93463835  0.50047906  0.50026863  1  -0.080397  0  0.097789  0.121962  0  2.886545  0
Cl  Cl30  1  0.19229490  0.40907656  0.88673918  1  -0.205852  0  -0.037961  -0.101774  0  1.498618  0
Cl  Cl31  1  0.82057110  0.54613768  0.93591070  1  -0.21131  0  -0.02831  -0.098841  0  1.552246  0
Cl  Cl32  1  0.17942377  0.54615046  0.06408650  1  -0.211593  0  -0.028317  -0.098871  0  1.552089  0
Cl  Cl33  1  0.80771941  0.40908185  0.11326320  1  -0.205542  0  -0.03805  -0.101851  0  1.498512  0
O  O34  1  0.63473132  0.28207352  0.50052803  1  -1.129259  0  -0.307739  -0.533875  0  2.246699  0
O  O35  1  0.36520869  0.28207885  0.49946884  1  -1.129284  0  -0.307976  -0.534054  0  2.245946  0
O  O36  1  0.64271909  0.49922851  0.62728749  1  -1.117925  0  -0.313398  -0.538628  0  2.243749  0
O  O37  1  0.37326956  0.50153012  0.62483036  1  -1.138859  0  -0.312343  -0.54008  0  2.250676  0
O  O38  1  0.62673921  0.50153184  0.37516766  1  -1.139427  0  -0.312205  -0.5399  0  2.251387  0
O  O39  1  0.35729221  0.49922469  0.37272240  1  -1.119481  0  -0.31346  -0.538727  0  2.243093  0
O  O40  1  0.63480781  0.71841578  0.50162935  1  -1.130824  0  -0.308018  -0.534023  0  2.246134  0
O  O41  1  0.36521088  0.71842428  0.49837573  1  -1.13104  0  -0.307747  -0.533681  0  2.247168  0
