# generated using pymatgen
data_ZnH15C11NO8
_symmetry_space_group_name_H-M   'P 1'
_cell_length_a   8.97944873
_cell_length_b   8.82465647
_cell_length_c   9.70081841
_cell_angle_alpha   86.41423988
_cell_angle_beta   81.72991973
_cell_angle_gamma   71.74511758
_symmetry_Int_Tables_number   1
_chemical_formula_structural   ZnH15C11NO8
_chemical_formula_sum   'Zn2 H30 C22 N2 O16'
_cell_volume   722.29506846
_cell_formula_units_Z   2
loop_
 _symmetry_equiv_pos_site_id
 _symmetry_equiv_pos_as_xyz
  1  'x, y, z'
loop_
 _atom_site_type_symbol
 _atom_site_label
 _atom_site_symmetry_multiplicity
 _atom_site_fract_x
 _atom_site_fract_y
 _atom_site_fract_z
 _atom_site_occupancy
 _atom_site_hle17_bader_spin_density
 _atom_site_hle17_ddec_charge
 _atom_site_hle17_ddec_spin_density
 _atom_site_hle17_ddec_sum_bond_order
 _atom_site_hle17_magmom
 _atom_site_hse06_10hf_bader_spin_density
 _atom_site_hse06_10hf_ddec_charge
 _atom_site_hse06_10hf_ddec_spin_density
 _atom_site_hse06_10hf_ddec_sum_bond_order
 _atom_site_hse06_10hf_magmom
 _atom_site_hse06_bader_spin_density
 _atom_site_hse06_ddec_charge
 _atom_site_hse06_ddec_spin_density
 _atom_site_hse06_ddec_sum_bond_order
 _atom_site_hse06_magmom
 _atom_site_pbe_bader_spin_density
 _atom_site_pbe_cm5_charge
 _atom_site_pbe_ddec_charge
 _atom_site_pbe_ddec_spin_density
 _atom_site_pbe_ddec_sum_bond_order
 _atom_site_pbe_magmom
Zn  Zn0  1  0.16246334  0.61833821  0.67740594  1  0  1.188299  0  1.637312  0  0  1.02501  0  2.082881  0  0  1.074402  0  2.022175  0  0  0.669326  0.990063  0  2.124876  0
Zn  Zn1  1  0.81857046  0.35350929  0.41909755  1  0  1.170355  0  1.666501  0  0  1.011246  0  2.10729  0  0  1.060021  0  2.047198  0  0  0.670615  0.976977  0  2.148602  0
H  H2  1  0.01304459  0.82256081  0.52860216  1  0  0.413522  0  0.897862  0  0  0.381903  0  0.961492  0  0  0.393928  0  0.944268  0  0  0.285107  0.373217  0  0.974006  0
H  H3  1  0.04065452  0.65475545  0.45688434  1  0  0.416145  0  0.900943  0  0  0.383291  0  0.967768  0  0  0.395378  0  0.950523  0  0  0.284501  0.37472  0  0.979929  0
H  H4  1  0.28361521  0.82688032  0.76286465  1  0  0.435726  0  0.866434  0  0  0.403074  0  0.932019  0  0  0.414591  0  0.915399  0  0  0.291442  0.394616  0  0.94429  0
H  H5  1  0.39744875  0.72459625  0.63246681  1  0  0.438487  0  0.85809  0  0  0.407825  0  0.919872  0  0  0.418617  0  0.904232  0  0  0.297921  0.400103  0  0.931116  0
H  H6  1  0.33908684  0.31800876  0.60314719  1  0  0.423887  0  0.817349  0  0  0.408283  0  0.868026  0  0  0.416075  0  0.859652  0  0  0.324021  0.402437  0  0.874709  0
H  H7  1  0.35852259  0.39912359  0.45705639  1  0  0.434759  0  0.853443  0  0  0.402169  0  0.919119  0  0  0.413051  0  0.90314  0  0  0.299335  0.394304  0  0.930739  0
H  H8  1  0.01835677  0.25789498  0.58677446  1  0  0.41597  0  0.883213  0  0  0.385528  0  0.950228  0  0  0.395743  0  0.935424  0  0  0.294506  0.378359  0  0.960632  0
H  H9  1  0.96110942  0.10626232  0.56745458  1  0  0.421239  0  0.882934  0  0  0.389457  0  0.947728  0  0  0.399578  0  0.933266  0  0  0.291986  0.382338  0  0.957954  0
H  H10  1  0.61647243  0.21685209  0.34656183  1  0  0.434948  0  0.861526  0  0  0.400137  0  0.93097  0  0  0.41174  0  0.914128  0  0  0.296769  0.391742  0  0.943153  0
H  H11  1  0.72360242  0.09666323  0.45395287  1  0  0.439326  0  0.815736  0  0  0.414258  0  0.8803  0  0  0.423923  0  0.86614  0  0  0.320054  0.407612  0  0.889022  0
H  H12  1  0.80886114  0.46425112  0.65262192  1  0  0.420646  0  0.880022  0  0  0.392015  0  0.939564  0  0  0.402608  0  0.924239  0  0  0.293122  0.384378  0  0.950588  0
H  H13  1  0.64835622  0.55363568  0.58339572  1  0  0.419185  0  0.89068  0  0  0.386273  0  0.956275  0  0  0.398654  0  0.938479  0  0  0.285993  0.377354  0  0.96918  0
H  H14  1  0.25608981  0.41191532  0.01513206  1  0  0.301007  0  0.919967  0  0  0.279577  0  0.989915  0  0  0.287823  0  0.983684  0  0  0.306483  0.273785  0  0.994333  0
H  H15  1  0.07879373  0.23365835  0.09360294  1  0  0.302299  0  0.947308  0  0  0.280123  0  1.017046  0  0  0.288913  0  1.010199  0  0  0.303241  0.274143  0  1.021591  0
H  H16  1  0.81135625  0.85051523  0.02157529  1  0  0.098911  0  0.971236  0  0  0.108472  0  1.033919  0  0  0.111429  0  1.032538  0  0  0.104836  0.106004  0  1.035449  0
H  H17  1  0.61488440  0.02479151  0.19906810  1  0  0.093785  0  0.958899  0  0  0.103363  0  1.019926  0  0  0.106326  0  1.018919  0  0  0.104159  0.101164  0  1.020701  0
H  H18  1  0.45956936  0.37355830  0.87505249  1  0  0.106312  0  0.946315  0  0  0.117294  0  1.005154  0  0  0.120664  0  1.00331  0  0  0.109608  0.114789  0  1.006906  0
H  H19  1  0.65283906  0.20037521  0.70235344  1  0  0.097344  0  0.977128  0  0  0.102772  0  1.048594  0  0  0.1067  0  1.045253  0  0  0.100987  0.100291  0  1.050462  0
H  H20  1  0.22394921  0.57645103  0.27718965  1  0  0.078423  0  0.92556  0  0  0.089101  0  0.984277  0  0  0.09009  0  0.984726  0  0  0.121258  0.088532  0  0.983938  0
H  H21  1  0.15765392  0.73003223  0.05595086  1  0  0.11751  0  0.9652  0  0  0.13856  0  1.02401  0  0  0.139388  0  1.025886  0  0  0.093255  0.138145  0  1.022485  0
H  H22  1  0.99234553  0.76849205  0.18870709  1  0  0.120084  0  0.93021  0  0  0.143023  0  0.984101  0  0  0.1444  0  0.984149  0  0  0.098426  0.141952  0  0.984561  0
H  H23  1  0.00768159  0.64125060  0.04732035  1  0  0.11212  0  0.964678  0  0  0.12894  0  1.032472  0  0  0.13106  0  1.031242  0  0  0.091066  0.127377  0  1.033512  0
H  H24  1  0.95864430  0.19972301  0.83619765  1  0  0.067069  0  0.929204  0  0  0.076004  0  0.992016  0  0  0.077014  0  0.992081  0  0  0.115834  0.075636  0  0.991377  0
H  H25  1  0.77913106  0.31488653  0.05456065  1  0  0.123185  0  0.944668  0  0  0.145289  0  1.001931  0  0  0.146304  0  1.00329  0  0  0.096388  0.144496  0  1.001166  0
H  H26  1  0.75005475  0.44803721  0.90807239  1  0  0.114812  0  0.946031  0  0  0.136679  0  1.004105  0  0  0.13758  0  1.004709  0  0  0.095462  0.136042  0  1.004099  0
H  H27  1  0.85657574  0.47758572  0.04102591  1  0  0.112962  0  0.957018  0  0  0.130747  0  1.022555  0  0  0.132631  0  1.021751  0  0  0.092247  0.129183  0  1.023589  0
H  H28  1  0.45108527  0.78890837  0.91314793  1  0  0.100878  0  0.956086  0  0  0.111265  0  1.014734  0  0  0.115004  0  1.012228  0  0  0.105863  0.108301  0  1.017072  0
H  H29  1  0.60188386  0.61439456  0.09100291  1  0  0.099493  0  0.978845  0  0  0.110109  0  1.041952  0  0  0.113072  0  1.040605  0  0  0.103521  0.107825  0  1.04286  0
H  H30  1  0.30755487  0.92147092  0.41543019  1  0  0.104516  0  0.941091  0  0  0.113139  0  1.001844  0  0  0.117423  0  0.998325  0  0  0.105552  0.109519  0  1.005742  0
H  H31  1  0.15182799  0.09002024  0.24463344  1  0  0.107765  0  0.97847  0  0  0.116578  0  1.040406  0  0  0.120252  0  1.038371  0  0  0.106609  0.113918  0  1.041836  0
C  C32  1  0.86848287  0.90953664  0.74548607  1  0  0.663682  0  3.871664  0  0  0.610751  0  4.166699  0  0  0.645301  0  4.158482  0  0  0.218681  0.587389  0  4.171638  0
C  C33  1  0.74452527  0.01253114  0.85052980  1  0  -0.060364  0  3.736786  0  0  -0.039191  0  3.971512  0  0  -0.045741  0  3.993705  0  0  -0.01522  -0.035687  0  3.957106  0
C  C34  1  0.73338804  0.96525797  0.99127475  1  0  -0.057986  0  3.715439  0  0  -0.080097  0  3.961617  0  0  -0.080791  0  3.98234  0  0  -0.078525  -0.079151  0  3.946909  0
C  C35  1  0.62422136  0.06309715  0.09019862  1  0  -0.071587  0  3.743376  0  0  -0.095631  0  3.99454  0  0  -0.097082  0  4.016015  0  0  -0.080698  -0.093899  0  3.978784  0
C  C36  1  0.52259203  0.21007506  0.05002379  1  0  -0.06067  0  3.774051  0  0  -0.04036  0  4.014257  0  0  -0.046314  0  4.037459  0  0  -0.011004  -0.03591  0  3.99761  0
C  C37  1  0.53277619  0.25743684  0.90884052  1  0  -0.076344  0  3.712818  0  0  -0.100027  0  3.964604  0  0  -0.100913  0  3.984695  0  0  -0.081555  -0.100265  0  3.952031  0
C  C38  1  0.64255984  0.15926635  0.81024450  1  0  -0.066021  0  3.725206  0  0  -0.090648  0  3.977929  0  0  -0.091393  0  3.997848  0  0  -0.08455  -0.090088  0  3.964781  0
C  C39  1  0.40917777  0.31420786  0.15877407  1  0  0.560882  0  3.805475  0  0  0.50426  0  4.104701  0  0  0.534202  0  4.103754  0  0  0.248714  0.485175  0  4.101873  0
C  C40  1  0.16254981  0.53512096  0.20443809  1  0  0.079041  0  3.656946  0  0  0.062077  0  3.899461  0  0  0.062833  0  3.912191  0  0  0.012851  0.061564  0  3.890495  0
C  C41  1  0.07408333  0.67764446  0.11853535  1  0  -0.322276  0  3.644492  0  0  -0.404196  0  3.887022  0  0  -0.406428  0  3.895521  0  0  -0.240174  -0.402438  0  3.881168  0
C  C42  1  0.03922924  0.46842084  0.28988424  1  0  0.638472  0  3.820139  0  0  0.584835  0  4.12091  0  0  0.617225  0  4.115222  0  0  0.215227  0.562967  0  4.124049  0
C  C43  1  0.05912767  0.38939881  0.80288511  1  0  0.640357  0  3.826296  0  0  0.585352  0  4.13111  0  0  0.617902  0  4.124571  0  0  0.215138  0.563445  0  4.134487  0
C  C44  1  0.98615731  0.28234090  0.90119668  1  0  0.086298  0  3.67255  0  0  0.068757  0  3.917445  0  0  0.069639  0  3.930057  0  0  0.011326  0.068434  0  3.908031  0
C  C45  1  0.83327554  0.38808262  0.98122078  1  0  -0.324679  0  3.644493  0  0  -0.407455  0  3.889102  0  0  -0.409663  0  3.89795  0  0  -0.241834  -0.406017  0  3.883605  0
C  C46  1  0.19894642  0.04865597  0.95637157  1  0  0.545586  0  3.836936  0  0  0.494176  0  4.129842  0  0  0.52368  0  4.12913  0  0  0.241  0.474445  0  4.129515  0
C  C47  1  0.29149816  0.95204471  0.06505253  1  0  -0.061405  0  3.781947  0  0  -0.038769  0  4.016994  0  0  -0.04492  0  4.040649  0  0  -0.013303  -0.03504  0  4.001348  0
C  C48  1  0.41933432  0.81729215  0.02323490  1  0  -0.075199  0  3.743005  0  0  -0.097569  0  3.990953  0  0  -0.098817  0  4.011256  0  0  -0.083055  -0.096297  0  3.976158  0
C  C49  1  0.50387233  0.72010934  0.12192703  1  0  -0.07011  0  3.727116  0  0  -0.094141  0  3.976525  0  0  -0.09483  0  3.996774  0  0  -0.084164  -0.092699  0  3.960788  0
C  C50  1  0.46531880  0.75704921  0.26369941  1  0  -0.059378  0  3.739797  0  0  -0.039097  0  3.977223  0  0  -0.045191  0  3.998363  0  0  -0.014296  -0.035367  0  3.962837  0
C  C51  1  0.33921261  0.89267718  0.30551361  1  0  -0.050398  0  3.717166  0  0  -0.07507  0  3.972502  0  0  -0.074986  0  3.990527  0  0  -0.078636  -0.075915  0  3.961802  0
C  C52  1  0.25175288  0.98824985  0.20732904  1  0  -0.080032  0  3.703456  0  0  -0.104765  0  3.955312  0  0  -0.10589  0  3.975273  0  0  -0.083707  -0.104147  0  3.942073  0
C  C53  1  0.55967486  0.64992634  0.36737108  1  0  0.669641  0  3.869529  0  0  0.615502  0  4.164877  0  0  0.650163  0  4.157252  0  0  0.218913  0.592357  0  4.169044  0
N  N54  1  0.27959706  0.41827251  0.11477039  1  0  -0.426826  0  3.322569  0  0  -0.373676  0  3.576424  0  0  -0.395152  0  3.585671  0  0  -0.408234  -0.358926  0  3.567817  0
N  N55  1  0.09094593  0.18819989  0.99592339  1  0  -0.439626  0  3.325869  0  0  -0.384713  0  3.574451  0  0  -0.406667  0  3.583607  0  0  -0.419361  -0.370243  0  3.567417  0
O  O56  1  0.95776514  0.77858266  0.78910765  1  0  -0.634696  0  2.018096  0  0  -0.572298  0  2.272503  0  0  -0.600171  0  2.2611  0  0  -0.310378  -0.55299  0  2.279649  0
O  O57  1  0.87765453  0.96156237  0.61847139  1  0  -0.668286  0  2.003345  0  0  -0.59746  0  2.210868  0  0  -0.623057  0  2.197957  0  0  -0.320554  -0.579614  0  2.219293  0
O  O58  1  0.43511995  0.30513595  0.28437916  1  0  -0.605953  0  1.979057  0  0  -0.546224  0  2.200252  0  0  -0.56984  0  2.191562  0  0  -0.294834  -0.529537  0  2.205014  0
O  O59  1  0.00606269  0.35054791  0.24719315  1  0  -0.628222  0  2.059599  0  0  -0.554499  0  2.299615  0  0  -0.583194  0  2.290882  0  0  -0.30059  -0.534215  0  2.304462  0
O  O60  1  0.96428955  0.54009974  0.40009335  1  0  -0.618178  0  2.041862  0  0  -0.553794  0  2.267509  0  0  -0.580768  0  2.257845  0  0  -0.303755  -0.534768  0  2.273335  0
O  O61  1  0.00802439  0.42785221  0.68596938  1  0  -0.666644  0  2.070143  0  0  -0.598074  0  2.298921  0  0  -0.625146  0  2.288617  0  0  -0.307202  -0.579127  0  2.305146  0
O  O62  1  0.16194609  0.44571802  0.84011469  1  0  -0.629818  0  2.013794  0  0  -0.555365  0  2.259681  0  0  -0.584554  0  2.249911  0  0  -0.301396  -0.535059  0  2.265699  0
O  O63  1  0.21752502  0.00264515  0.83286104  1  0  -0.587887  0  1.941614  0  0  -0.538903  0  2.157171  0  0  -0.560191  0  2.148042  0  0  -0.311346  -0.523871  0  2.163574  0
O  O64  1  0.53998675  0.69468676  0.49291993  1  0  -0.642123  0  1.994193  0  0  -0.578407  0  2.202081  0  0  -0.603624  0  2.189505  0  0  -0.316242  -0.560596  0  2.210107  0
O  O65  1  0.65632342  0.51875009  0.31929307  1  0  -0.648917  0  2.072471  0  0  -0.581321  0  2.338605  0  0  -0.610755  0  2.327294  0  0  -0.318745  -0.561675  0  2.34585  0
O  O66  1  0.09859230  0.72221935  0.49457077  1  0  -0.8537  0  1.925398  0  0  -0.787746  0  2.138517  0  0  -0.813201  0  2.102961  0  0  -0.585123  -0.769619  0  2.163673  0
O  O67  1  0.32428948  0.71862809  0.71876230  1  0  -0.849193  0  1.878065  0  0  -0.781145  0  2.084331  0  0  -0.804298  0  2.046789  0  0  -0.575517  -0.764853  0  2.1114  0
O  O68  1  0.34742718  0.41727062  0.55832894  1  0  -0.802778  0  1.835623  0  0  -0.747907  0  2.019355  0  0  -0.767243  0  1.991015  0  0  -0.562743  -0.734109  0  2.040138  0
O  O69  1  0.00212673  0.18978748  0.51648755  1  0  -0.813444  0  1.879437  0  0  -0.750885  0  2.069993  0  0  -0.773413  0  2.037724  0  0  -0.57369  -0.735216  0  2.092763  0
O  O70  1  0.72324533  0.17624257  0.37914917  1  0  -0.81893  0  1.878166  0  0  -0.756156  0  2.084332  0  0  -0.776523  0  2.04737  0  0  -0.561132  -0.742135  0  2.109296  0
O  O71  1  0.71763501  0.44731346  0.61682625  1  0  -0.843252  0  1.913608  0  0  -0.781628  0  2.113706  0  0  -0.80457  0  2.07765  0  0  -0.579781  -0.765627  0  2.139379  0
