# generated using pymatgen
data_Zn2H21C33(NO2)5
_symmetry_space_group_name_H-M   'P 1'
_cell_length_a   9.69100287
_cell_length_b   12.66256029
_cell_length_c   14.27385561
_cell_angle_alpha   114.66450698
_cell_angle_beta   90.73434905
_cell_angle_gamma   109.10065230
_symmetry_Int_Tables_number   1
_chemical_formula_structural   Zn2H21C33(NO2)5
_chemical_formula_sum   'Zn4 H42 C66 N10 O20'
_cell_volume   1481.21878131
_cell_formula_units_Z   2
loop_
 _symmetry_equiv_pos_site_id
 _symmetry_equiv_pos_as_xyz
  1  'x, y, z'
loop_
 _atom_site_type_symbol
 _atom_site_label
 _atom_site_symmetry_multiplicity
 _atom_site_fract_x
 _atom_site_fract_y
 _atom_site_fract_z
 _atom_site_occupancy
 _atom_site_hle17_bader_spin_density
 _atom_site_hle17_ddec_charge
 _atom_site_hle17_ddec_spin_density
 _atom_site_hle17_ddec_sum_bond_order
 _atom_site_hle17_magmom
 _atom_site_hse06_10hf_bader_spin_density
 _atom_site_hse06_10hf_ddec_charge
 _atom_site_hse06_10hf_ddec_spin_density
 _atom_site_hse06_10hf_ddec_sum_bond_order
 _atom_site_hse06_10hf_magmom
 _atom_site_hse06_bader_spin_density
 _atom_site_hse06_ddec_charge
 _atom_site_hse06_ddec_spin_density
 _atom_site_hse06_ddec_sum_bond_order
 _atom_site_hse06_magmom
 _atom_site_pbe_bader_spin_density
 _atom_site_pbe_cm5_charge
 _atom_site_pbe_ddec_charge
 _atom_site_pbe_ddec_spin_density
 _atom_site_pbe_ddec_sum_bond_order
 _atom_site_pbe_magmom
Zn  Zn0  1  0.62216056  0.59258240  0.35888784  1  0  1.07976  0  1.75312  0  0  0.892254  0  2.205424  0  0  0.941221  0  2.150216  0  0  0.691526  0.857579  0  2.243611  0
Zn  Zn1  1  0.37784029  0.40741778  0.64110933  1  0  1.079814  0  1.753108  0  0  0.892294  0  2.205429  0  0  0.941259  0  2.150221  0  0  0.691537  0.857624  0  2.243621  0
Zn  Zn2  1  0.87880371  0.86544420  0.44032777  1  0  1.147104  0  1.811047  0  0  0.975429  0  2.27726  0  0  1.025568  0  2.213755  0  0  0.682112  0.939733  0  2.321416  0
Zn  Zn3  1  0.12119287  0.13455594  0.55967420  1  0  1.147079  0  1.811168  0  0  0.97539  0  2.277386  0  0  1.025523  0  2.213892  0  0  0.682117  0.939693  0  2.321565  0
H  H4  1  0.67989737  0.03960077  0.45716245  1  0  0.396451  0  0.876526  0  0  0.368864  0  0.949339  0  0  0.380622  0  0.936743  0  0  0.307464  0.360569  0  0.958077  0
H  H5  1  0.32010487  0.96040034  0.54283649  1  0  0.396503  0  0.876488  0  0  0.368932  0  0.949267  0  0  0.380688  0  0.936672  0  0  0.307497  0.360632  0  0.958012  0
H  H6  1  0.35850227  0.58108135  0.39209825  1  0  0.429385  0  0.86836  0  0  0.397032  0  0.933183  0  0  0.407793  0  0.917664  0  0  0.297515  0.38938  0  0.944217  0
H  H7  1  0.64150034  0.41892069  0.60790244  1  0  0.429378  0  0.868366  0  0  0.397025  0  0.93319  0  0  0.407786  0  0.917673  0  0  0.29751  0.389374  0  0.944222  0
H  H8  1  0.39099316  0.47974823  0.41864637  1  0  0.438258  0  0.866638  0  0  0.405738  0  0.933057  0  0  0.416713  0  0.917129  0  0  0.293981  0.397991  0  0.944276  0
H  H9  1  0.60900805  0.52025288  0.58135255  1  0  0.438265  0  0.866628  0  0  0.405746  0  0.933041  0  0  0.416724  0  0.917111  0  0  0.29399  0.398  0  0.94426  0
H  H10  1  0.15573958  0.15074598  0.75740227  1  0  0.114807  0  0.972709  0  0  0.126523  0  1.029992  0  0  0.130252  0  1.028652  0  0  0.101007  0.123826  0  1.030996  0
H  H11  1  0.84426073  0.84925324  0.24259944  1  0  0.114786  0  0.972766  0  0  0.12651  0  1.030037  0  0  0.130245  0  1.02869  0  0  0.101001  0.123811  0  1.031039  0
H  H12  1  0.15105095  0.14390254  0.92916543  1  0  0.087638  0  0.988762  0  0  0.092822  0  1.063194  0  0  0.095784  0  1.060332  0  0  0.098137  0.090593  0  1.065418  0
H  H13  1  0.84894751  0.85609480  0.07083625  1  0  0.087613  0  0.988748  0  0  0.092786  0  1.063194  0  0  0.095748  0  1.060333  0  0  0.098126  0.090557  0  1.065431  0
H  H14  1  0.81187454  0.77864397  0.77999008  1  0  0.106358  0  0.963031  0  0  0.112155  0  1.032073  0  0  0.116576  0  1.027621  0  0  0.103516  0.109044  0  1.035126  0
H  H15  1  0.18812166  0.22135524  0.22001084  1  0  0.106331  0  0.963023  0  0  0.112159  0  1.032041  0  0  0.116582  0  1.027587  0  0  0.103494  0.109046  0  1.035088  0
H  H16  1  0.44834097  0.14840444  0.35719834  1  0  0.126104  0  0.93037  0  0  0.138468  0  0.98308  0  0  0.142049  0  0.982162  0  0  0.108334  0.135854  0  0.984008  0
H  H17  1  0.55166087  0.85159573  0.64280025  1  0  0.126117  0  0.930356  0  0  0.138481  0  0.983058  0  0  0.142063  0  0.982139  0  0  0.108339  0.135865  0  0.983983  0
H  H18  1  0.35836065  0.69323238  0.19000817  1  0  0.102918  0  0.968709  0  0  0.105929  0  1.046969  0  0  0.109708  0  1.042595  0  0  0.103656  0.10327  0  1.049995  0
H  H19  1  0.64163701  0.30676777  0.80999243  1  0  0.102892  0  0.968742  0  0  0.105907  0  1.046981  0  0  0.109683  0  1.042619  0  0  0.103636  0.103246  0  1.050009  0
H  H20  1  0.84862573  0.18085264  0.29560167  1  0  0.103057  0  0.950706  0  0  0.112483  0  1.013331  0  0  0.114019  0  1.013891  0  0  0.110624  0.111365  0  1.012916  0
H  H21  1  0.15138188  0.81915129  0.70439702  1  0  0.103062  0  0.950683  0  0  0.112489  0  1.013314  0  0  0.114025  0  1.013875  0  0  0.110634  0.111369  0  1.012892  0
H  H22  1  0.34876488  0.37166857  0.96385035  1  0  0.111931  0  0.9324  0  0  0.127384  0  0.980305  0  0  0.130023  0  0.980755  0  0  0.114259  0.12541  0  0.980299  0
H  H23  1  0.65123251  0.62832601  0.03614468  1  0  0.111944  0  0.932395  0  0  0.1274  0  0.980287  0  0  0.130039  0  0.980737  0  0  0.114279  0.125427  0  0.980281  0
H  H24  1  0.91105263  0.36211280  0.47296436  1  0  0.110011  0  0.956295  0  0  0.117807  0  1.01895  0  0  0.121083  0  1.018141  0  0  0.110948  0.115459  0  1.019711  0
H  H25  1  0.08895149  0.63789018  0.52703391  1  0  0.109965  0  0.956363  0  0  0.117781  0  1.018987  0  0  0.121058  0  1.018178  0  0  0.110926  0.115432  0  1.019744  0
H  H26  1  0.56612875  0.07977342  0.96877984  1  0  0.098896  0  0.960034  0  0  0.110039  0  1.021314  0  0  0.112039  0  1.022159  0  0  0.106567  0.108616  0  1.020811  0
H  H27  1  0.43387117  0.92022487  0.03122082  1  0  0.098883  0  0.96003  0  0  0.110011  0  1.021336  0  0  0.112011  0  1.022184  0  0  0.106568  0.108602  0  1.020817  0
H  H28  1  0.43668715  0.54408464  0.14751334  1  0  0.086327  0  0.956546  0  0  0.0924  0  1.025199  0  0  0.095194  0  1.022233  0  0  0.119027  0.090065  0  1.028137  0
H  H29  1  0.56331398  0.45591369  0.85248105  1  0  0.086402  0  0.956563  0  0  0.09249  0  1.025181  0  0  0.095285  0  1.022214  0  0  0.119098  0.090157  0  1.028117  0
H  H30  1  0.72371181  0.07942432  0.10661449  1  0  0.105062  0  0.936482  0  0  0.118567  0  0.991558  0  0  0.120513  0  0.991916  0  0  0.109151  0.117223  0  0.99126  0
H  H31  1  0.27628856  0.92057491  0.89338512  1  0  0.105089  0  0.936474  0  0  0.118589  0  0.99155  0  0  0.120535  0  0.991909  0  0  0.109166  0.117246  0  0.991245  0
H  H32  1  0.82150331  0.53560976  0.50036703  1  0  0.07716  0  0.960065  0  0  0.085985  0  1.024412  0  0  0.088158  0  1.022298  0  0  0.119447  0.08435  0  1.025958  0
H  H33  1  0.17849585  0.46439134  0.49963115  1  0  0.077163  0  0.960001  0  0  0.085953  0  1.024394  0  0  0.088127  0  1.022279  0  0  0.119431  0.084319  0  1.025936  0
H  H34  1  0.24991004  0.99924084  0.19895439  1  0  0.09562  0  0.986116  0  0  0.103945  0  1.052003  0  0  0.105415  0  1.052284  0  0  0.100911  0.102987  0  1.051434  0
H  H35  1  0.75008903  0.00076024  0.80104728  1  0  0.095631  0  0.986096  0  0  0.103942  0  1.051999  0  0  0.105411  0  1.052281  0  0  0.100899  0.102983  0  1.051438  0
H  H36  1  0.42244331  0.18515223  0.91432483  1  0  0.103147  0  0.933976  0  0  0.115934  0  0.990837  0  0  0.118148  0  0.990368  0  0  0.112781  0.1145  0  0.990965  0
H  H37  1  0.57755361  0.81484140  0.08567265  1  0  0.103169  0  0.933931  0  0  0.115951  0  0.990804  0  0  0.118163  0  0.990338  0  0  0.112813  0.114525  0  0.990926  0
H  H38  1  0.79919639  0.60931251  0.80282069  1  0  0.110513  0  0.954492  0  0  0.122279  0  1.012055  0  0  0.12569  0  1.010872  0  0  0.103538  0.119732  0  1.013369  0
H  H39  1  0.20080948  0.39069233  0.19718180  1  0  0.110557  0  0.954394  0  0  0.122316  0  1.011965  0  0  0.125733  0  1.010773  0  0  0.103532  0.119766  0  1.013277  0
H  H40  1  0.82112433  0.31846791  0.61378722  1  0  0.391082  0  0.894072  0  0  0.358824  0  0.974319  0  0  0.371769  0  0.96101  0  0  0.300215  0.349922  0  0.983112  0
H  H41  1  0.17888055  0.68153694  0.38621316  1  0  0.391105  0  0.894073  0  0  0.3588  0  0.974406  0  0  0.371743  0  0.961098  0  0  0.300201  0.349899  0  0.983201  0
H  H42  1  0.97116329  0.72816297  0.97489506  1  0  0.102155  0  0.975234  0  0  0.102686  0  1.054248  0  0  0.106195  0  1.050422  0  0  0.102858  0.099893  0  1.057601  0
H  H43  1  0.02884131  0.27183905  0.02510847  1  0  0.102201  0  0.975267  0  0  0.102729  0  1.054283  0  0  0.106239  0  1.050457  0  0  0.102829  0.099913  0  1.057656  0
H  H44  1  0.17156769  0.45080095  0.88051781  1  0  0.107848  0  0.934152  0  0  0.116505  0  1.000289  0  0  0.120373  0  0.996753  0  0  0.106171  0.114147  0  1.002028  0
H  H45  1  0.82843117  0.54919733  0.11948423  1  0  0.107876  0  0.934146  0  0  0.116519  0  1.000288  0  0  0.12039  0  0.996749  0  0  0.106172  0.114161  0  1.00203  0
C  C46  1  0.98611420  0.96837162  0.66990442  1  0  0.396961  0  3.7938  0  0  0.375561  0  4.048731  0  0  0.395751  0  4.062189  0  0  0.100805  0.36196  0  4.039027  0
C  C47  1  0.01388404  0.03162760  0.33009725  1  0  0.396976  0  3.793807  0  0  0.375595  0  4.048727  0  0  0.395787  0  4.062189  0  0  0.100808  0.361996  0  4.039029  0
C  C48  1  0.77803551  0.74591798  0.58885212  1  0  0.696998  0  3.841675  0  0  0.642407  0  4.135784  0  0  0.678718  0  4.126408  0  0  0.21749  0.617694  0  4.14159  0
C  C49  1  0.22196196  0.25407937  0.41114744  1  0  0.696977  0  3.841594  0  0  0.642376  0  4.135729  0  0  0.678688  0  4.126354  0  0  0.217472  0.61767  0  4.14153  0
C  C50  1  0.08322700  0.06803494  0.76296500  1  0  -0.195942  0  3.728152  0  0  -0.214284  0  3.981228  0  0  -0.224264  0  4.001619  0  0  -0.110237  -0.207425  0  3.966588  0
C  C51  1  0.91677290  0.93196334  0.23703636  1  0  -0.196032  0  3.728261  0  0  -0.214388  0  3.981327  0  0  -0.224376  0  4.001717  0  0  -0.110282  -0.207521  0  3.966684  0
C  C52  1  0.88855619  0.85971359  0.67625371  1  0  -0.226772  0  3.728409  0  0  -0.207284  0  3.97051  0  0  -0.223403  0  3.993423  0  0  -0.043009  -0.196887  0  3.955131  0
C  C53  1  0.11144312  0.14028564  0.32374658  1  0  -0.226627  0  3.728326  0  0  -0.207168  0  3.970451  0  0  -0.223289  0  3.993368  0  0  -0.042975  -0.196784  0  3.955094  0
C  C54  1  0.08002183  0.06530253  0.85807606  1  0  -0.095863  0  3.774945  0  0  -0.120091  0  4.030534  0  0  -0.116718  0  4.049476  0  0  -0.086487  -0.122071  0  4.017542  0
C  C55  1  0.91997665  0.93469482  0.14192493  1  0  -0.095704  0  3.774902  0  0  -0.119923  0  4.030466  0  0  -0.116552  0  4.049413  0  0  -0.086401  -0.121912  0  4.017486  0
C  C56  1  0.88940833  0.85946172  0.77444976  1  0  -0.10984  0  3.750561  0  0  -0.14321  0  4.003143  0  0  -0.139334  0  4.021552  0  0  -0.081697  -0.145475  0  3.990779  0
C  C57  1  0.11058850  0.14053656  0.22555083  1  0  -0.109891  0  3.750495  0  0  -0.143281  0  4.003063  0  0  -0.139411  0  4.021474  0  0  -0.081636  -0.145535  0  3.990683  0
C  C58  1  0.98014425  0.96011302  0.86549023  1  0  0.120343  0  3.890135  0  0  0.125033  0  4.147877  0  0  0.119765  0  4.173585  0  0  0.066343  0.128112  0  4.130932  0
C  C59  1  0.01985317  0.03988432  0.13451143  1  0  0.120298  0  3.89011  0  0  0.125004  0  4.147822  0  0  0.119737  0  4.17353  0  0  0.066241  0.128083  0  4.130869  0
C  C60  1  0.42776024  0.04870585  0.31944489  1  0  -0.187129  0  3.721421  0  0  -0.207759  0  3.978631  0  0  -0.216766  0  3.997973  0  0  -0.106246  -0.202062  0  3.965664  0
C  C61  1  0.57224200  0.95129526  0.68055405  1  0  -0.187163  0  3.721397  0  0  -0.207783  0  3.978589  0  0  -0.216791  0  3.997928  0  0  -0.106246  -0.202076  0  3.965608  0
C  C62  1  0.51721880  0.00454718  0.36025048  1  0  0.35452  0  3.774496  0  0  0.33616  0  4.039726  0  0  0.353169  0  4.05365  0  0  0.100375  0.324885  0  4.029999  0
C  C63  1  0.48278243  0.99545393  0.63974774  1  0  0.354576  0  3.774409  0  0  0.336231  0  4.039627  0  0  0.353243  0  4.053547  0  0  0.100377  0.324952  0  4.029894  0
C  C64  1  0.58522053  0.82494630  0.35307974  1  0  0.685659  0  3.857518  0  0  0.628967  0  4.149183  0  0  0.666066  0  4.140182  0  0  0.217376  0.60391  0  4.154248  0
C  C65  1  0.41477752  0.17505478  0.64692122  1  0  0.685697  0  3.857397  0  0  0.628984  0  4.149107  0  0  0.666085  0  4.140098  0  0  0.217338  0.603924  0  4.154179  0
C  C66  1  0.49064117  0.87386951  0.31321468  1  0  -0.21619  0  3.763763  0  0  -0.198194  0  4.009117  0  0  -0.213889  0  4.032192  0  0  -0.038509  -0.188043  0  3.993208  0
C  C67  1  0.50935897  0.12613159  0.68678562  1  0  -0.216267  0  3.763824  0  0  -0.198296  0  4.00923  0  0  -0.213997  0  4.032308  0  0  -0.038541  -0.188144  0  3.993319  0
C  C68  1  0.37848053  0.79263182  0.22609518  1  0  -0.090132  0  3.715407  0  0  -0.126034  0  3.972479  0  0  -0.12111  0  3.991157  0  0  -0.077843  -0.129129  0  3.959994  0
C  C69  1  0.62151957  0.20736927  0.77390652  1  0  -0.090121  0  3.715456  0  0  -0.126026  0  3.972525  0  0  -0.121101  0  3.991202  0  0  -0.077852  -0.129115  0  3.960032  0
C  C70  1  0.01348679  0.30884233  0.68212451  1  0  0.656118  0  3.884269  0  0  0.60459  0  4.176509  0  0  0.639426  0  4.169866  0  0  0.203652  0.580945  0  4.180488  0
C  C71  1  0.98651375  0.69115970  0.31787614  1  0  0.656092  0  3.884324  0  0  0.604585  0  4.176549  0  0  0.63942  0  4.169908  0  0  0.203663  0.580931  0  4.180537  0
C  C72  1  0.81026943  0.25733421  0.31012330  1  0  -0.020434  0  3.651827  0  0  -0.045287  0  3.897165  0  0  -0.041497  0  3.914568  0  0  -0.050442  -0.047519  0  3.885161  0
C  C73  1  0.18973427  0.74266784  0.68987532  1  0  -0.02045  0  3.651862  0  0  -0.045322  0  3.897216  0  0  -0.041532  0  3.914619  0  0  -0.050498  -0.047552  0  3.885198  0
C  C74  1  0.41592285  0.36372347  0.02058466  1  0  -0.121438  0  3.726384  0  0  -0.133722  0  3.980802  0  0  -0.142237  0  4.00344  0  0  -0.07811  -0.127646  0  3.965696  0
C  C75  1  0.58407531  0.63627296  0.97941248  1  0  -0.121349  0  3.726241  0  0  -0.133621  0  3.980639  0  0  -0.142134  0  4.003279  0  0  -0.078069  -0.127545  0  3.965538  0
C  C76  1  0.84609371  0.35804237  0.40796373  1  0  -0.102581  0  3.696946  0  0  -0.117803  0  3.954102  0  0  -0.12417  0  3.972403  0  0  -0.076701  -0.113929  0  3.94188  0
C  C77  1  0.15390895  0.64195968  0.59203487  1  0  -0.102558  0  3.697064  0  0  -0.117785  0  3.95422  0  0  -0.124153  0  3.972519  0  0  -0.076654  -0.113911  0  3.941991  0
C  C78  1  0.59453046  0.15451898  0.04831324  1  0  -0.0887  0  3.738026  0  0  -0.112279  0  3.990763  0  0  -0.115766  0  4.014058  0  0  -0.079436  -0.11  0  3.974701  0
C  C79  1  0.40546910  0.84547838  0.95168567  1  0  -0.088631  0  3.737982  0  0  -0.112209  0  3.990718  0  0  -0.115697  0  4.014014  0  0  -0.079382  -0.10994  0  3.974654  0
C  C80  1  0.46366511  0.46053838  0.12325785  1  0  0.148831  0  3.691412  0  0  0.114592  0  3.950732  0  0  0.123239  0  3.96718  0  0  0.060874  0.108697  0  3.939946  0
C  C81  1  0.53633517  0.53945807  0.87673724  1  0  0.148767  0  3.691438  0  0  0.114497  0  3.950776  0  0  0.123145  0  3.967225  0  0  0.060808  0.108602  0  3.939995  0
C  C82  1  0.68152044  0.15443868  0.12428962  1  0  -0.086844  0  3.713863  0  0  -0.109335  0  3.966069  0  0  -0.111967  0  3.988739  0  0  -0.075528  -0.10684  0  3.950592  0
C  C83  1  0.31847994  0.84556055  0.87570930  1  0  -0.086866  0  3.713919  0  0  -0.10936  0  3.96612  0  0  -0.111992  0  3.98879  0  0  -0.075545  -0.106865  0  3.950636  0
C  C84  1  0.79528104  0.45524390  0.42407392  1  0  0.161602  0  3.674366  0  0  0.124898  0  3.934571  0  0  0.134971  0  3.949155  0  0  0.061149  0.118439  0  3.924784  0
C  C85  1  0.20471918  0.54475721  0.57592358  1  0  0.161733  0  3.674121  0  0  0.125053  0  3.934332  0  0  0.135127  0  3.948913  0  0  0.061228  0.118593  0  3.924538  0
C  C86  1  0.31807917  0.96634892  0.23286758  1  0  -0.077511  0  3.730917  0  0  -0.101963  0  3.983389  0  0  -0.09847  0  4.003609  0  0  -0.077867  -0.103676  0  3.968948  0
C  C87  1  0.68192095  0.03365217  0.76713342  1  0  -0.077493  0  3.730938  0  0  -0.101951  0  3.9834  0  0  -0.098457  0  4.003619  0  0  -0.077863  -0.103671  0  3.968964  0
C  C88  1  0.45584224  0.26082071  0.99374474  1  0  -0.024878  0  3.666055  0  0  -0.052335  0  3.91832  0  0  -0.048946  0  3.93545  0  0  -0.052304  -0.055021  0  3.906573  0
C  C89  1  0.54415447  0.73917478  0.00625273  1  0  -0.024963  0  3.665944  0  0  -0.052422  0  3.918202  0  0  -0.049035  0  3.935332  0  0  -0.052343  -0.055113  0  3.906472  0
C  C90  1  0.58415344  0.35590699  0.17184667  1  0  0.136451  0  3.752673  0  0  0.13042  0  3.985789  0  0  0.134699  0  4.007847  0  0  0.122292  0.127559  0  3.97089  0
C  C91  1  0.41584696  0.64409225  0.82815155  1  0  0.136574  0  3.752629  0  0  0.13055  0  3.985735  0  0  0.134833  0  4.007793  0  0  0.122347  0.127693  0  3.970837  0
C  C92  1  0.54282377  0.25455622  0.07003122  1  0  0.032045  0  3.780234  0  0  0.047484  0  4.011308  0  0  0.044659  0  4.035597  0  0  0.003835  0.050274  0  3.994514  0
C  C93  1  0.45717542  0.74544021  0.92996594  1  0  0.032029  0  3.78023  0  0  0.047492  0  4.011261  0  0  0.044669  0  4.035549  0  0  0.003764  0.050281  0  3.994481  0
C  C94  1  0.72241265  0.25386668  0.22849358  1  0  0.030921  0  3.782618  0  0  0.048094  0  4.011979  0  0  0.04483  0  4.037214  0  0  0.005675  0.049946  0  3.995282  0
C  C95  1  0.27758752  0.74613442  0.77150532  1  0  0.03085  0  3.782671  0  0  0.048072  0  4.011997  0  0  0.044808  0  4.037231  0  0  0.005656  0.049921  0  3.995297  0
C  C96  1  0.29296127  0.83762130  0.18377779  1  0  0.119723  0  3.848277  0  0  0.12427  0  4.107103  0  0  0.118776  0  4.132374  0  0  0.068605  0.127567  0  4.090192  0
C  C97  1  0.70703780  0.16237978  0.81622389  1  0  0.119722  0  3.848298  0  0  0.124316  0  4.107051  0  0  0.118822  0  4.132319  0  0  0.068641  0.127616  0  4.090136  0
C  C98  1  0.67431674  0.35534062  0.25239561  1  0  0.138768  0  3.745245  0  0  0.132289  0  3.978201  0  0  0.13617  0  4.001239  0  0  0.123107  0.12974  0  3.963067  0
C  C99  1  0.32568407  0.64465955  0.74760296  1  0  0.138784  0  3.745179  0  0  0.132253  0  3.978181  0  0  0.136135  0  4.001216  0  0  0.123115  0.129704  0  3.963044  0
C  C100  1  0.99683429  0.41947281  0.76639181  1  0  -0.210784  0  3.780904  0  0  -0.194381  0  4.027897  0  0  -0.209572  0  4.052955  0  0  -0.041844  -0.184447  0  4.010941  0
C  C101  1  0.00316580  0.58052828  0.23361059  1  0  -0.210729  0  3.780848  0  0  -0.19435  0  4.027864  0  0  -0.209544  0  4.052926  0  0  -0.041823  -0.18441  0  4.01091  0
C  C102  1  0.88802225  0.46291478  0.74553438  1  0  0.346201  0  3.784395  0  0  0.326563  0  4.045862  0  0  0.341893  0  4.061813  0  0  0.094681  0.316186  0  4.034471  0
C  C103  1  0.11198007  0.53708911  0.25446909  1  0  0.346232  0  3.784332  0  0  0.326613  0  4.045796  0  0  0.341943  0  4.061747  0  0  0.094653  0.316228  0  4.034413  0
C  C104  1  0.88010758  0.57491311  0.82118783  1  0  -0.192625  0  3.746244  0  0  -0.210415  0  4.001452  0  0  -0.220021  0  4.02301  0  0  -0.105583  -0.204026  0  3.987915  0
C  C105  1  0.11989618  0.42509172  0.17881602  1  0  -0.192716  0  3.746266  0  0  -0.210493  0  4.001473  0  0  -0.220101  0  4.023021  0  0  -0.105579  -0.204096  0  3.987918  0
C  C106  1  0.97478673  0.64020198  0.91664948  1  0  -0.07874  0  3.712136  0  0  -0.101923  0  3.963154  0  0  -0.099092  0  3.982868  0  0  -0.077289  -0.10415  0  3.951794  0
C  C107  1  0.02521436  0.35979910  0.08335364  1  0  -0.078833  0  3.712338  0  0  -0.102034  0  3.963329  0  0  -0.099204  0  3.983045  0  0  -0.077295  -0.10424  0  3.951993  0
C  C108  1  0.07981674  0.59527751  0.94003659  1  0  0.126003  0  3.833769  0  0  0.131666  0  4.091042  0  0  0.127321  0  4.117079  0  0  0.071861  0.133707  0  4.074868  0
C  C109  1  0.92018356  0.40472170  0.05996582  1  0  0.126114  0  3.833913  0  0  0.131782  0  4.091161  0  0  0.127441  0  4.1172  0  0  0.071917  0.133814  0  4.074995  0
C  C110  1  0.08929383  0.48519896  0.86417645  1  0  -0.077219  0  3.693788  0  0  -0.116087  0  3.955267  0  0  -0.112603  0  3.974003  0  0  -0.074121  -0.117933  0  3.942445  0
C  C111  1  0.91070543  0.51480025  0.13582594  1  0  -0.077318  0  3.693819  0  0  -0.11615  0  3.955283  0  0  -0.112666  0  3.974018  0  0  -0.074144  -0.117994  0  3.942467  0
N  N112  1  0.96146011  0.95083445  0.95900528  1  0  -0.181866  0  3.049307  0  0  -0.157486  0  3.334595  0  0  -0.155304  0  3.341597  0  0  -0.174916  -0.158799  0  3.330173  0
N  N113  1  0.03853567  0.04916382  0.04099599  1  0  -0.181818  0  3.049224  0  0  -0.15743  0  3.334495  0  0  -0.155247  0  3.341497  0  0  -0.174873  -0.158738  0  3.330063  0
N  N114  1  0.18609953  0.76735431  0.09207217  1  0  -0.159851  0  3.049815  0  0  -0.135638  0  3.337725  0  0  -0.133544  0  3.347087  0  0  -0.160834  -0.13699  0  3.331429  0
N  N115  1  0.81390015  0.23264584  0.90792987  1  0  -0.159847  0  3.049782  0  0  -0.135648  0  3.337681  0  0  -0.133555  0  3.347046  0  0  -0.160842  -0.137  0  3.331388  0
N  N116  1  0.54495996  0.45651768  0.19680081  1  0  -0.349852  0  3.265813  0  0  -0.279613  0  3.53552  0  0  -0.297253  0  3.549762  0  0  -0.313661  -0.267701  0  3.525038  0
N  N117  1  0.45504113  0.54348064  0.80319498  1  0  -0.350024  0  3.265965  0  0  -0.279768  0  3.535668  0  0  -0.297417  0  3.549918  0  0  -0.313712  -0.267856  0  3.525188  0
N  N118  1  0.71165939  0.45426662  0.34862416  1  0  -0.356013  0  3.256848  0  0  -0.28483  0  3.530552  0  0  -0.303983  0  3.545755  0  0  -0.313798  -0.271974  0  3.520083  0
N  N119  1  0.28834144  0.54573356  0.65137371  1  0  -0.356125  0  3.256549  0  0  -0.284938  0  3.530279  0  0  -0.304091  0  3.545479  0  0  -0.313869  -0.272083  0  3.519814  0
N  N120  1  0.18283816  0.65790388  0.03431087  1  0  -0.180962  0  3.029329  0  0  -0.160805  0  3.321555  0  0  -0.160169  0  3.33165  0  0  -0.165987  -0.160867  0  3.314972  0
N  N121  1  0.81716110  0.34209533  0.96569152  1  0  -0.180966  0  3.029416  0  0  -0.16081  0  3.321644  0  0  -0.160179  0  3.331746  0  0  -0.165985  -0.160875  0  3.315073  0
O  O122  1  0.99000551  0.98360404  0.58403015  1  0  -0.650301  0  2.23662  0  0  -0.559265  0  2.531976  0  0  -0.59156  0  2.517136  0  0  -0.329701  -0.536569  0  2.541438  0
O  O123  1  0.00999210  0.01639610  0.41597185  1  0  -0.650388  0  2.236714  0  0  -0.559332  0  2.532051  0  0  -0.591612  0  2.517176  0  0  -0.329716  -0.536636  0  2.541515  0
O  O124  1  0.69303706  0.66355214  0.61031578  1  0  -0.616629  0  1.988175  0  0  -0.563971  0  2.214675  0  0  -0.587366  0  2.202918  0  0  -0.314597  -0.547747  0  2.222252  0
O  O125  1  0.30696324  0.33644707  0.38968663  1  0  -0.616655  0  1.988068  0  0  -0.563999  0  2.214587  0  0  -0.587393  0  2.202826  0  0  -0.314589  -0.54777  0  2.222158  0
O  O126  1  0.77435216  0.73413145  0.49337354  1  0  -0.698968  0  2.193893  0  0  -0.608184  0  2.488045  0  0  -0.639729  0  2.468592  0  0  -0.32353  -0.586073  0  2.500744  0
O  O127  1  0.22564796  0.26586964  0.50662746  1  0  -0.69895  0  2.19385  0  0  -0.608134  0  2.487964  0  0  -0.639679  0  2.468511  0  0  -0.323526  -0.586042  0  2.500698  0
O  O128  1  0.62518327  0.08820466  0.44251650  1  0  -0.490144  0  2.082125  0  0  -0.44283  0  2.292657  0  0  -0.463901  0  2.284365  0  0  -0.338849  -0.427968  0  2.29743  0
O  O129  1  0.37482008  0.91179647  0.55747967  1  0  -0.490203  0  2.082065  0  0  -0.442907  0  2.292583  0  0  -0.463978  0  2.284288  0  0  -0.338872  -0.428049  0  2.297372  0
O  O130  1  0.55834997  0.70867872  0.31171522  1  0  -0.628978  0  2.078788  0  0  -0.555923  0  2.340936  0  0  -0.584527  0  2.327857  0  0  -0.308397  -0.536085  0  2.349543  0
O  O131  1  0.44165018  0.29132238  0.68828438  1  0  -0.628987  0  2.07869  0  0  -0.555927  0  2.340858  0  0  -0.584528  0  2.327774  0  0  -0.308371  -0.536092  0  2.34948  0
O  O132  1  0.69604315  0.90680827  0.42729284  1  0  -0.647285  0  2.097597  0  0  -0.570097  0  2.351825  0  0  -0.598005  0  2.33614  0  0  -0.308342  -0.550468  0  2.36173  0
O  O133  1  0.30395301  0.09319093  0.57270949  1  0  -0.647298  0  2.097675  0  0  -0.57009  0  2.351873  0  0  -0.597995  0  2.336185  0  0  -0.308309  -0.550463  0  2.361805  0
O  O134  1  0.91676847  0.24447713  0.59834936  1  0  -0.593059  0  1.942842  0  0  -0.540543  0  2.164393  0  0  -0.563311  0  2.153568  0  0  -0.307945  -0.524862  0  2.171133  0
O  O135  1  0.08323438  0.75552772  0.40164957  1  0  -0.593082  0  1.942908  0  0  -0.540553  0  2.164475  0  0  -0.56332  0  2.15365  0  0  -0.307997  -0.524869  0  2.171215  0
O  O136  1  0.12863643  0.28300773  0.69417546  1  0  -0.660706  0  2.073042  0  0  -0.588544  0  2.344709  0  0  -0.617248  0  2.328925  0  0  -0.319059  -0.568178  0  2.354372  0
O  O137  1  0.87135889  0.71698960  0.30582756  1  0  -0.66065  0  2.072935  0  0  -0.588529  0  2.344649  0  0  -0.617228  0  2.328849  0  0  -0.319011  -0.568162  0  2.354308  0
O  O138  1  0.43717577  0.56582908  0.42377416  1  0  -0.829102  0  1.920292  0  0  -0.764423  0  2.137991  0  0  -0.786773  0  2.101707  0  0  -0.578869  -0.748627  0  2.163201  0
O  O139  1  0.56282545  0.43417203  0.57622407  1  0  -0.829076  0  1.920273  0  0  -0.764404  0  2.137993  0  0  -0.786743  0  2.101681  0  0  -0.578853  -0.748606  0  2.163206  0
O  O140  1  0.79402342  0.39804698  0.65306647  1  0  -0.535431  0  2.150438  0  0  -0.468545  0  2.360382  0  0  -0.491911  0  2.351839  0  0  -0.330166  -0.451972  0  2.365492  0
O  O141  1  0.20597979  0.60195879  0.34693491  1  0  -0.535432  0  2.150409  0  0  -0.468532  0  2.360389  0  0  -0.491893  0  2.351846  0  0  -0.330135  -0.45196  0  2.365504  0
