# generated using pymatgen
data_LaH13C9O8
_symmetry_space_group_name_H-M   'P 1'
_cell_length_a   9.47432932
_cell_length_b   10.72835614
_cell_length_c   16.06394285
_cell_angle_alpha   75.94932344
_cell_angle_beta   83.42508153
_cell_angle_gamma   63.85239637
_symmetry_Int_Tables_number   1
_chemical_formula_structural   LaH13C9O8
_chemical_formula_sum   'La4 H52 C36 O32'
_cell_volume   1421.80006507
_cell_formula_units_Z   4
loop_
 _symmetry_equiv_pos_site_id
 _symmetry_equiv_pos_as_xyz
  1  'x, y, z'
loop_
 _atom_site_type_symbol
 _atom_site_label
 _atom_site_symmetry_multiplicity
 _atom_site_fract_x
 _atom_site_fract_y
 _atom_site_fract_z
 _atom_site_occupancy
 _atom_site_pbe_bader_charge
 _atom_site_pbe_bader_spin_density
 _atom_site_pbe_cm5_charge
 _atom_site_pbe_ddec_charge
 _atom_site_pbe_ddec_spin_density
 _atom_site_pbe_ddec_sum_bond_order
 _atom_site_pbe_magmom
La  La0  1  0.88634611  0.03188446  0.13025953  1  2.248527  0  1.370019  1.890122  0  2.340981  0
La  La1  1  0.11365569  0.96811668  0.86974065  1  2.248482  0  1.370037  1.890155  0  2.340938  0
La  La2  1  0.62768908  0.98187352  0.37390907  1  2.260837  0  1.394494  1.895741  0  2.312586  0
La  La3  1  0.37231100  0.01812446  0.62609238  1  2.260912  0  1.394499  1.895779  0  2.312508  0
H  H4  1  0.46130187  0.24429331  0.06348939  1  0.048901  0  0.100642  0.112944  0  1.016982  0
H  H5  1  0.53870254  0.75570672  0.93650830  1  0.04889  0  0.10066  0.112969  0  1.016907  0
H  H6  1  0.29664352  0.20564984  0.10658110  1  0.075356  0  0.09687  0.114557  0  1.023863  0
H  H7  1  0.70335982  0.79435020  0.89341667  1  0.075314  0  0.096853  0.114525  0  1.023855  0
H  H8  1  0.18657974  0.41509492  0.17233064  1  0.04092  0  0.09008  0.080463  0  1.041492  0
H  H9  1  0.81342524  0.58490616  0.82766621  1  0.040849  0  0.090098  0.080455  0  1.041474  0
H  H10  1  0.45654392  0.46871028  0.06997410  1  0.093697  0  0.101964  0.108975  0  1.015177  0
H  H11  1  0.54346000  0.53129081  0.93002345  1  0.093783  0  0.101969  0.108937  0  1.015129  0
H  H12  1  0.15605403  0.65316671  0.16323367  1  0.073747  0  0.105947  0.120087  0  1.013755  0
H  H13  1  0.84395253  0.34683331  0.83676573  1  0.073664  0  0.105925  0.120007  0  1.013781  0
H  H14  1  0.33628620  0.66367574  0.16053671  1  0.068232  0  0.111481  0.133896  0  0.956802  0
H  H15  1  0.66371977  0.33632322  0.83946167  1  0.068255  0  0.111457  0.133857  0  0.956782  0
H  H16  1  0.80382485  0.56188683  0.18884027  1  0.07372  0  0.105655  0.125553  0  0.96604  0
H  H17  1  0.19617177  0.43811858  0.81115771  1  0.073787  0  0.105697  0.125602  0  0.966  0
H  H18  1  0.98043259  0.52342355  0.23694277  1  0.049518  0  0.101155  0.113779  0  1.01433  0
H  H19  1  0.01956491  0.47657762  0.76305522  1  0.049475  0  0.101161  0.113778  0  1.014434  0
H  H20  1  0.86454858  0.48400992  0.38464446  1  0.070922  0  0.10195  0.10293  0  1.007285  0
H  H21  1  0.13545214  0.51599122  0.61535455  1  0.070856  0  0.101928  0.102892  0  1.007304  0
H  H22  1  0.61829516  0.48625046  0.27450412  1  0.059353  0  0.099203  0.096005  0  1.008432  0
H  H23  1  0.38169728  0.51375712  0.72549503  1  0.059375  0  0.099229  0.096043  0  1.008416  0
H  H24  1  0.51203102  0.44052841  0.42760235  1  0.086209  0  0.10493  0.122562  0  0.988331  0
H  H25  1  0.48796708  0.55947382  0.57239729  1  0.086157  0  0.104897  0.122488  0  0.988306  0
H  H26  1  0.70578361  0.36922176  0.46785861  1  0.072373  0  0.103617  0.123369  0  1.00321  0
H  H27  1  0.29421399  0.63078152  0.53213964  1  0.072335  0  0.103604  0.123328  0  1.003204  0
H  H28  1  0.04292385  0.77033807  0.43279674  1  0.091664  0  0.108722  0.131238  0  0.996857  0
H  H29  1  0.95706918  0.22965685  0.56720946  1  0.091704  0  0.10869  0.131222  0  0.997011  0
H  H30  1  0.21536703  0.79596075  0.39422339  1  0.070049  0  0.105292  0.126404  0  1.000168  0
H  H31  1  0.78463067  0.20403093  0.60578176  1  0.069948  0  0.105203  0.126368  0  1.000171  0
H  H32  1  0.29982274  0.59733490  0.31443805  1  0.037887  0  0.095228  0.091085  0  1.019898  0
H  H33  1  0.70016566  0.40266533  0.68556261  1  0.037801  0  0.095206  0.091148  0  1.019829  0
H  H34  1  0.06091390  0.53733019  0.44428283  1  0.082759  0  0.096952  0.097996  0  1.047629  0
H  H35  1  0.93909054  0.46265613  0.55572336  1  0.083361  0  0.096968  0.097999  0  1.047588  0
H  H36  1  0.15082756  0.35316800  0.34427089  1  0.05718  0  0.108268  0.126537  0  0.973698  0
H  H37  1  0.84917760  0.64682359  0.65573188  1  0.057583  0  0.108233  0.126504  0  0.973724  0
H  H38  1  0.33771526  0.35042597  0.33891139  1  0.097272  0  0.105426  0.121424  0  1.01757  0
H  H39  1  0.66228894  0.64956774  0.66109234  1  0.097298  0  0.105444  0.121446  0  1.017554  0
H  H40  1  0.73363701  0.88404681  0.08854532  1  0.653257  0  0.300907  0.382622  0  0.960177  0
H  H41  1  0.26636429  0.11595537  0.91145347  1  0.653407  0  0.300921  0.382634  0  0.960182  0
H  H42  1  0.59866234  0.02930076  0.04039196  1  0.62555  0  0.326518  0.405755  0  0.894285  0
H  H43  1  0.40134070  0.97070459  0.95960743  1  0.625723  0  0.326501  0.405743  0  0.894233  0
H  H44  1  0.92531344  0.23281249  0.22544022  1  0.604344  0  0.333168  0.409477  0  0.866966  0
H  H45  1  0.07468836  0.76718864  0.77455997  1  0.604372  0  0.333188  0.409514  0  0.866949  0
H  H46  1  0.75135360  0.25089485  0.24446073  1  0.655737  0  0.302357  0.394965  0  0.945556  0
H  H47  1  0.24864713  0.74910629  0.75553890  1  0.655709  0  0.302364  0.394964  0  0.945543  0
H  H48  1  0.02122639  0.25391277  0.05371298  1  0.613938  0  0.336474  0.408155  0  0.86397  0
H  H49  1  0.97877385  0.74608943  0.94628652  1  0.613959  0  0.33649  0.40816  0  0.863943  0
H  H50  1  0.16455669  0.10899685  0.04678865  1  0.644748  0  0.309776  0.414494  0  0.90738  0
H  H51  1  0.83544461  0.89100534  0.95321014  1  0.644758  0  0.309791  0.414503  0  0.907365  0
H  H52  1  0.39311430  0.84444332  0.44638474  1  0.657502  0  0.299157  0.392908  0  0.948492  0
H  H53  1  0.60688379  0.15555890  0.55361366  1  0.657493  0  0.299145  0.392858  0  0.948553  0
H  H54  1  0.51931632  0.75388488  0.38135589  1  0.593766  0  0.317035  0.393424  0  0.912256  0
H  H55  1  0.48068432  0.24611415  0.61864410  1  0.593772  0  0.317043  0.39339  0  0.912304  0
C  C56  1  0.47316150  0.14669261  0.19786422  1  1.553142  0  0.222977  0.671388  0  4.109961  0
C  C57  1  0.52683834  0.85331278  0.80213540  1  1.553109  0  0.222983  0.671337  0  4.10983  0
C  C58  1  0.38031965  0.24504387  0.11821556  1  -0.041852  0  -0.165977  -0.309662  0  3.982773  0
C  C59  1  0.61968015  0.75496149  0.88178032  1  -0.041765  0  -0.165989  -0.309611  0  3.982668  0
C  C60  1  0.29410058  0.39332172  0.13361466  1  -0.19921  0  -0.104179  -0.077926  0  3.986015  0
C  C61  1  0.70590235  0.60668150  0.86638198  1  -0.198641  0  -0.104168  -0.077931  0  3.986017  0
C  C62  1  0.34699241  0.49336056  0.10700010  1  0.049876  0  -0.100351  -0.073233  0  3.974344  0
C  C63  1  0.65301150  0.50664053  0.89299744  1  0.049337  0  -0.100378  -0.073247  0  3.974338  0
C  C64  1  0.26260221  0.63965515  0.12411512  1  -0.029746  0  -0.157809  -0.303134  0  3.986665  0
C  C65  1  0.73740180  0.36034806  0.87588269  1  -0.029362  0  -0.157732  -0.30291  0  3.986311  0
C  C66  1  0.21666150  0.75551680  0.04307366  1  1.544224  0  0.217833  0.653185  0  4.133099  0
C  C67  1  0.78333825  0.24448647  0.95692631  1  1.543875  0  0.21778  0.653117  0  4.133045  0
C  C68  1  0.80321074  0.73156103  0.23641083  1  1.580285  0  0.240638  0.687367  0  4.090393  0
C  C69  1  0.19678745  0.26844332  0.76358845  1  1.580212  0  0.240588  0.687303  0  4.09053  0
C  C70  1  0.85160953  0.57337574  0.24449062  1  -0.044693  0  -0.161025  -0.309838  0  3.996349  0
C  C71  1  0.14838700  0.42662756  0.75550833  1  -0.04476  0  -0.161075  -0.309884  0  3.996419  0
C  C72  1  0.80093364  0.50312754  0.32675413  1  -0.053499  0  -0.09965  -0.076327  0  4.003318  0
C  C73  1  0.19906436  0.49687257  0.67324463  1  -0.054056  0  -0.099638  -0.076261  0  4.003319  0
C  C74  1  0.68263464  0.46536654  0.33244311  1  -0.080403  0  -0.104396  -0.091523  0  4.014593  0
C  C75  1  0.31736044  0.53463996  0.66755666  1  -0.079786  0  -0.104487  -0.091717  0  4.014652  0
C  C76  1  0.63828231  0.38400797  0.41230799  1  -0.069054  0  -0.161772  -0.303524  0  3.973693  0
C  C77  1  0.36171422  0.61599533  0.58769034  1  -0.068955  0  -0.161664  -0.303251  0  3.973365  0
C  C78  1  0.65958348  0.24044536  0.39992130  1  1.529082  0  0.21769  0.637746  0  4.121444  0
C  C79  1  0.34041207  0.75956006  0.60007675  1  1.529435  0  0.217736  0.637739  0  4.121476  0
C  C80  1  0.04117896  0.87437910  0.30076732  1  1.543274  0  0.219826  0.669064  0  4.10268  0
C  C81  1  0.95881883  0.12561470  0.69923810  1  1.543284  0  0.21991  0.669191  0  4.102719  0
C  C82  1  0.12656416  0.76464810  0.37919234  1  -0.042002  0  -0.160358  -0.304844  0  3.952632  0
C  C83  1  0.87342887  0.23534681  0.62081323  1  -0.041813  0  -0.160203  -0.304792  0  3.952735  0
C  C84  1  0.20412206  0.61711869  0.36181033  1  -0.083999  0  -0.101923  -0.085014  0  3.975033  0
C  C85  1  0.79587152  0.38287726  0.63819254  1  -0.084137  0  -0.101906  -0.085145  0  3.974944  0
C  C86  1  0.15933561  0.51379968  0.39875793  1  -0.049441  0  -0.101505  -0.082845  0  3.978863  0
C  C87  1  0.84066324  0.48619410  0.60124617  1  -0.049834  0  -0.101515  -0.082808  0  3.978739  0
C  C88  1  0.23329212  0.36777342  0.38025040  1  -0.057001  0  -0.159209  -0.300648  0  3.967892  0
C  C89  1  0.76671050  0.63222136  0.61975202  1  -0.057374  0  -0.159148  -0.300581  0  3.967845  0
C  C90  1  0.27275402  0.24641408  0.45917645  1  1.568159  0  0.218368  0.650053  0  4.126003  0
C  C91  1  0.72724629  0.75357650  0.54082621  1  1.568116  0  0.218361  0.650148  0  4.12609  0
O  O92  1  0.40174718  0.12843181  0.26761257  1  -1.172348  0  -0.356233  -0.570892  0  2.152463  0
O  O93  1  0.59825644  0.87157458  0.73238661  1  -1.172395  0  -0.356229  -0.570861  0  2.152405  0
O  O94  1  0.62433815  0.08663026  0.19254594  1  -1.208338  0  -0.422451  -0.699534  0  2.354954  0
O  O95  1  0.37565887  0.91337198  0.80745315  1  -1.208344  0  -0.422476  -0.699527  0  2.354855  0
O  O96  1  0.09807131  0.87526241  0.04558478  1  -1.228065  0  -0.417818  -0.693675  0  2.358224  0
O  O97  1  0.90193215  0.12473977  0.95441636  1  -1.228173  0  -0.417796  -0.693701  0  2.358216  0
O  O98  1  0.29196996  0.73532846  0.97346224  1  -1.188445  0  -0.354792  -0.596137  0  2.184262  0
O  O99  1  0.70802970  0.26467269  0.02653684  1  -1.188444  0  -0.354761  -0.596089  0  2.184332  0
O  O100  1  0.71266991  0.79061171  0.29256866  1  -1.199234  0  -0.361711  -0.592172  0  2.309847  0
O  O101  1  0.28732720  0.20939264  0.70742945  1  -1.199262  0  -0.361686  -0.592149  0  2.309801  0
O  O102  1  0.85755513  0.79418349  0.17081793  1  -1.227011  0  -0.375101  -0.659763  0  2.254056  0
O  O103  1  0.14244724  0.20581869  0.82918079  1  -1.226946  0  -0.37506  -0.659733  0  2.254198  0
O  O104  1  0.69953707  0.13303121  0.46233785  1  -1.180724  0  -0.328349  -0.584771  0  2.190477  0
O  O105  1  0.30045897  0.86697315  0.53765972  1  -1.180859  0  -0.328408  -0.584793  0  2.190497  0
O  O106  1  0.63137972  0.23169051  0.32595589  1  -1.191867  0  -0.35133  -0.610624  0  2.262444  0
O  O107  1  0.36862050  0.76831168  0.67404174  1  -1.192146  0  -0.351319  -0.610635  0  2.262514  0
O  O108  1  0.89202501  0.95054455  0.30499976  1  -1.226037  0  -0.404532  -0.690383  0  2.322327  0
O  O109  1  0.10796983  0.04945562  0.69500357  1  -1.22589  0  -0.404525  -0.690439  0  2.322451  0
O  O110  1  0.11640549  0.88889561  0.23117631  1  -1.188385  0  -0.373696  -0.593626  0  2.129466  0
O  O111  1  0.88359297  0.11110136  0.76882916  1  -1.188601  0  -0.373842  -0.593736  0  2.129438  0
O  O112  1  0.18921686  0.26193654  0.52659468  1  -1.199701  0  -0.347548  -0.595979  0  2.178793  0
O  O113  1  0.81078558  0.73805401  0.47340721  1  -1.19965  0  -0.347514  -0.595992  0  2.178674  0
O  O114  1  0.39119806  0.12687291  0.45591470  1  -1.226023  0  -0.405051  -0.670093  0  2.312655  0
O  O115  1  0.60880389  0.87311871  0.54408705  1  -1.226017  0  -0.405096  -0.670244  0  2.312804  0
O  O116  1  0.70334254  0.95603785  0.03310801  1  -1.273011  0  -0.568405  -0.777655  0  2.014231  0
O  O117  1  0.29665496  0.04396332  0.96688998  1  -1.273315  0  -0.568398  -0.777665  0  2.014116  0
O  O118  1  0.83284369  0.24409743  0.19791028  1  -1.241519  0  -0.612549  -0.790172  0  2.027334  0
O  O119  1  0.16716066  0.75590050  0.80209025  1  -1.241521  0  -0.612587  -0.790226  0  2.027334  0
O  O120  1  0.07865373  0.15693654  0.08561057  1  -1.234337  0  -0.594152  -0.773912  0  1.998887  0
O  O121  1  0.92134757  0.84306565  0.91438885  1  -1.234355  0  -0.594193  -0.773926  0  1.998887  0
O  O122  1  0.45506014  0.84885064  0.39171479  1  -1.240031  0  -0.618753  -0.788345  0  2.050526  0
O  O123  1  0.54493893  0.15114945  0.60828389  1  -1.240023  0  -0.61876  -0.788262  0  2.050644  0
