# generated using pymatgen
data_Cu2H23C25N15O2
_symmetry_space_group_name_H-M   'P 1'
_cell_length_a   8.07424757
_cell_length_b   8.06811594
_cell_length_c   12.52067470
_cell_angle_alpha   96.79876818
_cell_angle_beta   108.02579473
_cell_angle_gamma   109.61837352
_symmetry_Int_Tables_number   1
_chemical_formula_structural   Cu2H23C25N15O2
_chemical_formula_sum   'Cu2 H23 C25 N15 O2'
_cell_volume   707.73458893
_cell_formula_units_Z   1
loop_
 _symmetry_equiv_pos_site_id
 _symmetry_equiv_pos_as_xyz
  1  'x, y, z'
loop_
 _atom_site_type_symbol
 _atom_site_label
 _atom_site_symmetry_multiplicity
 _atom_site_fract_x
 _atom_site_fract_y
 _atom_site_fract_z
 _atom_site_occupancy
 _atom_site_hle17_ddec_charge
 _atom_site_hle17_ddec_spin_density
 _atom_site_hle17_ddec_sum_bond_order
 _atom_site_hle17_magmom
 _atom_site_hse06_10hf_ddec_charge
 _atom_site_hse06_10hf_ddec_spin_density
 _atom_site_hse06_10hf_ddec_sum_bond_order
 _atom_site_hse06_10hf_magmom
 _atom_site_hse06_ddec_charge
 _atom_site_hse06_ddec_spin_density
 _atom_site_hse06_ddec_sum_bond_order
 _atom_site_hse06_magmom
 _atom_site_pbe_cm5_charge
 _atom_site_pbe_ddec_charge
 _atom_site_pbe_ddec_spin_density
 _atom_site_pbe_ddec_sum_bond_order
 _atom_site_pbe_magmom
Cu  Cu0  1  0.56013446  0.85775419  0.47728696  1  0.751519  0.576447  2.017315  0.374  0.764804  0.716192  2.431973  0.527  0.861621  0.828566  2.348777  0.632  0.760474  0.716834  0.639626  2.480483  0.46
Cu  Cu1  1  0.38061271  0.08326235  0.52292845  1  0.751558  -0.576  2.018196  -0.374  0.765016  -0.715977  2.432707  -0.527  0.861761  -0.828439  2.349525  -0.632  0.760576  0.717176  -0.639377  2.481092  -0.46
H  H2  1  0.91764590  0.26987742  0.34443212  1  0.120379  -0.000274  0.943128  0.0  0.129083  -0.000226  1.002279  0.0  0.133567  -0.000154  0.999218  0.0  0.118052  0.125992  -0.000275  1.004366  0.0
H  H3  1  0.92476815  0.57290876  0.65513146  1  0.119894  0.000274  0.943796  0.0  0.128264  0.000228  1.003152  0.0  0.132711  0.000155  1.000115  0.0  0.117971  0.125215  0.000278  1.005234  0.0
H  H4  1  0.65815788  0.14271274  0.99971527  1  0.077686  -0.000162  0.98529  0.0  0.087605  -0.000186  1.051699  0.0  0.089637  -0.000153  1.050838  0.0  0.095414  0.086132  -0.000215  1.052392  0.0
H  H5  1  0.14408513  0.65985539  0.00014772  1  0.078072  0.00016  0.98509  0.0  0.087935  0.000181  1.051587  0.0  0.090019  0.000148  1.050622  0.0  0.095632  0.086444  0.000211  1.052304  0.0
H  H6  1  0.71708665  0.62414636  0.36904015  1  0.088439  -9.9e-05  0.973364  0.0  0.10085  -0.000121  1.044698  0.0  0.1016  -0.000125  1.045947  0.0  0.093336  0.100179  -0.000113  1.04411  0.0
H  H7  1  0.25547150  0.34831338  0.63091656  1  0.088326  9.9e-05  0.972319  0.0  0.100466  0.000118  1.044245  0.0  0.101322  0.000123  1.045381  0.0  0.092959  0.099764  0.000108  1.043711  0.0
H  H8  1  0.56128627  0.39169181  0.32873154  1  0.091975  0.000142  0.933845  0.0  0.109259  0.000181  0.993309  0.0  0.110284  0.000134  0.994012  0.0  0.095073  0.108597  0.000219  0.992711  0.0
H  H9  1  0.06349771  0.23317722  0.67138880  1  0.090732  -0.000135  0.933413  0.0  0.108048  -0.000172  0.993321  0.0  0.109036  -0.000128  0.994104  0.0  0.094752  0.107421  -0.000208  0.992686  0.0
H  H10  1  0.84097664  0.40591862  0.94362557  1  0.077338  0.000304  0.978994  0.0  0.08718  0.000252  1.045426  0.0  0.089541  0.0002  1.044396  0.0  0.093637  0.085491  0.000297  1.046223  0.0
H  H11  1  0.46354437  0.89820133  0.05625741  1  0.077031  -0.000296  0.978877  0.0  0.087001  -0.000247  1.045352  0.0  0.089316  -0.000197  1.044362  0.0  0.09348  0.085359  -0.000288  1.046101  0.0
H  H12  1  0.78179725  0.28189284  0.49974223  1  0.107334  -0.0  0.983018  0.0  0.109845  -0.0  1.057815  0.0  0.113642  -0.0  1.0553  0.0  0.106815  0.10716  0.0  1.059626  0.0
H  H13  1  0.92945387  0.72205501  0.05683088  1  0.085724  -5.1e-05  0.961909  0.0  0.098066  -4.7e-05  1.020435  0.0  0.100779  -4e-05  1.01847  0.0  0.098366  0.096038  -5.4e-05  1.022  0.0
H  H14  1  0.66613086  0.87283326  0.94306087  1  0.085281  4.7e-05  0.962553  0.0  0.097513  4e-05  1.021159  0.0  0.100268  3.4e-05  1.019175  0.0  0.097863  0.095515  4.6e-05  1.022652  0.0
H  H15  1  0.82592248  0.76757850  0.21945948  1  0.090354  1e-06  0.959983  0.0  0.104671  -3.8e-05  1.017559  0.0  0.107747  -2.4e-05  1.016582  0.0  0.098085  0.102658  -5.6e-05  1.018052  0.0
H  H16  1  0.54870945  0.60637020  0.78055605  1  0.090028  -8e-06  0.960567  0.0  0.10402  2.9e-05  1.018778  0.0  0.107068  1.8e-05  1.017817  0.0  0.097764  0.102016  4.4e-05  1.019273  0.0
H  H17  1  0.54660232  0.18864983  0.16151416  1  0.078405  -0.000114  0.992303  0.0  0.08663  -8.3e-05  1.061915  0.0  0.089243  -6.2e-05  1.060717  0.0  0.09071  0.084794  -9.9e-05  1.062727  0.0
H  H18  1  0.02784729  0.38643651  0.83833357  1  0.079062  0.000114  0.99097  0.0  0.087142  8.4e-05  1.060624  0.0  0.089715  6.2e-05  1.0595  0.0  0.091167  0.085284  0.0001  1.061445  0.0
H  H19  1  0.17219324  0.43378959  0.09475680  1  0.07637  2.4e-05  0.950636  0.0  0.085932  9.3e-05  1.017884  0.0  0.085727  5.5e-05  1.018896  0.0  0.106935  0.085992  0.000124  1.017229  0.0
H  H20  1  0.33843795  0.07723569  0.90533051  1  0.075463  -1.4e-05  0.95211  0.0  0.085256  -8e-05  1.019132  0.0  0.085072  -4.5e-05  1.020195  0.0  0.10617  0.085299  -0.000109  1.018484  0.0
H  H21  1  0.26419598  0.27859111  0.15741129  1  0.083276  0.000359  0.928359  0.0  0.094943  0.000414  0.990833  0.0  0.095729  0.000332  0.989473  0.0  0.110532  0.094216  0.000475  0.99197  0.0
H  H22  1  0.12089945  0.10683450  0.84246912  1  0.083907  -0.000366  0.927727  0.0  0.095518  -0.000426  0.990128  0.0  0.096379  -0.000341  0.98876  0.0  0.110985  0.094797  -0.00049  0.991223  0.0
H  H23  1  0.47268534  0.67564268  0.20585064  1  0.058453  4.1e-05  0.914919  0.0  0.068714  4.6e-05  0.976304  0.0  0.0685  5.8e-05  0.977554  0.0  0.110479  0.068757  3.9e-05  0.975555  0.0
H  H24  1  0.46963889  0.26669473  0.79430686  1  0.058704  -4.2e-05  0.914149  0.0  0.069074  -4.7e-05  0.975879  0.0  0.068817  -6e-05  0.977086  0.0  0.110936  0.069133  -4.1e-05  0.975152  0.0
C  C25  1  0.67710846  0.48117901  0.20108791  1  0.095978  -3e-06  3.755927  0.0  0.121245  2e-06  3.987046  0.0  0.121177  -9e-06  4.013158  0.0  -0.01508  0.121326  8e-06  3.969245  0.0
C  C26  1  0.28077337  0.47657539  0.79887279  1  0.092739  6.6e-05  3.762824  0.0  0.119539  2.7e-05  3.991871  0.0  0.119513  3.1e-05  4.017958  0.0  -0.01595  0.119602  2.7e-05  3.974088  0.0
C  C27  1  0.97425247  0.39107589  0.41420962  1  -0.08483  -0.000112  3.645696  0.0  -0.110504  7e-06  3.891099  0.0  -0.109717  -1.2e-05  3.905084  0.0  -0.062024  -0.11094  1.5e-05  3.881396  0.0
C  C28  1  0.97646265  0.55986964  0.58548653  1  -0.08246  0.000115  3.645877  0.0  -0.106804  -2.3e-05  3.890423  0.0  -0.106097  1e-06  3.90451  0.0  -0.06054  -0.10724  -3.6e-05  3.880672  0.0
C  C29  1  0.22411058  0.53080478  0.33814568  1  0.423106  -0.0076  3.73671  -0.007  0.3866  -0.001496  4.010518  -0.002  0.414714  -0.002503  4.013387  -0.003  0.24827  0.368032  -0.000672  4.008619  -0.001
C  C30  1  0.19247147  0.88581272  0.66190556  1  0.42386  0.007593  3.737974  0.007  0.3886  0.001483  4.010928  0.002  0.416854  0.002496  4.013536  0.003  0.24833  0.369867  0.000655  4.009247  0.001
C  C31  1  0.69194893  0.27939917  0.04723525  1  -0.06794  -1.7e-05  3.797618  0.0  -0.0808  -6.7e-05  4.046601  0.0  -0.081434  -7.6e-05  4.067738  0.0  -0.097831  -0.080272  -5.3e-05  4.032238  0.0
C  C32  1  0.23315422  0.64587570  0.95264484  1  -0.068505  1.9e-05  3.801528  0.0  -0.081488  8.4e-05  4.050476  0.0  -0.082108  9.2e-05  4.071578  0.0  -0.097794  -0.080961  7e-05  4.03611  0.0
C  C33  1  0.60521587  0.51337733  0.29592826  1  -0.216987  0.000179  3.697058  0.0  -0.265372  9.2e-05  3.936352  0.0  -0.267663  0.000104  3.949287  0.0  -0.16687  -0.2636  8.8e-05  3.927404  0.0
C  C34  1  0.21788876  0.30969279  0.70410072  1  -0.213819  -0.000186  3.694686  0.0  -0.263063  -9.6e-05  3.935749  0.0  -0.265508  -0.000105  3.948781  0.0  -0.166126  -0.261274  -9.6e-05  3.926775  0.0
C  C35  1  0.79677807  0.42833902  0.01605685  1  -0.086306  0.000187  3.793228  0.0  -0.102839  0.000169  4.048055  0.0  -0.10542  0.000134  4.06996  0.0  -0.100941  -0.101045  0.000204  4.033168  0.0
C  C36  1  0.41329488  0.78156838  0.98376856  1  -0.087382  -0.000141  3.797375  0.0  -0.104053  -0.000113  4.052359  0.0  -0.106554  -9.9e-05  4.074268  0.0  -0.101498  -0.102321  -0.000129  4.037485  0.0
C  C37  1  0.12912006  0.54313095  0.42023321  1  0.135795  0.000911  3.771158  0.001  0.142411  0.000452  4.020439  0.001  0.142536  0.000506  4.039068  0.001  0.124447  0.14221  0.000405  4.008647  0.001
C  C38  1  0.12273889  0.70880237  0.57973357  1  0.132441  -0.000924  3.776862  -0.001  0.137481  -0.000442  4.027637  -0.001  0.137674  -0.000499  4.046109  -0.001  0.122621  0.137303  -0.000397  4.015894  -0.001
C  C39  1  0.89892407  0.39898123  0.49981093  1  -0.003737  -5e-06  3.673336  0.0  -0.015703  5e-06  3.920665  0.0  -0.014256  4e-06  3.934586  0.0  -0.060563  -0.01655  5e-06  3.910953  0.0
C  C40  1  0.84529705  0.60397034  0.07872331  1  -0.065243  6e-06  3.795816  0.0  -0.080344  4.8e-05  4.048197  0.0  -0.081756  2.9e-05  4.07064  0.0  -0.094794  -0.079222  7.1e-05  4.032901  0.0
C  C41  1  0.52609731  0.76701072  0.92114957  1  -0.064322  5.9e-05  3.798929  0.0  -0.079384  -2.5e-05  4.051481  0.0  -0.080856  -1.2e-05  4.073896  0.0  -0.094519  -0.078275  -4.1e-05  4.036235  0.0
C  C42  1  0.43650235  0.56891855  0.25174218  1  0.14784  0.001238  3.565924  0.0  0.138138  0.001382  3.807041  0.001  0.14266  0.0008  3.821988  0.0  0.011858  0.135416  0.001743  3.797224  0.001
C  C43  1  0.31712069  0.18474232  0.74833918  1  0.148211  -0.001232  3.564578  0.0  0.13782  -0.001386  3.807022  -0.001  0.142557  -0.000799  3.821785  0.0  0.011414  0.13503  -0.001748  3.797283  -0.001
C  C44  1  0.78681608  0.62986156  0.17078165  1  -0.120023  0.000123  3.726963  0.0  -0.139382  5.3e-05  3.969389  0.0  -0.143118  3.6e-05  3.9918  0.0  -0.096427  -0.136715  7.7e-05  3.953887  0.0
C  C45  1  0.45979853  0.61630376  0.82919050  1  -0.119625  -0.000226  3.729128  0.0  -0.139188  -9.5e-05  3.97114  0.0  -0.142907  -6.2e-05  3.993605  0.0  -0.096434  -0.136552  -0.000131  3.955663  0.0
C  C46  1  0.63116964  0.30558397  0.13852362  1  -0.141244  9.6e-05  3.757824  0.0  -0.15794  5.5e-05  4.000142  0.0  -0.161732  3.4e-05  4.022261  0.0  -0.102251  -0.155256  8.7e-05  3.985058  0.0
C  C47  1  0.16788807  0.49370353  0.86134881  1  -0.13924  -0.000135  3.760898  0.0  -0.155856  -7.1e-05  4.002274  0.0  -0.159648  -4.9e-05  4.024429  0.0  -0.101506  -0.153148  -0.000105  3.987169  0.0
C  C48  1  0.24875816  0.40785632  0.17553575  1  0.043592  0.003487  3.467028  0.003  -0.014656  0.002899  3.715349  0.003  -0.006727  0.002286  3.719285  0.002  -0.051115  -0.019824  0.003267  3.712447  0.003
C  C49  1  0.23196673  0.07310696  0.82448076  1  0.042729  -0.003515  3.46797  -0.003  -0.015026  -0.002927  3.716434  -0.003  -0.007321  -0.002306  3.720605  -0.002  -0.0513  -0.020178  -0.003303  3.713524  -0.003
N  N50  1  0.20132019  0.70122798  0.50008032  1  -0.350228  8e-06  3.126274  0.0  -0.337117  -7e-06  3.404593  0.0  -0.351469  -3e-06  3.422847  0.0  -0.298169  -0.329967  -8e-06  3.395132  0.0
N  N51  1  0.39085641  0.64065087  0.34850294  1  -0.458961  0.061865  3.178112  0.07  -0.420342  0.049649  3.481754  0.062  -0.454854  0.044803  3.49465  0.059  -0.38288  -0.401224  0.051042  3.475109  0.061
N  N52  1  0.29210405  0.04231812  0.65162032  1  -0.45823  -0.061965  3.179618  -0.07  -0.419146  -0.049719  3.4827  -0.062  -0.453645  -0.044856  3.495337  -0.059  -0.381856  -0.400045  -0.051117  3.476254  -0.061
N  N53  1  0.36535333  0.99288355  0.28980247  1  0.399049  0.004389  4.142447  0.005  0.446318  0.001094  4.437209  0.001  0.468572  0.000913  4.470565  0.001  0.096537  0.432776  0.00117  4.415315  0.001
N  N54  1  0.70339503  0.07597292  0.71036174  1  0.402146  -0.004589  4.141274  -0.006  0.449404  -0.001179  4.435897  -0.001  0.471665  -0.000995  4.469236  -0.001  0.098954  0.435838  -0.001249  4.414041  -0.001
N  N55  1  0.46892386  0.03403733  0.39082274  1  -0.536031  -0.003757  2.886403  -0.004  -0.563383  0.001999  3.254287  0.003  -0.617777  0.001989  3.267387  0.003  -0.344685  -0.534197  0.002136  3.249057  0.003
N  N56  1  0.64310953  0.07825361  0.60929765  1  -0.538178  0.004161  2.886075  0.005  -0.565625  -0.001813  3.253909  -0.002  -0.620186  -0.001889  3.267244  -0.003  -0.346624  -0.536313  -0.001905  3.248542  -0.002
N  N57  1  0.27116661  0.95956265  0.19226204  1  -0.309534  -0.012797  2.350891  -0.013  -0.314624  -0.000476  2.567763  -0.001  -0.321043  0.000365  2.576634  0.0  -0.139948  -0.310297  -0.000902  2.561374  -0.001
N  N58  1  0.76806227  0.07964589  0.80793394  1  -0.311078  0.013414  2.35189  0.014  -0.316094  0.000765  2.568731  0.001  -0.322412  -0.000119  2.577429  0.0  -0.14082  -0.31173  0.00121  2.562352  0.002
N  N59  1  0.58757560  0.56741512  0.57738424  1  0.383537  -0.033632  4.17971  -0.048  0.442262  -0.002973  4.490768  -0.011  0.463366  -0.005319  4.530433  -0.012  0.085946  0.430177  3.5e-05  4.465247  -0.008
N  N60  1  0.99043148  0.01034225  0.42294007  1  0.379541  0.03379  4.181553  0.049  0.438106  0.002995  4.493353  0.011  0.459204  0.005352  4.533153  0.012  0.084901  0.42602  -1.9e-05  4.467733  0.008
N  N61  1  0.66306734  0.72680901  0.58622710  1  -0.459165  0.09812  2.666285  0.11  -0.516511  0.047645  3.008134  0.06  -0.55822  0.028353  3.022113  0.04  -0.30387  -0.493614  0.058279  3.000298  0.069
N  N62  1  0.14077491  0.07702634  0.41395273  1  -0.457928  -0.098787  2.667769  -0.111  -0.515211  -0.047924  3.009206  -0.06  -0.557122  -0.028532  3.023376  -0.04  -0.304061  -0.492234  -0.058609  3.001305  -0.069
N  N63  1  0.52316123  0.41264473  0.57513939  1  -0.374948  0.157318  2.4816  0.158  -0.415834  0.076521  2.766237  0.082  -0.44133  0.064762  2.777599  0.072  -0.204741  -0.402613  0.082388  2.759708  0.085
N  N64  1  0.83814953  0.94812127  0.42537163  1  -0.371352  -0.157947  2.479124  -0.159  -0.412219  -0.076776  2.763223  -0.082  -0.437795  -0.064949  2.77482  -0.073  -0.203057  -0.398948  -0.082668  2.75658  -0.085
O  O65  1  0.13099145  0.38802555  0.24577654  1  -0.263889  0.001642  2.232433  0.002  -0.19013  0.002138  2.454255  0.002  -0.209455  0.001429  2.454372  0.002  -0.14823  -0.176695  0.002629  2.453502  0.003
O  O66  1  0.14205990  0.88504023  0.75427377  1  -0.264692  -0.001669  2.2307  -0.002  -0.192119  -0.002164  2.452784  -0.002  -0.211463  -0.001445  2.452915  -0.002  -0.148937  -0.178609  -0.002665  2.452073  -0.003
