# generated using pymatgen
data_LiH5C2N4O5
_symmetry_space_group_name_H-M   'P 1'
_cell_length_a   3.46581802
_cell_length_b   7.39046546
_cell_length_c   24.68849462
_cell_angle_alpha   95.46577654
_cell_angle_beta   89.99986138
_cell_angle_gamma   90.00017469
_symmetry_Int_Tables_number   1
_chemical_formula_structural   LiH5C2N4O5
_chemical_formula_sum   'Li4 H20 C8 N16 O20'
_cell_volume   629.49608699
_cell_formula_units_Z   4
loop_
 _symmetry_equiv_pos_site_id
 _symmetry_equiv_pos_as_xyz
  1  'x, y, z'
loop_
 _atom_site_type_symbol
 _atom_site_label
 _atom_site_symmetry_multiplicity
 _atom_site_fract_x
 _atom_site_fract_y
 _atom_site_fract_z
 _atom_site_occupancy
 _atom_site_hle17_bader_spin_density
 _atom_site_hle17_ddec_charge
 _atom_site_hle17_ddec_spin_density
 _atom_site_hle17_ddec_sum_bond_order
 _atom_site_hle17_magmom
 _atom_site_hse06_10hf_bader_spin_density
 _atom_site_hse06_10hf_ddec_charge
 _atom_site_hse06_10hf_ddec_spin_density
 _atom_site_hse06_10hf_ddec_sum_bond_order
 _atom_site_hse06_10hf_magmom
 _atom_site_hse06_bader_spin_density
 _atom_site_hse06_ddec_charge
 _atom_site_hse06_ddec_spin_density
 _atom_site_hse06_ddec_sum_bond_order
 _atom_site_hse06_magmom
 _atom_site_pbe_bader_spin_density
 _atom_site_pbe_cm5_charge
 _atom_site_pbe_ddec_charge
 _atom_site_pbe_ddec_spin_density
 _atom_site_pbe_ddec_sum_bond_order
 _atom_site_pbe_magmom
Li  Li0  1  0.37982828  0.60774439  0.37026038  1  0  0.854542  0  0.372591  0  0  0.803779  0  0.492672  0  0  0.813822  0  0.475098  0  0  0.472748  0.796607  0  0.505189  0
Li  Li1  1  0.87983152  0.89225662  0.12973914  1  0  0.854542  0  0.372591  0  0  0.80377  0  0.492687  0  0  0.813814  0  0.475111  0  0  0.47275  0.796602  0  0.505199  0
Li  Li2  1  0.62016979  0.39225828  0.62973928  1  0  0.854547  0  0.372581  0  0  0.803776  0  0.492677  0  0  0.813818  0  0.475105  0  0  0.472755  0.796605  0  0.505193  0
Li  Li3  1  0.12016943  0.10774333  0.87026045  1  0  0.854556  0  0.372566  0  0  0.803784  0  0.492666  0  0  0.813829  0  0.475089  0  0  0.472745  0.796614  0  0.505178  0
H  H4  1  0.78932753  0.87296164  0.47200328  1  0  0.317103  0  0.910882  0  0  0.289106  0  0.981904  0  0  0.299375  0  0.97368  0  0  0.325231  0.28189  0  0.987723  0
H  H5  1  0.28932449  0.62703927  0.02799789  1  0  0.317053  0  0.910894  0  0  0.289087  0  0.981877  0  0  0.299338  0  0.973657  0  0  0.32521  0.281871  0  0.987696  0
H  H6  1  0.21067631  0.12703833  0.52799793  1  0  0.317082  0  0.910855  0  0  0.289112  0  0.981839  0  0  0.299366  0  0.973618  0  0  0.325231  0.281896  0  0.987658  0
H  H7  1  0.71067357  0.37295932  0.97200207  1  0  0.317105  0  0.910832  0  0  0.289111  0  0.981846  0  0  0.299362  0  0.973626  0  0  0.325238  0.281895  0  0.987663  0
H  H8  1  0.89949219  0.46560599  0.29863062  1  0  0.428194  0  0.864391  0  0  0.393054  0  0.934631  0  0  0.403555  0  0.918716  0  0  0.305362  0.385633  0  0.945881  0
H  H9  1  0.39949426  0.03439452  0.20136886  1  0  0.428253  0  0.864301  0  0  0.393112  0  0.93454  0  0  0.403611  0  0.918629  0  0  0.305384  0.385692  0  0.94579  0
H  H10  1  0.10050587  0.53439530  0.70136861  1  0  0.428229  0  0.864338  0  0  0.393093  0  0.934568  0  0  0.403594  0  0.918654  0  0  0.305378  0.385673  0  0.945816  0
H  H11  1  0.60050381  0.96560542  0.79863073  1  0  0.428322  0  0.864209  0  0  0.39316  0  0.934484  0  0  0.403662  0  0.918569  0  0  0.305411  0.385741  0  0.945732  0
H  H12  1  0.85698198  0.36849203  0.35279491  1  0  0.412815  0  0.897767  0  0  0.373173  0  0.976964  0  0  0.384492  0  0.960583  0  0  0.293892  0.365236  0  0.988438  0
H  H13  1  0.35698559  0.13151116  0.14720505  1  0  0.41276  0  0.897848  0  0  0.373149  0  0.976994  0  0  0.384468  0  0.960613  0  0  0.293878  0.365213  0  0.988466  0
H  H14  1  0.14301609  0.63151064  0.64720475  1  0  0.412795  0  0.897793  0  0  0.373147  0  0.976993  0  0  0.384467  0  0.96061  0  0  0.293884  0.365211  0  0.988466  0
H  H15  1  0.64301248  0.86848879  0.85279494  1  0  0.412775  0  0.897832  0  0  0.37316  0  0.976982  0  0  0.384479  0  0.960601  0  0  0.29389  0.365223  0  0.988455  0
H  H16  1  0.22892802  0.62909558  0.47401412  1  0  0.422384  0  0.877443  0  0  0.392321  0  0.940279  0  0  0.402303  0  0.925537  0  0  0.298935  0.38527  0  0.950713  0
H  H17  1  0.72892424  0.87090522  0.02598544  1  0  0.422362  0  0.877469  0  0  0.3923  0  0.940304  0  0  0.402283  0  0.925559  0  0  0.298925  0.38525  0  0.950736  0
H  H18  1  0.77107294  0.37090438  0.52598587  1  0  0.422366  0  0.877467  0  0  0.392298  0  0.940312  0  0  0.402279  0  0.925571  0  0  0.298926  0.385246  0  0.950746  0
H  H19  1  0.27107094  0.12909608  0.97401418  1  0  0.422377  0  0.877449  0  0  0.392314  0  0.940286  0  0  0.402296  0  0.925543  0  0  0.298931  0.385264  0  0.950718  0
H  H20  1  0.23011055  0.42609836  0.45195485  1  0  0.425568  0  0.877087  0  0  0.3955  0  0.939157  0  0  0.405744  0  0.924259  0  0  0.295822  0.388263  0  0.949679  0
H  H21  1  0.73010451  0.07390193  0.04804507  1  0  0.425592  0  0.877053  0  0  0.395531  0  0.93911  0  0  0.405776  0  0.924212  0  0  0.295835  0.388297  0  0.94963  0
H  H22  1  0.76989329  0.57390159  0.54804514  1  0  0.425581  0  0.877067  0  0  0.395514  0  0.939133  0  0  0.405759  0  0.924235  0  0  0.295829  0.388274  0  0.949657  0
H  H23  1  0.26989355  0.92609939  0.95195496  1  0  0.425544  0  0.877121  0  0  0.395496  0  0.939154  0  0  0.40574  0  0.924256  0  0  0.295833  0.388263  0  0.949673  0
C  C24  1  0.86484590  0.12470623  0.43435568  1  0  0.656405  0  3.840949  0  0  0.583165  0  4.158617  0  0  0.613228  0  4.159077  0  0  0.317391  0.562984  0  4.157691  0
C  C25  1  0.36484667  0.37529426  0.06564461  1  0  0.656354  0  3.841007  0  0  0.58321  0  4.158617  0  0  0.613246  0  4.159073  0  0  0.317458  0.563027  0  4.157693  0
C  C26  1  0.13515506  0.87529373  0.56564472  1  0  0.656407  0  3.840861  0  0  0.583212  0  4.158481  0  0  0.613253  0  4.158943  0  0  0.317431  0.563031  0  4.157559  0
C  C27  1  0.63514851  0.62470707  0.93435623  1  0  0.656444  0  3.840962  0  0  0.583299  0  4.15856  0  0  0.613337  0  4.159014  0  0  0.31751  0.563115  0  4.157636  0
C  C28  1  0.62085759  0.00876394  0.36031768  1  0  0.325792  0  3.849344  0  0  0.260608  0  4.161845  0  0  0.268861  0  4.179762  0  0  0.307444  0.255269  0  4.149599  0
C  C29  1  0.12085494  0.49123351  0.13968342  1  0  0.325776  0  3.8494  0  0  0.260695  0  4.161819  0  0  0.268949  0  4.179739  0  0  0.307435  0.255356  0  4.149578  0
C  C30  1  0.37914336  0.99123468  0.63968349  1  0  0.325881  0  3.849376  0  0  0.260723  0  4.161806  0  0  0.268976  0  4.17973  0  0  0.307477  0.255383  0  4.149564  0
C  C31  1  0.87914312  0.50876780  0.86031620  1  0  0.325882  0  3.849351  0  0  0.260853  0  4.161659  0  0  0.269107  0  4.179579  0  0  0.307473  0.255511  0  4.149415  0
N  N32  1  0.58335664  0.87468033  0.39206068  1  0  -0.316198  0  3.015393  0  0  -0.307518  0  3.31318  0  0  -0.312512  0  3.326893  0  0  -0.265371  -0.304069  0  3.304149  0
N  N33  1  0.08335511  0.62531758  0.10794048  1  0  -0.316286  0  3.015449  0  0  -0.307581  0  3.313195  0  0  -0.312614  0  3.326888  0  0  -0.265376  -0.304135  0  3.304165  0
N  N34  1  0.41664719  0.12531829  0.60794050  1  0  -0.31631  0  3.015383  0  0  -0.307617  0  3.313171  0  0  -0.312637  0  3.32687  0  0  -0.26541  -0.304168  0  3.304141  0
N  N35  1  0.91664295  0.37468372  0.89205915  1  0  -0.316284  0  3.015478  0  0  -0.307615  0  3.3132  0  0  -0.312647  0  3.326893  0  0  -0.265403  -0.304168  0  3.304167  0
N  N36  1  0.73487626  0.94945924  0.43931574  1  0  -0.2703  0  3.332256  0  0  -0.214024  0  3.595035  0  0  -0.232111  0  3.605792  0  0  -0.266576  -0.20211  0  3.588009  0
N  N37  1  0.23487507  0.55054023  0.06068500  1  0  -0.270288  0  3.332327  0  0  -0.214037  0  3.595077  0  0  -0.23203  0  3.605743  0  0  -0.266576  -0.20212  0  3.58805  0
N  N38  1  0.26512469  0.05054073  0.56068547  1  0  -0.270229  0  3.332167  0  0  -0.213991  0  3.594941  0  0  -0.232004  0  3.605626  0  0  -0.266541  -0.202075  0  3.587915  0
N  N39  1  0.76512300  0.44945972  0.93931499  1  0  -0.270438  0  3.332377  0  0  -0.214139  0  3.595122  0  0  -0.232134  0  3.605791  0  0  -0.266625  -0.202223  0  3.588093  0
N  N40  1  0.78717937  0.16326422  0.38253238  1  0  -0.540378  0  2.960847  0  0  -0.490478  0  3.233005  0  0  -0.510785  0  3.242335  0  0  -0.324631  -0.476793  0  3.226573  0
N  N41  1  0.28717902  0.33673480  0.11746790  1  0  -0.540131  0  2.960646  0  0  -0.490426  0  3.232901  0  0  -0.510732  0  3.242235  0  0  -0.324606  -0.476737  0  3.226471  0
N  N42  1  0.21282447  0.83673574  0.61746802  1  0  -0.540341  0  2.960831  0  0  -0.490456  0  3.232942  0  0  -0.510767  0  3.242282  0  0  -0.324623  -0.47677  0  3.226513  0
N  N43  1  0.71282194  0.66326650  0.88253173  1  0  -0.540203  0  2.960607  0  0  -0.490553  0  3.232875  0  0  -0.51086  0  3.242207  0  0  -0.32464  -0.476863  0  3.226443  0
N  N44  1  0.48746405  0.97978636  0.30512435  1  0  0.430852  0  3.955583  0  0  0.48791  0  4.219958  0  0  0.5096  0  4.224358  0  0  0.063507  0.473316  0  4.216797  0
N  N45  1  0.98745806  0.52021073  0.19487584  1  0  0.430906  0  3.955704  0  0  0.487958  0  4.220034  0  0  0.509646  0  4.22443  0  0  0.063586  0.473365  0  4.21687  0
N  N46  1  0.51253979  0.02021224  0.69487602  1  0  0.430834  0  3.955738  0  0  0.487902  0  4.220041  0  0  0.509594  0  4.224439  0  0  0.063558  0.473309  0  4.216877  0
N  N47  1  0.01253713  0.47979057  0.80512379  1  0  0.430806  0  3.956014  0  0  0.487966  0  4.220107  0  0  0.509652  0  4.224507  0  0  0.063629  0.473372  0  4.216942  0
O  O48  1  0.87865125  0.49110355  0.33844068  1  0  -0.947545  0  1.83606  0  0  -0.897  0  2.027453  0  0  -0.9122  0  1.991564  0  0  -0.661406  -0.88628  0  2.05256  0
O  O49  1  0.37865096  0.00889830  0.16155883  1  0  -0.947596  0  1.836069  0  0  -0.897041  0  2.027441  0  0  -0.912242  0  1.991553  0  0  -0.661404  -0.886321  0  2.052546  0
O  O50  1  0.12134681  0.50889776  0.66155894  1  0  -0.947591  0  1.83605  0  0  -0.897036  0  2.027474  0  0  -0.912236  0  1.991584  0  0  -0.661422  -0.886317  0  2.05258  0
O  O51  1  0.62134711  0.99110164  0.83844035  1  0  -0.947682  0  1.835945  0  0  -0.897105  0  2.027342  0  0  -0.912307  0  1.99145  0  0  -0.661453  -0.886387  0  2.052446  0
O  O52  1  0.32914966  0.54623577  0.44378470  1  0  -0.895338  0  1.781494  0  0  -0.848149  0  1.959207  0  0  -0.864344  0  1.92737  0  0  -0.665536  -0.836717  0  1.981588  0
O  O53  1  0.82914589  0.95376517  0.05621524  1  0  -0.895342  0  1.781487  0  0  -0.848166  0  1.95922  0  0  -0.864361  0  1.92738  0  0  -0.665546  -0.836737  0  1.98159  0
O  O54  1  0.67084840  0.45376418  0.55621489  1  0  -0.895325  0  1.781487  0  0  -0.848122  0  1.959197  0  0  -0.864316  0  1.927361  0  0  -0.66553  -0.836684  0  1.981589  0
O  O55  1  0.17084929  0.04623614  0.94378479  1  0  -0.895309  0  1.781512  0  0  -0.848132  0  1.959222  0  0  -0.864326  0  1.927385  0  0  -0.66554  -0.836704  0  1.981592  0
O  O56  1  0.02942984  0.22475544  0.47236663  1  0  -0.651474  0  2.045569  0  0  -0.584817  0  2.266933  0  0  -0.610158  0  2.25825  0  0  -0.300872  -0.566874  0  2.272395  0
O  O57  1  0.52943120  0.27524458  0.02763336  1  0  -0.65148  0  2.045582  0  0  -0.584844  0  2.266929  0  0  -0.610195  0  2.258257  0  0  -0.30089  -0.566905  0  2.272391  0
O  O58  1  0.97057111  0.77524318  0.52763454  1  0  -0.651494  0  2.045545  0  0  -0.584889  0  2.26694  0  0  -0.610232  0  2.258264  0  0  -0.300911  -0.566947  0  2.272401  0
O  O59  1  0.47056975  0.72475401  0.97236660  1  0  -0.651443  0  2.045584  0  0  -0.584828  0  2.26693  0  0  -0.610178  0  2.258255  0  0  -0.300906  -0.566891  0  2.272394  0
O  O60  1  0.30379568  0.83841977  0.29165512  1  0  -0.326567  0  1.800254  0  0  -0.326675  0  2.011216  0  0  -0.336607  0  2.006834  0  0  -0.09546  -0.319961  0  2.014329  0
O  O61  1  0.80378458  0.66157027  0.20834494  1  0  -0.326518  0  1.800319  0  0  -0.326668  0  2.011333  0  0  -0.336595  0  2.006949  0  0  -0.095471  -0.31995  0  2.014445  0
O  O62  1  0.69621970  0.16157204  0.70834506  1  0  -0.326605  0  1.800327  0  0  -0.326669  0  2.011365  0  0  -0.336604  0  2.006981  0  0  -0.095482  -0.319956  0  2.014476  0
O  O63  1  0.19621349  0.33843512  0.79165521  1  0  -0.326641  0  1.800462  0  0  -0.326736  0  2.011462  0  0  -0.336662  0  2.007079  0  0  -0.095523  -0.32002  0  2.014572  0
O  O64  1  0.56414184  0.09909025  0.27426739  1  0  -0.325874  0  1.786403  0  0  -0.309953  0  1.978899  0  0  -0.322261  0  1.973245  0  0  -0.100492  -0.301666  0  1.982942  0
O  O65  1  0.06414870  0.40090441  0.22573406  1  0  -0.325955  0  1.786354  0  0  -0.310053  0  1.978871  0  0  -0.32237  0  1.973213  0  0  -0.100578  -0.301767  0  1.982914  0
O  O66  1  0.43585334  0.90090700  0.72573334  1  0  -0.32585  0  1.786435  0  0  -0.310009  0  1.978904  0  0  -0.32232  0  1.97325  0  0  -0.100551  -0.30172  0  1.982949  0
O  O67  1  0.93584072  0.59909689  0.77426516  1  0  -0.325773  0  1.786449  0  0  -0.310018  0  1.97886  0  0  -0.322334  0  1.973203  0  0  -0.10057  -0.301733  0  1.982902  0
