# generated using pymatgen
data_Zn4H6C24S6O19F2
_symmetry_space_group_name_H-M   'P 1'
_cell_length_a   19.64913650
_cell_length_b   19.63730753
_cell_length_c   33.40392052
_cell_angle_alpha   78.94761153
_cell_angle_beta   78.97331951
_cell_angle_gamma   63.93459979
_symmetry_Int_Tables_number   1
_chemical_formula_structural   Zn4H6C24S6O19F2
_chemical_formula_sum   'Zn16 H24 C96 S24 O76 F8'
_cell_volume   11279.39840128
_cell_formula_units_Z   4
loop_
 _symmetry_equiv_pos_site_id
 _symmetry_equiv_pos_as_xyz
  1  'x, y, z'
loop_
 _atom_site_type_symbol
 _atom_site_label
 _atom_site_symmetry_multiplicity
 _atom_site_fract_x
 _atom_site_fract_y
 _atom_site_fract_z
 _atom_site_occupancy
 _atom_site_pbe_bader_charge
 _atom_site_pbe_bader_spin_density
 _atom_site_pbe_cm5_charge
 _atom_site_pbe_ddec_charge
 _atom_site_pbe_ddec_spin_density
 _atom_site_pbe_ddec_sum_bond_order
 _atom_site_pbe_magmom
Zn  Zn0  1  0.05642723  0.40182936  0.47709751  1  1.315163  0  0.670729  0.968448  0  2.342176  0
Zn  Zn1  1  0.98487750  0.48405681  0.56043843  1  1.317179  0  0.684556  0.978035  0  2.339538  0
Zn  Zn2  1  0.05783419  0.56281458  0.48194689  1  1.325724  0  0.68418  0.979207  0  2.345039  0
Zn  Zn3  1  0.89872122  0.55304256  0.48081370  1  1.325414  0  0.684444  0.977954  0  2.351544  0
Zn  Zn4  1  0.69757722  0.34921399  0.27145058  1  1.31542  0  0.671643  0.967329  0  2.35191  0
Zn  Zn5  1  0.68918219  0.19124359  0.26566408  1  1.321978  0  0.671484  0.962552  0  2.371882  0
Zn  Zn6  1  0.77100105  0.26525415  0.18942257  1  1.323893  0  0.685519  0.981848  0  2.341584  0
Zn  Zn7  1  0.84857769  0.19251430  0.27319400  1  1.322999  0  0.683023  0.972868  0  2.358441  0
Zn  Zn8  1  0.26636475  0.76585953  0.68909839  1  1.303823  0  0.671231  0.961025  0  2.365878  0
Zn  Zn9  1  0.34857299  0.69780044  0.77110727  1  1.324988  0  0.682963  0.974048  0  2.360229  0
Zn  Zn10  1  0.19218119  0.84841580  0.77088938  1  1.319023  0  0.674464  0.969103  0  2.363634  0
Zn  Zn11  1  0.19262769  0.68513168  0.76648468  1  1.321653  0  0.684663  0.980083  0  2.34158  0
Zn  Zn12  1  0.56230110  0.05891424  0.98339663  1  1.313598  0  0.673412  0.966912  0  2.360316  0
Zn  Zn13  1  0.40200534  0.05450046  0.97728012  1  1.317596  0  0.671737  0.963086  0  2.362745  0
Zn  Zn14  1  0.55570625  0.90042424  0.97757292  1  1.32223  0  0.677733  0.971603  0  2.371501  0
Zn  Zn15  1  0.48388563  0.98189491  0.05948490  1  1.314574  0  0.674522  0.965358  0  2.377988  0
H  H16  1  0.74999474  0.45138427  0.35004089  1  0.178699  0  0.122854  0.153578  0  0.971794  0
H  H17  1  0.00209049  0.29776998  0.40033638  1  0.158322  0  0.121366  0.151221  0  0.974487  0
H  H18  1  0.20361376  0.69836752  0.59896023  1  0.118845  0  0.121595  0.151945  0  0.97491  0
H  H19  1  0.04329244  0.55528454  0.64896185  1  0.136138  0  0.123926  0.159146  0  0.969637  0
H  H20  1  0.46395229  0.24292324  0.33994022  1  0.112489  0  0.123037  0.149266  0  0.968644  0
H  H21  1  0.48277657  0.70169996  0.60048528  1  0.106765  0  0.120875  0.146549  0  0.970687  0
H  H22  1  0.20639121  0.97960951  0.60096106  1  0.129178  0  0.124478  0.151706  0  0.965895  0
H  H23  1  0.94929160  0.96286877  0.34184939  1  0.111497  0  0.126538  0.156007  0  0.961972  0
H  H24  1  0.65094675  0.15076835  0.04883216  1  0.171669  0  0.123624  0.154746  0  0.970018  0
H  H25  1  0.59792711  0.10291923  0.20014833  1  0.133674  0  0.121133  0.15179  0  0.974997  0
H  H26  1  0.55021681  0.76993493  0.14749281  1  0.137704  0  0.123623  0.150326  0  0.968121  0
H  H27  1  0.16139484  0.14479274  0.04130835  1  0.106116  0  0.122661  0.149163  0  0.968792  0
H  H28  1  0.29840683  0.00330373  0.89908334  1  0.152706  0  0.120263  0.150374  0  0.976072  0
H  H29  1  0.44466195  0.74752325  0.85198265  1  0.173707  0  0.127343  0.162462  0  0.963948  0
H  H30  1  0.30299345  0.28116025  0.90237584  1  0.117594  0  0.121618  0.147348  0  0.969759  0
H  H31  1  0.78658275  0.00978064  0.90498101  1  0.120275  0  0.123206  0.149551  0  0.96818  0
H  H32  1  0.24254572  0.62602122  0.36764201  1  0.634401  0  0.355683  0.403423  0  0.835248  0
H  H33  1  0.86622091  0.42814167  0.66016818  1  0.673267  0  0.321006  0.40316  0  0.91367  0
H  H34  1  0.09775848  0.31794975  0.68786202  1  0.644976  0  0.36341  0.411017  0  0.821752  0
H  H35  1  0.75705005  0.72830329  0.36034238  1  0.649526  0  0.356069  0.40336  0  0.835008  0
H  H36  1  0.82300769  0.44297402  0.06519932  1  0.633381  0  0.355482  0.403891  0  0.834867  0
H  H37  1  0.12833860  0.15507715  0.25322861  1  0.630441  0  0.356641  0.403883  0  0.833128  0
H  H38  1  0.56502586  0.43551058  0.80590776  1  0.636183  0  0.358138  0.407408  0  0.830009  0
H  H39  1  0.92408987  0.69274427  0.79496183  1  0.622653  0  0.35999  0.409445  0  0.826448  0
C  C40  1  0.06819594  0.31673074  0.55930714  1  1.642964  0  0.220326  0.609644  0  4.219099  0
C  C41  1  0.06704557  0.57403382  0.56704393  1  1.57058  0  0.23292  0.621334  0  4.159898  0
C  C42  1  0.18264245  0.44084187  0.43708782  1  1.615822  0  0.22013  0.608236  0  4.218601  0
C  C43  1  0.93381527  0.68194124  0.43822022  1  1.596257  0  0.221463  0.608986  0  4.217998  0
C  C44  1  0.92936909  0.42954030  0.43268203  1  1.591987  0  0.231564  0.625036  0  4.157814  0
C  C45  1  0.81969397  0.55728729  0.56495248  1  1.591256  0  0.221072  0.610532  0  4.206241  0
C  C46  1  0.56895315  0.31186208  0.31254540  1  1.563528  0  0.219331  0.612806  0  4.209081  0
C  C47  1  0.68091230  0.18424162  0.17937139  1  1.566352  0  0.230827  0.620839  0  4.15712  0
C  C48  1  0.69282463  0.43296235  0.18901157  1  1.590549  0  0.220391  0.609349  0  4.216592  0
C  C49  1  0.93664824  0.18564337  0.19101249  1  1.579597  0  0.220668  0.606755  0  4.221354  0
C  C50  1  0.82063092  0.31733762  0.31979710  1  1.598797  0  0.230981  0.623871  0  4.161169  0
C  C51  1  0.80895266  0.06434430  0.31005000  1  1.591146  0  0.220741  0.612385  0  4.215119  0
C  C52  1  0.43283405  0.69618575  0.68747204  1  1.542676  0  0.219267  0.613051  0  4.212483  0
C  C53  1  0.31358911  0.82248154  0.81927646  1  1.582981  0  0.231742  0.620881  0  4.162472  0
C  C54  1  0.18483653  0.93366168  0.68756397  1  1.587683  0  0.220289  0.610835  0  4.216688  0
C  C55  1  0.06575704  0.80764598  0.80911943  1  1.605095  0  0.221212  0.609679  0  4.218727  0
C  C56  1  0.18409636  0.67559007  0.68091483  1  1.589506  0  0.230449  0.623961  0  4.157031  0
C  C57  1  0.31402229  0.56756437  0.81188904  1  1.611091  0  0.222457  0.60838  0  4.218959  0
C  C58  1  0.43934320  0.18457937  0.93966835  1  1.583471  0  0.219252  0.614632  0  4.211644  0
C  C59  1  0.43194479  0.93037925  0.92957413  1  1.594522  0  0.231051  0.624521  0  4.156923  0
C  C60  1  0.68653061  0.93671878  0.93990713  1  1.583356  0  0.218767  0.611427  0  4.2164  0
C  C61  1  0.55914280  0.81505373  0.06059345  1  1.563867  0  0.219775  0.610534  0  4.215257  0
C  C62  1  0.56833519  0.06876492  0.06970683  1  1.599278  0  0.230324  0.621012  0  4.162514  0
C  C63  1  0.31598463  0.05858812  0.05999686  1  1.588226  0  0.219618  0.612796  0  4.2157  0
C  C64  1  0.90053290  0.40275296  0.40323602  1  -0.038605  0  -0.014952  -0.112034  0  3.958071  0
C  C65  1  0.85045579  0.34522804  0.34823390  1  0.068541  0  -0.013601  -0.110675  0  3.959848  0
C  C66  1  0.82956769  0.44512203  0.38815637  1  0.484707  0  0.108038  0.271792  0  4.04305  0
C  C67  1  0.92186124  0.30328619  0.36288669  1  0.458248  0  0.106278  0.268925  0  4.044772  0
C  C68  1  0.80512757  0.41727095  0.36126602  1  0.003503  0  -0.086562  -0.201559  0  3.971774  0
C  C69  1  0.94644059  0.33133167  0.38960315  1  0.049609  0  -0.087114  -0.201638  0  3.973441  0
C  C70  1  0.09667024  0.60204124  0.59546137  1  0.052785  0  -0.0136  -0.111577  0  3.954831  0
C  C71  1  0.15267630  0.64930022  0.65251322  1  0.04619  0  -0.015271  -0.113127  0  3.959735  0
C  C72  1  0.14183785  0.64319392  0.58226257  1  0.458175  0  0.109094  0.273396  0  4.0432  0
C  C73  1  0.10694745  0.60869963  0.66566955  1  0.466459  0  0.105969  0.267824  0  4.046134  0
C  C74  1  0.16901872  0.66638056  0.61006507  1  0.062075  0  -0.086221  -0.201459  0  3.973713  0
C  C75  1  0.07928711  0.58587904  0.63793181  1  0.046714  0  -0.08471  -0.199247  0  3.959573  0
C  C76  1  0.30688430  0.45567797  0.40290695  1  -0.122717  0  -0.023081  -0.150897  0  3.979654  0
C  C77  1  0.44814958  0.29862321  0.34911946  1  0.024319  0  -0.088863  -0.134012  0  3.967122  0
C  C78  1  0.25968722  0.41718422  0.41389168  1  -0.095101  0  -0.012526  -0.113048  0  3.932634  0
C  C79  1  0.49432880  0.33741716  0.33809638  1  -0.14619  0  -0.022755  -0.121569  0  3.978848  0
C  C80  1  0.38026913  0.34168497  0.37299377  1  -0.172975  0  -0.019696  -0.005187  0  4.066218  0
C  C81  1  0.37613485  0.41250641  0.37952746  1  -0.125706  0  -0.017559  -0.030104  0  4.062849  0
C  C82  1  0.72769333  0.58274942  0.63334376  1  -0.123617  0  -0.020131  -0.137763  0  3.956187  0
C  C83  1  0.52613146  0.67687490  0.62134663  1  0.065304  0  -0.090148  -0.137173  0  3.973693  0
C  C84  1  0.74567639  0.58663109  0.59075673  1  -0.070148  0  -0.013841  -0.12248  0  3.937919  0
C  C85  1  0.50894214  0.67163406  0.66365012  1  -0.189123  0  -0.025438  -0.128463  0  3.990951  0
C  C86  1  0.60595283  0.64527519  0.61037492  1  -0.118451  0  -0.018978  -0.005791  0  4.06658  0
C  C87  1  0.64760761  0.61651944  0.64460958  1  -0.179413  0  -0.015162  -0.026905  0  4.055821  0
C  C88  1  0.07491921  0.22736264  0.62820136  1  -0.089582  0  -0.024787  -0.159699  0  3.994841  0
C  C89  1  0.17486985  0.02433930  0.62076313  1  0.094979  0  -0.087733  -0.136813  0  3.968265  0
C  C90  1  0.08900490  0.24271872  0.58564484  1  -0.134199  0  -0.010492  -0.112342  0  3.937491  0
C  C91  1  0.16048876  0.00934477  0.66287650  1  -0.169586  0  -0.019953  -0.11371  0  3.971548  0
C  C92  1  0.14320234  0.10380196  0.60842282  1  -0.208275  0  -0.018933  -0.004753  0  4.063382  0
C  C93  1  0.10561657  0.14766320  0.64147832  1  -0.156937  0  -0.017857  -0.032666  0  4.066088  0
C  C94  1  0.83514751  0.80178634  0.39917272  1  -0.154277  0  -0.023911  -0.151928  0  3.983336  0
C  C95  1  0.90251961  0.94536955  0.34885064  1  0.111977  0  -0.085453  -0.130455  0  3.955819  0
C  C96  1  0.90579248  0.75742693  0.41343426  1  -0.112025  0  -0.012253  -0.115148  0  3.93847  0
C  C97  1  0.83214144  0.98929399  0.33507065  1  -0.223532  0  -0.022521  -0.121149  0  3.981638  0
C  C98  1  0.90314319  0.87724943  0.37226400  1  -0.152349  0  -0.019671  -0.00727  0  4.067631  0
C  C99  1  0.83332765  0.87071271  0.37563846  1  -0.122085  0  -0.017646  -0.030929  0  4.067033  0
C  C100  1  0.65244208  0.15598379  0.15040700  1  0.075395  0  -0.014192  -0.111269  0  3.950774  0
C  C101  1  0.59597373  0.09812374  0.09857162  1  0.060805  0  -0.014747  -0.110694  0  3.954621  0
C  C102  1  0.66646593  0.16847244  0.10729288  1  0.461256  0  0.11079  0.274482  0  4.035845  0
C  C103  1  0.58193654  0.08576878  0.14167527  1  0.443405  0  0.105287  0.268106  0  4.046406  0
C  C104  1  0.63898089  0.14028652  0.08205269  1  -0.040731  0  -0.08449  -0.199308  0  3.959609  0
C  C105  1  0.60943613  0.11381281  0.16691742  1  0.07224  0  -0.088267  -0.20314  0  3.974206  0
C  C106  1  0.67167944  0.52187659  0.11969834  1  -0.10874  0  -0.022812  -0.14916  0  3.978199  0
C  C107  1  0.57660532  0.72495589  0.12761440  1  0.071494  0  -0.089102  -0.136651  0  3.9707  0
C  C108  1  0.66522140  0.50651776  0.16245128  1  -0.11422  0  -0.013077  -0.1153  0  3.937266  0
C  C109  1  0.58377575  0.73955022  0.08521690  1  -0.246304  0  -0.022578  -0.1208  0  3.983611  0
C  C110  1  0.60815041  0.64554234  0.14000373  1  -0.185604  0  -0.019489  -0.004487  0  4.068139  0
C  C111  1  0.63882107  0.60154364  0.10670693  1  -0.083199  0  -0.017649  -0.03336  0  4.067095  0
C  C112  1  0.08503280  0.11523647  0.17939100  1  -0.149587  0  -0.023784  -0.151555  0  3.980606  0
C  C113  1  0.17032524  0.12446845  0.07333149  1  0.076357  0  -0.088482  -0.135494  0  3.972197  0
C  C114  1  0.01269060  0.15773563  0.16682195  1  -0.073791  0  -0.012251  -0.114283  0  3.935751  0
C  C115  1  0.24185729  0.08238127  0.08596109  1  -0.196211  0  -0.022994  -0.121022  0  3.983093  0
C  C116  1  0.11345626  0.13603764  0.10749189  1  -0.21341  0  -0.020384  -0.007333  0  4.06934  0
C  C117  1  0.14303508  0.10255561  0.14540557  1  -0.161796  0  -0.018736  -0.033563  0  4.069357  0
C  C118  1  0.34156926  0.85119911  0.84824053  1  0.062698  0  -0.013004  -0.110208  0  3.956006  0
C  C119  1  0.40257703  0.90070568  0.90181742  1  0.022862  0  -0.015268  -0.114592  0  3.958828  0
C  C120  1  0.30140009  0.92318160  0.86242149  1  0.439835  0  0.105042  0.268137  0  4.047372  0
C  C121  1  0.44243021  0.82835392  0.88796107  1  0.440767  0  0.109727  0.272752  0  4.035543  0
C  C122  1  0.33091880  0.94733272  0.88857982  1  0.065894  0  -0.088033  -0.202235  0  3.977897  0
C  C123  1  0.41269540  0.80402047  0.86195827  1  0.013531  0  -0.080481  -0.19307  0  3.946153  0
C  C124  1  0.40807572  0.45301913  0.85616599  1  -0.131899  0  -0.02298  -0.15013  0  3.975563  0
C  C125  1  0.34699853  0.30191952  0.89895297  1  0.058166  0  -0.089489  -0.134886  0  3.973789  0
C  C126  1  0.34011014  0.49416429  0.83870215  1  -0.088236  0  -0.010875  -0.115006  0  3.93266  0
C  C127  1  0.41489229  0.26076968  0.91573213  1  -0.177886  0  -0.024938  -0.125482  0  3.985726  0
C  C128  1  0.34463669  0.37204215  0.87750226  1  -0.185612  0  -0.02009  -0.009216  0  4.069496  0
C  C129  1  0.41090478  0.38281230  0.87844542  1  -0.149409  0  -0.017075  -0.029853  0  4.062276  0
C  C130  1  0.94804465  0.78825763  0.85084997  1  -0.093328  0  -0.022795  -0.14857  0  3.976738  0
C  C131  1  0.80448925  0.95126511  0.89938612  1  0.079227  0  -0.088982  -0.134947  0  3.971792  0
C  C132  1  0.99180661  0.82946299  0.83531725  1  -0.136586  0  -0.011573  -0.115217  0  3.939003  0
C  C133  1  0.76136663  0.91011711  0.91475975  1  -0.170428  0  -0.023342  -0.12337  0  3.98548  0
C  C134  1  0.87247684  0.90648806  0.87625296  1  -0.22902  0  -0.019979  -0.007338  0  4.069908  0
C  C135  1  0.87951996  0.83224700  0.87443905  1  -0.103963  0  -0.017426  -0.030803  0  4.062139  0
S  S136  1  0.29997956  0.32878008  0.39610235  1  0.304749  0  0.110047  0.161794  0  2.744842  0
S  S137  1  0.45661021  0.42539893  0.35668493  1  0.337429  0  0.104429  0.170012  0  2.809166  0
S  S138  1  0.66556639  0.63253155  0.56483390  1  0.315362  0  0.116215  0.174143  0  2.739448  0
S  S139  1  0.58844727  0.62956724  0.69029861  1  0.34806  0  0.110816  0.181251  0  2.818946  0
S  S140  1  0.13887820  0.16063207  0.56203283  1  0.316832  0  0.121096  0.17756  0  2.74209  0
S  S141  1  0.10862809  0.09059268  0.68776028  1  0.323119  0  0.108442  0.172105  0  2.800086  0
S  S142  1  0.96919652  0.79959798  0.39840290  1  0.311382  0  0.117043  0.173242  0  2.748394  0
S  S143  1  0.76664201  0.94904055  0.35016258  1  0.334344  0  0.100118  0.164902  0  2.814568  0
S  S144  1  0.61881143  0.58863665  0.18648593  1  0.315036  0  0.10954  0.16176  0  2.744882  0
S  S145  1  0.62766827  0.65816650  0.06012561  1  0.349813  0  0.112035  0.180937  0  2.809915  0
S  S146  1  0.01545072  0.18146490  0.11405121  1  0.364097  0  0.117475  0.174149  0  2.748295  0
S  S147  1  0.24104371  0.05630528  0.13882368  1  0.368188  0  0.104015  0.171207  0  2.816938  0
S  S148  1  0.27977716  0.44825864  0.84991635  1  0.341511  0  0.124234  0.184789  0  2.740776  0
S  S149  1  0.47572168  0.30665947  0.90616435  1  0.348904  0  0.103345  0.169793  0  2.81017  0
S  S150  1  0.95003068  0.92074031  0.84956253  1  0.327403  0  0.114668  0.169669  0  2.748005  0
S  S151  1  0.80238609  0.81757003  0.90154497  1  0.340261  0  0.107897  0.175921  0  2.809778  0
S  S152  1  0.29147608  0.54429555  0.41736924  1  3.091582  0  0.542635  1.174817  0  5.999592  0
S  S153  1  0.79058039  0.54504755  0.67196904  1  3.135215  0  0.53827  1.186602  0  6.038946  0
S  S154  1  0.01984890  0.29392430  0.66341666  1  3.103333  0  0.557898  1.190256  0  5.97195  0
S  S155  1  0.75211025  0.78370960  0.41011183  1  3.104524  0  0.542102  1.175828  0  6.001859  0
S  S156  1  0.70911899  0.45546040  0.08313345  1  3.103304  0  0.544083  1.173988  0  5.998047  0
S  S157  1  0.10814386  0.07342781  0.22982989  1  3.058296  0  0.542635  1.177788  0  6.003954  0
S  S158  1  0.48223602  0.48178567  0.85582490  1  3.102824  0  0.542999  1.176509  0  6.000564  0
S  S159  1  0.97225011  0.69104870  0.84707305  1  3.086915  0  0.542414  1.175123  0  6.010001  0
O  O160  1  0.00037323  0.49924802  0.49988174  1  -1.224361  0  -0.571373  -1.04091  0  2.520741  0
O  O161  1  0.07395746  0.31411018  0.52076291  1  -1.166707  0  -0.315234  -0.539777  0  2.312542  0
O  O162  1  0.02192277  0.54297205  0.58407534  1  -1.159191  0  -0.308456  -0.5328  0  2.335532  0
O  O163  1  0.14762291  0.51028140  0.44348840  1  -1.158559  0  -0.301251  -0.516572  0  2.378903  0
O  O164  1  0.04775961  0.37530291  0.57725207  1  -1.166583  0  -0.305358  -0.524315  0  2.37601  0
O  O165  1  0.15812285  0.38855341  0.44801484  1  -1.169197  0  -0.317462  -0.544325  0  2.318029  0
O  O166  1  0.08935389  0.58256024  0.52884346  1  -1.137743  0  -0.304445  -0.529082  0  2.364807  0
O  O167  1  0.99703021  0.66167050  0.45226717  1  -1.161604  0  -0.313143  -0.537843  0  2.331826  0
O  O168  1  0.88179107  0.48683858  0.45049078  1  -1.160169  0  -0.307412  -0.534194  0  2.354809  0
O  O169  1  0.89391631  0.64410900  0.44275188  1  -1.133677  0  -0.302402  -0.516369  0  2.371389  0
O  O170  1  0.99987903  0.39147764  0.43755593  1  -1.166199  0  -0.314688  -0.545546  0  2.316063  0
O  O171  1  0.87770474  0.50767765  0.58189412  1  -1.160773  0  -0.30676  -0.529962  0  2.353763  0
O  O172  1  0.81824279  0.58397936  0.52685188  1  -1.163372  0  -0.311431  -0.534135  0  2.338985  0
O  O173  1  0.75111762  0.25016485  0.24987328  1  -1.233745  0  -0.570872  -1.036849  0  2.524645  0
O  O174  1  0.60362211  0.35547743  0.30742435  1  -1.153525  0  -0.318164  -0.545034  0  2.323199  0
O  O175  1  0.66535832  0.16521427  0.21763390  1  -1.162009  0  -0.313601  -0.544367  0  2.329229  0
O  O176  1  0.74006981  0.37475922  0.17183814  1  -1.158864  0  -0.304165  -0.520846  0  2.37877  0
O  O177  1  0.59179683  0.24905495  0.29776892  1  -1.164868  0  -0.313781  -0.53499  0  2.311984  0
O  O178  1  0.66723524  0.43533359  0.22724187  1  -1.163966  0  -0.317057  -0.542762  0  2.320006  0
O  O179  1  0.71778700  0.22432413  0.16384823  1  -1.143005  0  -0.302052  -0.525448  0  2.362855  0
O  O180  1  0.88018179  0.21285885  0.17009474  1  -1.167429  0  -0.312902  -0.536848  0  2.332015  0
O  O181  1  0.85605653  0.24739172  0.31421733  1  -1.164404  0  -0.307719  -0.534616  0  2.357442  0
O  O182  1  0.93416985  0.18122065  0.22966273  1  -1.125941  0  -0.301773  -0.516075  0  2.372321  0
O  O183  1  0.76120122  0.36669916  0.30382325  1  -1.171741  0  -0.313814  -0.54382  0  2.315774  0
O  O184  1  0.74099929  0.09486413  0.30017685  1  -1.174169  0  -0.318958  -0.547737  0  2.331648  0
O  O185  1  0.85857730  0.09198140  0.30059955  1  -1.167594  0  -0.30947  -0.52593  0  2.32278  0
O  O186  1  0.24926408  0.74964462  0.74932078  1  -1.216361  0  -0.571221  -1.037101  0  2.526812  0
O  O187  1  0.37515703  0.72339350  0.66748258  1  -1.16781  0  -0.318081  -0.540792  0  2.306214  0
O  O188  1  0.35580818  0.75441506  0.81116665  1  -1.163884  0  -0.306564  -0.531414  0  2.336169  0
O  O189  1  0.16455680  0.93374396  0.72628430  1  -1.158001  0  -0.314889  -0.539778  0  2.329467  0
O  O190  1  0.43170355  0.68752340  0.72651689  1  -1.145114  0  -0.316119  -0.542984  0  2.344131  0
O  O191  1  0.22368655  0.87579492  0.66815099  1  -1.167276  0  -0.312933  -0.53417  0  2.307863  0
O  O192  1  0.25128923  0.86763591  0.80497979  1  -1.153157  0  -0.310497  -0.537972  0  2.354458  0
O  O193  1  0.09719525  0.85390911  0.80518001  1  -1.165837  0  -0.315842  -0.541159  0  2.332708  0
O  O194  1  0.17885992  0.64998385  0.71879177  1  -1.159198  0  -0.308373  -0.536117  0  2.353425  0
O  O195  1  0.09059705  0.74662810  0.79269739  1  -1.154656  0  -0.301402  -0.515394  0  2.37499  0
O  O196  1  0.21425149  0.72169860  0.66422809  1  -1.168135  0  -0.313727  -0.54448  0  2.325337  0
O  O197  1  0.36257994  0.59521023  0.79778764  1  -1.157409  0  -0.302087  -0.517143  0  2.379466  0
O  O198  1  0.24445793  0.59548917  0.80487084  1  -1.158849  0  -0.310063  -0.531424  0  2.331754  0
O  O199  1  0.50061396  0.99960564  0.99924221  1  -1.223474  0  -0.570953  -1.032567  0  2.530009  0
O  O200  1  0.50441891  0.15793737  0.95276982  1  -1.169328  0  -0.318251  -0.546924  0  2.33523  0
O  O201  1  0.38548381  0.99392338  0.94260033  1  -1.17096  0  -0.314957  -0.546759  0  2.324589  0
O  O202  1  0.65724978  0.88822394  0.95043840  1  -1.169693  0  -0.316406  -0.542025  0  2.340286  0
O  O203  1  0.39387116  0.15211274  0.94502808  1  -1.180797  0  -0.317015  -0.540368  0  2.311572  0
O  O204  1  0.65770366  0.00507575  0.94882650  1  -1.171385  0  -0.314877  -0.537249  0  2.308578  0
O  O205  1  0.50011677  0.89084868  0.93773694  1  -1.159422  0  -0.308329  -0.535465  0  2.360079  0
O  O206  1  0.56903988  0.81524684  0.02161001  1  -1.147042  0  -0.314363  -0.538827  0  2.332893  0
O  O207  1  0.52516483  0.03511515  0.08524673  1  -1.157819  0  -0.309217  -0.536062  0  2.359117  0
O  O208  1  0.53066056  0.87303383  0.08032053  1  -1.167101  0  -0.314269  -0.534653  0  2.312414  0
O  O209  1  0.59080416  0.08026336  0.03156932  1  -1.171522  0  -0.312047  -0.541689  0  2.325198  0
O  O210  1  0.31528737  0.07866816  0.02135707  1  -1.169348  0  -0.314343  -0.536016  0  2.304788  0
O  O211  1  0.37449094  0.01963936  0.07914527  1  -1.167181  0  -0.316808  -0.543016  0  2.34229  0
O  O212  1  0.22065844  0.60595114  0.39344503  1  -1.181351  0  -0.355719  -0.522965  0  2.136336  0
O  O213  1  0.26610375  0.54658937  0.46028115  1  -1.264676  0  -0.290584  -0.481293  0  2.122595  0
O  O214  1  0.35792201  0.55749065  0.39861784  1  -1.2939  0  -0.318855  -0.546649  0  2.143354  0
O  O215  1  0.81506462  0.45585424  0.67524688  1  -1.231232  0  -0.363864  -0.54108  0  2.184789  0
O  O216  1  0.85601979  0.56221239  0.65945054  1  -1.295485  0  -0.319629  -0.533747  0  2.122618  0
O  O217  1  0.74179551  0.56839575  0.70941629  1  -1.291068  0  -0.313766  -0.524401  0  2.146229  0
O  O218  1  0.06864894  0.34124900  0.66427653  1  -1.187069  0  -0.345016  -0.51165  0  2.136648  0
O  O219  1  0.95097413  0.34798825  0.64680599  1  -1.303727  0  -0.282855  -0.504136  0  2.222585  0
O  O220  1  0.01739609  0.25030061  0.70315501  1  -1.288151  0  -0.306913  -0.531218  0  2.136945  0
O  O221  1  0.77520513  0.70963598  0.38739668  1  -1.190844  0  -0.353575  -0.519005  0  2.143072  0
O  O222  1  0.73822039  0.76150557  0.45307457  1  -1.270729  0  -0.295397  -0.488257  0  2.116542  0
O  O223  1  0.69484182  0.84740018  0.38832528  1  -1.296121  0  -0.321405  -0.549871  0  2.143304  0
O  O224  1  0.79977093  0.41534346  0.08666697  1  -1.182772  0  -0.357906  -0.52628  0  2.130495  0
O  O225  1  0.68207750  0.39706840  0.09532745  1  -1.266837  0  -0.291046  -0.482419  0  2.129248  0
O  O226  1  0.69898287  0.50103592  0.04349212  1  -1.293019  0  -0.314024  -0.538981  0  2.142042  0
O  O227  1  0.08293077  0.14567663  0.25444492  1  -1.174827  0  -0.353859  -0.519516  0  2.141747  0
O  O228  1  0.06145854  0.03448999  0.24905079  1  -1.272818  0  -0.299663  -0.492914  0  2.109565  0
O  O229  1  0.19044839  0.03503285  0.22604777  1  -1.257506  0  -0.320315  -0.549193  0  2.142544  0
O  O230  1  0.51929902  0.48354785  0.80833363  1  -1.180151  0  -0.353675  -0.522157  0  2.136176  0
O  O231  1  0.45083190  0.55821871  0.86569234  1  -1.274434  0  -0.295245  -0.487417  0  2.110773  0
O  O232  1  0.53824584  0.41934182  0.87892448  1  -1.297287  0  -0.317361  -0.545535  0  2.140917  0
O  O233  1  0.97373565  0.68936734  0.79882555  1  -1.157728  0  -0.352013  -0.51896  0  2.141295  0
O  O234  1  0.04807701  0.64426404  0.85693578  1  -1.275825  0  -0.298766  -0.493686  0  2.119495  0
O  O235  1  0.90792360  0.67659005  0.86862536  1  -1.291952  0  -0.318105  -0.54527  0  2.142806  0
F  F236  1  0.78272924  0.51555575  0.39884274  1  -0.621984  0  -0.097103  -0.130693  0  1.35153  0
F  F237  1  0.97010459  0.23413084  0.35094443  1  -0.622751  0  -0.098394  -0.131723  0  1.351704  0
F  F238  1  0.15994636  0.66245138  0.54189705  1  -0.62566  0  -0.093292  -0.124783  0  1.355882  0
F  F239  1  0.08733537  0.59112444  0.70615040  1  -0.630349  0  -0.098207  -0.131553  0  1.351035  0
F  F240  1  0.70786976  0.20793620  0.08873093  1  -0.621958  0  -0.09015  -0.120833  0  1.356537  0
F  F241  1  0.54127272  0.04532233  0.16036892  1  -0.628038  0  -0.100451  -0.135302  0  1.348809  0
F  F242  1  0.23179956  0.97192572  0.85115140  1  -0.624024  0  -0.101066  -0.136118  0  1.345909  0
F  F243  1  0.51128890  0.77933110  0.89979180  1  -0.616759  0  -0.093784  -0.127049  0  1.347231  0
