# generated using pymatgen
data_CaH11C15SO6
_symmetry_space_group_name_H-M   'P 1'
_cell_length_a   5.45147545
_cell_length_b   11.82629075
_cell_length_c   23.08038235
_cell_angle_alpha   104.69231286
_cell_angle_beta   89.99920620
_cell_angle_gamma   90.00020476
_symmetry_Int_Tables_number   1
_chemical_formula_structural   CaH11C15SO6
_chemical_formula_sum   'Ca4 H44 C60 S4 O24'
_cell_volume   1439.35394691
_cell_formula_units_Z   4
loop_
 _symmetry_equiv_pos_site_id
 _symmetry_equiv_pos_as_xyz
  1  'x, y, z'
loop_
 _atom_site_type_symbol
 _atom_site_label
 _atom_site_symmetry_multiplicity
 _atom_site_fract_x
 _atom_site_fract_y
 _atom_site_fract_z
 _atom_site_occupancy
 _atom_site_pbe_bader_charge
 _atom_site_pbe_bader_spin_density
 _atom_site_pbe_cm5_charge
 _atom_site_pbe_ddec_charge
 _atom_site_pbe_ddec_spin_density
 _atom_site_pbe_ddec_sum_bond_order
 _atom_site_pbe_magmom
Ca  Ca0  1  0.79552361  0.37298257  0.78122432  1  1.658084  0  0.916676  1.433381  0  1.464609  0
Ca  Ca1  1  0.29553135  0.12697021  0.71877694  1  1.658342  0  0.916735  1.433371  0  1.464791  0
Ca  Ca2  1  0.20446257  0.62701901  0.21877995  1  1.658171  0  0.916667  1.433452  0  1.464514  0
Ca  Ca3  1  0.70448234  0.87303653  0.28122662  1  1.658253  0  0.916718  1.433372  0  1.464744  0
H  H4  1  0.29860164  0.84390590  0.89258916  1  0.107317  0  0.108173  0.11022  0  1.028821  0
H  H5  1  0.79859492  0.65607062  0.60740879  1  0.107484  0  0.108153  0.110261  0  1.028657  0
H  H6  1  0.70138637  0.15608697  0.10741456  1  0.107404  0  0.108148  0.110167  0  1.028845  0
H  H7  1  0.20142427  0.34392447  0.39258911  1  0.107568  0  0.108127  0.11018  0  1.028938  0
H  H8  1  0.27385667  0.76902758  0.00790034  1  0.121714  0  0.109515  0.113373  0  1.014052  0
H  H9  1  0.77385617  0.73095427  0.49211024  1  0.1217  0  0.109508  0.113392  0  1.013891  0
H  H10  1  0.72614234  0.23097338  0.99210777  1  0.121598  0  0.109511  0.113515  0  1.013995  0
H  H11  1  0.22613734  0.26904958  0.50790209  1  0.121639  0  0.10954  0.113416  0  1.013962  0
H  H12  1  0.63243771  0.65612267  0.82738497  1  0.139461  0  0.116331  0.120749  0  1.039355  0
H  H13  1  0.13236443  0.84382388  0.67259658  1  0.139487  0  0.116192  0.120572  0  1.039551  0
H  H14  1  0.36754296  0.34386841  0.17260467  1  0.139549  0  0.116338  0.120818  0  1.039381  0
H  H15  1  0.86768778  0.15619182  0.32741147  1  0.139065  0  0.116222  0.120618  0  1.039672  0
H  H16  1  0.62878751  0.56430706  0.94523135  1  0.146292  0  0.112184  0.120423  0  1.049624  0
H  H17  1  0.12877256  0.93568131  0.55476624  1  0.146591  0  0.112182  0.12045  0  1.049778  0
H  H18  1  0.37123718  0.43568343  0.05476256  1  0.146366  0  0.112178  0.120541  0  1.049674  0
H  H19  1  0.87123930  0.06433201  0.44523200  1  0.146416  0  0.112195  0.120471  0  1.049628  0
H  H20  1  0.13420305  0.79560031  0.11355066  1  0.124358  0  0.11807  0.120133  0  1.008435  0
H  H21  1  0.63421659  0.70441676  0.38646040  1  0.124219  0  0.118091  0.120296  0  1.008436  0
H  H22  1  0.86577395  0.20441801  0.88645769  1  0.124441  0  0.118003  0.120205  0  1.008288  0
H  H23  1  0.36578793  0.29558092  0.61355037  1  0.124334  0  0.1181  0.120264  0  1.008531  0
H  H24  1  0.19399163  0.99356699  0.83746597  1  0.118577  0  0.113995  0.114728  0  1.011848  0
H  H25  1  0.69398634  0.50642929  0.66253668  1  0.118784  0  0.114055  0.114796  0  1.011883  0
H  H26  1  0.80601839  0.00643293  0.16253942  1  0.118682  0  0.114035  0.114786  0  1.011877  0
H  H27  1  0.30600350  0.49356715  0.33745531  1  0.119219  0  0.114056  0.114877  0  1.01183  0
H  H28  1  0.51867779  0.81305116  0.77765387  1  0.104603  0  0.103257  0.104322  0  1.037854  0
H  H29  1  0.01862631  0.68688931  0.72232123  1  0.105167  0  0.103243  0.104424  0  1.037611  0
H  H30  1  0.48130288  0.18696257  0.22235049  1  0.104677  0  0.103339  0.104397  0  1.037859  0
H  H31  1  0.98138555  0.31311714  0.27767797  1  0.104999  0  0.1032  0.104438  0  1.03769  0
H  H32  1  0.48248086  0.59818076  0.05128044  1  0.107457  0  0.109136  0.107295  0  1.037563  0
H  H33  1  0.98252451  0.90185307  0.44871425  1  0.108139  0  0.109178  0.107375  0  1.037402  0
H  H34  1  0.51748880  0.40181842  0.94871359  1  0.107429  0  0.109125  0.107337  0  1.037745  0
H  H35  1  0.01751119  0.09817333  0.55128505  1  0.107425  0  0.109095  0.10728  0  1.037556  0
H  H36  1  0.60948564  0.87569899  0.97512177  1  -0.02915  0  0.076959  0.101553  0  1.031078  0
H  H37  1  0.10945736  0.62429851  0.52488168  1  -0.028681  0  0.076987  0.101494  0  1.031108  0
H  H38  1  0.39050236  0.12428586  0.02494476  1  -0.02903  0  0.07691  0.101492  0  1.031196  0
H  H39  1  0.89053616  0.37568065  0.47504505  1  -0.02872  0  0.076958  0.101415  0  1.030837  0
H  H40  1  0.78294008  0.00190426  0.00793311  1  0.020625  0  0.078623  0.100866  0  1.036524  0
H  H41  1  0.28293651  0.49810271  0.49207287  1  0.020353  0  0.078541  0.100725  0  1.036733  0
H  H42  1  0.21706627  0.99809288  0.99213569  1  0.0272  0  0.078598  0.100782  0  1.036905  0
H  H43  1  0.71705884  0.50188871  0.50785569  1  0.026976  0  0.07852  0.100681  0  1.036697  0
H  H44  1  0.62956370  0.99084154  0.93902077  1  0.03787  0  0.081284  0.110611  0  1.008791  0
H  H45  1  0.12954090  0.50915193  0.56097523  1  0.037917  0  0.081298  0.11062  0  1.008991  0
H  H46  1  0.37041880  0.00915937  0.06103935  1  0.037067  0  0.081379  0.110798  0  1.009274  0
H  H47  1  0.87043977  0.49083844  0.43895061  1  0.036913  0  0.081358  0.110706  0  1.008968  0
C  C48  1  0.12706172  0.83849135  0.86786883  1  -0.077877  0  -0.078787  -0.086983  0  3.97745  0
C  C49  1  0.62703690  0.66147065  0.63212316  1  -0.07818  0  -0.079037  -0.08739  0  3.97705  0
C  C50  1  0.87291712  0.16151621  0.13213396  1  -0.048126  0  -0.078711  -0.0867  0  3.977576  0
C  C51  1  0.37297312  0.33851870  0.36787972  1  -0.078055  0  -0.078896  -0.086989  0  3.977208  0
C  C52  1  0.97006360  0.74294858  0.86343530  1  -0.245485  0  -0.02087  -0.09661  0  3.996001  0
C  C53  1  0.47000160  0.75701793  0.63655151  1  -0.245099  0  -0.02079  -0.096635  0  3.995349  0
C  C54  1  0.02993908  0.25704592  0.13656687  1  -0.245224  0  -0.020831  -0.096584  0  3.995833  0
C  C55  1  0.53000475  0.24297766  0.36345381  1  -0.24544  0  -0.020787  -0.096594  0  3.995592  0
C  C56  1  0.10089900  0.73164937  0.01762989  1  -0.100889  0  -0.076454  -0.086184  0  3.965221  0
C  C57  1  0.60087630  0.76833063  0.48235624  1  -0.099174  0  -0.076372  -0.086331  0  3.965089  0
C  C58  1  0.89908901  0.26831937  0.98236285  1  -0.100118  0  -0.076441  -0.08651  0  3.965468  0
C  C59  1  0.39909153  0.23166636  0.51764405  1  -0.099523  0  -0.076371  -0.086193  0  3.964753  0
C  C60  1  0.95921036  0.66344735  0.97119257  1  -0.216409  0  -0.018624  -0.083917  0  3.985986  0
C  C61  1  0.45915429  0.83652283  0.52878342  1  -0.217111  0  -0.018572  -0.083525  0  3.986084  0
C  C62  1  0.04081617  0.33654342  0.02879227  1  -0.216363  0  -0.018443  -0.083409  0  3.98523  0
C  C63  1  0.54080803  0.16348613  0.47121433  1  -0.216938  0  -0.018548  -0.083479  0  3.985596  0
C  C64  1  0.75078450  0.73171108  0.83112074  1  -0.001303  0  -0.073523  -0.083473  0  3.962431  0
C  C65  1  0.25069668  0.76823526  0.66886394  1  -0.001477  0  -0.073276  -0.083035  0  3.962521  0
C  C66  1  0.24921451  0.26828610  0.16888260  1  -0.001406  0  -0.073603  -0.083698  0  3.96284  0
C  C67  1  0.74931150  0.23176074  0.33113450  1  -0.001347  0  -0.073365  -0.08331  0  3.962749  0
C  C68  1  0.73698876  0.61448202  0.98236461  1  -0.023827  0  -0.081405  -0.092313  0  3.981969  0
C  C69  1  0.23700262  0.88553583  0.51763864  1  -0.024435  0  -0.081458  -0.092454  0  3.982854  0
C  C70  1  0.26304327  0.38550970  0.01763465  1  -0.024184  0  -0.081512  -0.092578  0  3.982312  0
C  C71  1  0.76300557  0.11447514  0.48236323  1  -0.024153  0  -0.081488  -0.092592  0  3.982119  0
C  C72  1  0.02144709  0.74705055  0.07661740  1  0.051771  0  -0.067895  -0.080714  0  3.921806  0
C  C73  1  0.52144279  0.75296897  0.42337213  1  0.05193  0  -0.067968  -0.080738  0  3.922295  0
C  C74  1  0.97852258  0.25296312  0.92338608  1  0.051873  0  -0.067909  -0.08073  0  3.922102  0
C  C75  1  0.47856356  0.24703080  0.57663107  1  0.051655  0  -0.068044  -0.081003  0  3.922256  0
C  C76  1  0.06665087  0.92259806  0.83760736  1  0.029742  0  -0.074414  -0.094456  0  3.948117  0
C  C77  1  0.56664193  0.57736422  0.66238569  1  0.029215  0  -0.074292  -0.094115  0  3.948234  0
C  C78  1  0.93334448  0.07740123  0.16238841  1  0.000988  0  -0.074538  -0.094705  0  3.948274  0
C  C79  1  0.43332774  0.42261745  0.33760592  1  0.028811  0  -0.074346  -0.094536  0  3.948  0
C  C80  1  0.68866215  0.81899056  0.80302561  1  -0.051587  0  -0.079455  -0.093877  0  3.943119  0
C  C81  1  0.18863797  0.68095805  0.69696383  1  -0.051689  0  -0.079628  -0.094251  0  3.943387  0
C  C82  1  0.31132585  0.18101359  0.19697809  1  -0.051563  0  -0.079509  -0.093831  0  3.943279  0
C  C83  1  0.81139039  0.31903989  0.30303787  1  -0.05172  0  -0.079518  -0.094223  0  3.943293  0
C  C84  1  0.65677210  0.63328260  0.04111384  1  -0.040384  0  -0.07761  -0.083985  0  3.95203  0
C  C85  1  0.15683347  0.86674088  0.45889052  1  -0.040736  0  -0.077601  -0.084062  0  3.951797  0
C  C86  1  0.34322141  0.36673355  0.95888775  1  -0.040182  0  -0.077597  -0.084134  0  3.952191  0
C  C87  1  0.84319672  0.13327174  0.54111025  1  -0.039869  0  -0.077491  -0.083977  0  3.951492  0
C  C88  1  0.70750230  0.71074124  0.15134726  1  1.56887  0  0.243769  0.623918  0  4.189651  0
C  C89  1  0.20750151  0.78930259  0.34865278  1  1.568841  0  0.243595  0.623841  0  4.190039  0
C  C90  1  0.29250588  0.28925816  0.84865027  1  1.569096  0  0.243792  0.623851  0  4.189686  0
C  C91  1  0.79251035  0.21069815  0.65135184  1  1.569117  0  0.243626  0.623899  0  4.189942  0
C  C92  1  0.78306933  0.00057279  0.76984713  1  1.619274  0  0.231281  0.623358  0  4.211023  0
C  C93  1  0.28305110  0.49940418  0.73015214  1  1.61976  0  0.23121  0.62326  0  4.210897  0
C  C94  1  0.21696454  0.99943229  0.23015754  1  1.619171  0  0.231209  0.6231  0  4.2109  0
C  C95  1  0.71696626  0.50058634  0.26984220  1  1.620015  0  0.23117  0.623113  0  4.210997  0
C  C96  1  0.84646645  0.91348307  0.80531478  1  -0.031819  0  -0.000199  -0.016137  0  3.928003  0
C  C97  1  0.34647116  0.58646978  0.69466865  1  -0.032647  0  -0.000291  -0.016133  0  3.928052  0
C  C98  1  0.15349771  0.08652480  0.19469282  1  -0.033551  0  -0.000248  -0.016137  0  3.927638  0
C  C99  1  0.65353702  0.41352164  0.30532624  1  -0.03273  0  -0.000329  -0.016039  0  3.927756  0
C  C100  1  0.79931617  0.69734616  0.08852769  1  -0.036697  0  -0.000315  -0.025116  0  3.931345  0
C  C101  1  0.29936636  0.80266852  0.41146921  1  -0.0372  0  -0.000371  -0.025222  0  3.931754  0
C  C102  1  0.20067918  0.30265274  0.91147541  1  -0.037135  0  -0.000233  -0.025027  0  3.930944  0
C  C103  1  0.70066568  0.19734442  0.58853636  1  -0.037105  0  -0.000319  -0.025005  0  3.931444  0
C  C104  1  0.61343783  0.97141879  0.98302063  1  -0.046167  0  -0.2541  -0.310866  0  3.988757  0
C  C105  1  0.11342229  0.52857328  0.51697959  1  -0.04641  0  -0.254029  -0.310638  0  3.989466  0
C  C106  1  0.38650798  0.02857452  0.01705597  1  -0.028189  0  -0.254125  -0.310872  0  3.989639  0
C  C107  1  0.88656022  0.47141599  0.48294265  1  -0.028131  0  -0.254104  -0.310677  0  3.989161  0
S  S108  1  0.06375039  0.62954660  0.89592843  1  2.419557  0  0.501818  1.002707  0  5.675335  0
S  S109  1  0.56372012  0.87044267  0.60406597  1  2.417858  0  0.501675  1.002061  0  5.673468  0
S  S110  1  0.93623762  0.37045579  0.10406163  1  2.418394  0  0.5019  1.002663  0  5.674276  0
S  S111  1  0.43628990  0.12957356  0.39593694  1  2.420084  0  0.501807  1.002446  0  5.674109  0
O  O112  1  0.56024748  0.03181329  0.77009943  1  -1.216172  0  -0.373035  -0.643605  0  2.201577  0
O  O113  1  0.06022662  0.46815168  0.72990299  1  -1.216063  0  -0.372811  -0.643411  0  2.201655  0
O  O114  1  0.43979739  0.96818659  0.22989208  1  -1.215925  0  -0.372856  -0.643351  0  2.201448  0
O  O115  1  0.93977056  0.53185571  0.27009718  1  -1.216  0  -0.372832  -0.643356  0  2.201776  0
O  O116  1  0.86470078  0.73623526  0.19422107  1  -1.239744  0  -0.395817  -0.69086  0  2.266875  0
O  O117  1  0.36470416  0.76380493  0.30577162  1  -1.239758  0  -0.395889  -0.691019  0  2.266621  0
O  O118  1  0.13529640  0.26376491  0.80577481  1  -1.239809  0  -0.395891  -0.690898  0  2.266791  0
O  O119  1  0.63528752  0.23619715  0.69422707  1  -1.239868  0  -0.395881  -0.691011  0  2.266622  0
O  O120  1  0.95708418  0.03289964  0.74144664  1  -1.220381  0  -0.374065  -0.637015  0  2.240889  0
O  O121  1  0.45708514  0.46707542  0.75854631  1  -1.220137  0  -0.374041  -0.637022  0  2.240802  0
O  O122  1  0.04292951  0.96709207  0.25855261  1  -1.220153  0  -0.374121  -0.637004  0  2.240911  0
O  O123  1  0.54292305  0.53292917  0.24145094  1  -1.220168  0  -0.373967  -0.63691  0  2.240585  0
O  O124  1  0.48063670  0.69854642  0.15872876  1  -1.201437  0  -0.345881  -0.615776  0  2.220283  0
O  O125  1  0.98068343  0.80149810  0.34127018  1  -1.201518  0  -0.345608  -0.615436  0  2.22098  0
O  O126  1  0.51934947  0.30146094  0.84127097  1  -1.20152  0  -0.345832  -0.61561  0  2.220657  0
O  O127  1  0.01932659  0.19848755  0.65872925  1  -1.201673  0  -0.345677  -0.615515  0  2.220854  0
O  O128  1  0.32928030  0.62846655  0.89685562  1  -1.267118  0  -0.290515  -0.510531  0  2.241568  0
O  O129  1  0.82931799  0.87149445  0.60314525  1  -1.266296  0  -0.290417  -0.510402  0  2.240665  0
O  O130  1  0.67069671  0.37151521  0.10313730  1  -1.26665  0  -0.290617  -0.510655  0  2.241582  0
O  O131  1  0.17072505  0.12851378  0.39685458  1  -1.266925  0  -0.29052  -0.510613  0  2.240985  0
O  O132  1  0.93145830  0.52388396  0.86529765  1  -1.341306  0  -0.33814  -0.575366  0  2.292328  0
O  O133  1  0.43137460  0.97609470  0.63471362  1  -1.340973  0  -0.33813  -0.57504  0  2.291933  0
O  O134  1  0.06853704  0.47611416  0.13470666  1  -1.341057  0  -0.338155  -0.575387  0  2.292051  0
O  O135  1  0.56860790  0.02391935  0.36529554  1  -1.342065  0  -0.338202  -0.575174  0  2.291888  0
