# generated using pymatgen
data_Zn4H19C34N2O13F
_symmetry_space_group_name_H-M   'P 1'
_cell_length_a   15.98023708
_cell_length_b   16.06731006
_cell_length_c   19.60375931
_cell_angle_alpha   84.51510660
_cell_angle_beta   89.15224975
_cell_angle_gamma   83.58980856
_symmetry_Int_Tables_number   1
_chemical_formula_structural   Zn4H19C34N2O13F
_chemical_formula_sum   'Zn4 H19 C34 N2 O13 F1'
_cell_volume   4979.03603160
_cell_formula_units_Z   1
loop_
 _symmetry_equiv_pos_site_id
 _symmetry_equiv_pos_as_xyz
  1  'x, y, z'
loop_
 _atom_site_type_symbol
 _atom_site_label
 _atom_site_symmetry_multiplicity
 _atom_site_fract_x
 _atom_site_fract_y
 _atom_site_fract_z
 _atom_site_occupancy
 _atom_site_pbe_bader_charge
 _atom_site_pbe_bader_spin_density
 _atom_site_pbe_cm5_charge
 _atom_site_pbe_ddec_charge
 _atom_site_pbe_ddec_spin_density
 _atom_site_pbe_ddec_sum_bond_order
 _atom_site_pbe_magmom
Zn  Zn0  1  0.42509474  0.57201505  0.56149998  1  1.322102  0  0.678474  0.975746  0  2.356047  0
Zn  Zn1  1  0.55505514  0.58463440  0.43655374  1  1.318636  0  0.677331  0.968709  0  2.360222  0
Zn  Zn2  1  0.44575647  0.43582970  0.44774359  1  1.310414  0  0.671515  0.960406  0  2.367901  0
Zn  Zn3  1  0.58560373  0.43386094  0.56192233  1  1.321482  0  0.677558  0.974863  0  2.355542  0
H  H4  1  0.44284599  0.61447536  0.77015029  1  0.074642  0  0.106324  0.11472  0  0.996131  0
H  H5  1  0.58050253  0.43176004  0.00414976  1  0.082146  0  0.10256  0.100197  0  1.023471  0
H  H6  1  0.45335311  0.60799436  0.89663319  1  0.061276  0  0.102481  0.102053  0  1.002743  0
H  H7  1  0.54536400  0.35992754  0.29565885  1  0.480059  0  0.303107  0.26279  0  0.997934  0
H  H8  1  0.60494645  0.23801991  0.25145554  1  0.06896  0  0.11087  0.116963  0  0.973788  0
H  H9  1  0.63553855  0.29748214  0.17587405  1  0.054533  0  0.100105  0.101042  0  0.984322  0
H  H10  1  0.53164430  0.26657652  0.18323700  1  0.009078  0  0.094024  0.090728  0  0.990041  0
H  H11  1  0.63433319  0.30705066  0.87664894  1  0.400194  0  0.303361  0.246421  0  0.941329  0
H  H12  1  0.49964273  0.26194515  0.92121338  1  0.03235  0  0.088501  0.086428  0  0.993656  0
H  H13  1  0.50975100  0.32661001  0.98876487  1  0.043356  0  0.100207  0.108323  0  1.016873  0
H  H14  1  0.58528624  0.23822210  0.98040831  1  0.04907  0  0.100298  0.107123  0  0.982523  0
H  H15  1  0.44625330  0.65369135  0.10673517  1  0.040187  0  0.09721  0.101086  0  1.009134  0
H  H16  1  0.99867194  0.54737093  0.54381717  1  0.068316  0  0.124859  0.129034  0  0.95082  0
H  H17  1  0.00468050  0.46166708  0.40878643  1  0.103101  0  0.128372  0.13254  0  0.947941  0
H  H18  1  0.42076352  0.02629336  0.47614414  1  0.12839  0  0.134407  0.162189  0  0.943765  0
H  H19  1  0.45822489  0.64319951  0.23392042  1  0.092829  0  0.106577  0.112544  0  0.990043  0
H  H20  1  0.44192547  0.58127729  0.00410846  1  0.05545  0  0.100617  0.097736  0  1.004647  0
H  H21  1  0.54388570  0.39240483  0.10965107  1  0.065732  0  0.09626  0.099379  0  1.051605  0
H  H22  1  0.58648638  0.37157368  0.77334104  1  0.094586  0  0.106185  0.117997  0  1.005199  0
C  C23  1  0.72323502  0.50334484  0.47975789  1  1.694855  0  0.236318  0.682605  0  4.233865  0
C  C24  1  0.53208949  0.48017919  0.98261061  1  -0.110444  0  -0.090864  -0.122162  0  4.009317  0
C  C25  1  0.48837811  0.53058967  0.02531949  1  -0.012705  0  -0.088443  -0.127711  0  3.980113  0
C  C26  1  0.28185074  0.50925262  0.49490588  1  1.666184  0  0.232331  0.679989  0  4.231632  0
C  C27  1  0.50380493  0.51221737  0.24432387  1  0.035659  0  -0.036342  -0.169172  0  3.961959  0
C  C28  1  0.81293647  0.49846139  0.46866289  1  0.067301  0  -0.029236  -0.178246  0  3.912503  0
C  C29  1  0.97690372  0.48980071  0.45368080  1  0.087779  0  -0.05189  -0.044137  0  4.043143  0
C  C30  1  0.02736739  0.51891988  0.49937139  1  0.108825  0  -0.060829  -0.058028  0  4.059968  0
C  C31  1  0.11515862  0.51474828  0.49332900  1  -0.505735  0  -0.021764  0.014625  0  4.146253  0
C  C32  1  0.88918357  0.49475461  0.46127761  1  -0.320799  0  -0.012967  0.022515  0  4.1192  0
C  C33  1  0.19176605  0.51244869  0.49225127  1  0.24334  0  -0.037826  -0.191727  0  3.948082  0
C  C34  1  0.52275642  0.48426091  0.90860641  1  0.032083  0  -0.009991  0.037193  0  3.985327  0
C  C35  1  0.47433486  0.82285566  0.50221667  1  0.167425  0  -0.024339  -0.175585  0  3.895846  0
C  C36  1  0.47268689  0.98604366  0.50187773  1  0.221609  0  -0.071652  -0.193175  0  4.056478  0
C  C37  1  0.53256550  0.02497131  0.53094978  1  0.522453  0  0.116378  0.305881  0  4.141874  0
C  C38  1  0.47887123  0.73293967  0.50039524  1  1.664621  0  0.237349  0.678329  0  4.241057  0
C  C39  1  0.53263547  0.11225856  0.52977449  1  -0.17457  0  -0.028049  -0.103048  0  4.110462  0
C  C40  1  0.47390004  0.89876033  0.50287384  1  -0.41611  0  -0.014803  0.055923  0  4.134367  0
C  C41  1  0.53107942  0.18858224  0.52708949  1  0.02891  0  -0.018012  -0.113744  0  3.916298  0
C  C42  1  0.52579082  0.27907675  0.52005182  1  1.665739  0  0.2306  0.660287  0  4.256112  0
C  C43  1  0.50304183  0.51098913  0.31924123  1  1.432305  0  0.217332  0.607051  0  4.149688  0
C  C44  1  0.51206973  0.49780670  0.68818972  1  1.513787  0  0.226968  0.60893  0  4.154925  0
C  C45  1  0.55940673  0.41585274  0.87287457  1  0.322654  0  0.091355  0.179617  0  4.016073  0
C  C46  1  0.51578356  0.49392520  0.76415868  1  -0.056043  0  -0.023897  -0.029156  0  4.022572  0
C  C47  1  0.47584053  0.55975313  0.79920991  1  -0.009391  0  -0.093958  -0.114731  0  4.018862  0
C  C48  1  0.48082538  0.55484366  0.87003705  1  -0.036731  0  -0.089667  -0.11975  0  3.997543  0
C  C49  1  0.58297801  0.28818036  0.21183898  1  0.316074  0  -0.128893  -0.202789  0  4.011772  0
C  C50  1  0.54537047  0.28946103  0.95170990  1  0.257353  0  -0.142934  -0.217336  0  3.990347  0
C  C51  1  0.55732235  0.42295621  0.80123903  1  0.041352  0  -0.095039  -0.204435  0  3.970861  0
C  C52  1  0.52628941  0.44759311  0.13702916  1  -0.063858  0  -0.11168  -0.263734  0  3.925193  0
C  C53  1  0.52899311  0.43894268  0.20928000  1  0.443481  0  0.110327  0.239758  0  4.061724  0
C  C54  1  0.47658220  0.58861585  0.20588117  1  -0.062889  0  -0.085446  -0.062958  0  4.033124  0
C  C55  1  0.47039320  0.59450635  0.13525229  1  0.036425  0  -0.114639  -0.187589  0  4.027408  0
C  C56  1  0.49644684  0.52353712  0.09970111  1  -0.028901  0  -0.007852  0.14502  0  4.077628  0
N  N57  1  0.55644740  0.36369169  0.24431206  1  -1.240582  0  -0.444639  -0.286637  0  3.61689  0
N  N58  1  0.59907154  0.34239023  0.90930267  1  -1.12505  0  -0.465139  -0.338628  0  3.485357  0
O  O59  1  0.50353188  0.50662019  0.50384275  1  -1.235766  0  -0.57532  -1.040106  0  2.544347  0
O  O60  1  0.50600589  0.58056946  0.34587659  1  -1.168376  0  -0.323526  -0.556519  0  2.307242  0
O  O61  1  0.56464655  0.44634649  0.65883740  1  -1.171105  0  -0.319602  -0.553017  0  2.337532  0
O  O62  1  0.49846176  0.43987868  0.35583362  1  -1.177948  0  -0.323124  -0.572176  0  2.326946  0
O  O63  1  0.45637383  0.55181117  0.65808731  1  -1.168459  0  -0.316282  -0.549423  0  2.330922  0
O  O64  1  0.42729453  0.69480545  0.53851714  1  -1.142761  0  -0.302805  -0.530822  0  2.266386  0
O  O65  1  0.58076832  0.31265818  0.55129890  1  -1.149426  0  -0.304708  -0.530649  0  2.265234  0
O  O66  1  0.67782902  0.55148490  0.43604721  1  -1.139306  0  -0.30468  -0.532366  0  2.265634  0
O  O67  1  0.32387247  0.46933382  0.44978618  1  -1.138581  0  -0.312197  -0.539361  0  2.26385  0
O  O68  1  0.69944484  0.45901449  0.53246015  1  -1.148129  0  -0.305573  -0.535264  0  2.267147  0
O  O69  1  0.31055530  0.54650644  0.54282278  1  -1.147313  0  -0.311013  -0.54171  0  2.274415  0
O  O70  1  0.53488387  0.70133704  0.46039279  1  -1.140005  0  -0.30408  -0.528176  0  2.267896  0
O  O71  1  0.46556300  0.31583598  0.48237781  1  -1.145557  0  -0.309865  -0.535237  0  2.271814  0
F  F72  1  0.59852323  0.97771294  0.56420545  1  -0.610565  0  -0.096597  -0.137434  0  1.287477  0
