# generated using pymatgen
data_Cu3H10C12(NO)6
_symmetry_space_group_name_H-M   'P 1'
_cell_length_a   7.01358865
_cell_length_b   9.41832262
_cell_length_c   13.52077695
_cell_angle_alpha   89.99872078
_cell_angle_beta   104.41205560
_cell_angle_gamma   90.00086334
_symmetry_Int_Tables_number   1
_chemical_formula_structural   Cu3H10C12(NO)6
_chemical_formula_sum   'Cu6 H20 C24 N12 O12'
_cell_volume   865.02556674
_cell_formula_units_Z   2
loop_
 _symmetry_equiv_pos_site_id
 _symmetry_equiv_pos_as_xyz
  1  'x, y, z'
loop_
 _atom_site_type_symbol
 _atom_site_label
 _atom_site_symmetry_multiplicity
 _atom_site_fract_x
 _atom_site_fract_y
 _atom_site_fract_z
 _atom_site_occupancy
 _atom_site_hle17_ddec_charge
 _atom_site_hle17_ddec_spin_density
 _atom_site_hle17_ddec_sum_bond_order
 _atom_site_hle17_magmom
 _atom_site_hse06_10hf_ddec_charge
 _atom_site_hse06_10hf_ddec_spin_density
 _atom_site_hse06_10hf_ddec_sum_bond_order
 _atom_site_hse06_10hf_magmom
 _atom_site_hse06_ddec_charge
 _atom_site_hse06_ddec_spin_density
 _atom_site_hse06_ddec_sum_bond_order
 _atom_site_hse06_magmom
 _atom_site_pbe_cm5_charge
 _atom_site_pbe_ddec_charge
 _atom_site_pbe_ddec_spin_density
 _atom_site_pbe_ddec_sum_bond_order
 _atom_site_pbe_magmom
Cu  Cu0  1  0.99999739  0.99999822  0.50000098  1  0.861209  0.646032  1.804937  0.507  0.855216  0.801866  2.180611  0.657  0.9377  0.865289  2.122363  0.743  0.748435  0.800355  0.7412  2.222973  0.589
Cu  Cu1  1  0.50000088  0.49999984  0.50000145  1  0.860641  0.645534  1.804945  0.507  0.855077  0.801824  2.180458  0.657  0.937585  0.865275  2.122212  0.743  0.748363  0.800232  0.741148  2.222804  0.589
Cu  Cu2  1  0.78994539  0.97076672  0.96421429  1  0.433524  0.056851  2.149949  0.047  0.306183  -0.001556  2.656419  -0.001  0.303213  -0.00132  2.610285  -0.001  0.494143  0.314062  0.006942  2.683095  0.006
Cu  Cu3  1  0.71005237  0.47076233  0.03578704  1  0.433752  0.057056  2.150068  0.047  0.306108  -0.001555  2.656642  -0.001  0.303091  -0.001318  2.610505  -0.001  0.49416  0.313979  0.006931  2.683305  0.006
Cu  Cu4  1  0.21006809  0.02923403  0.03578919  1  0.433876  0.057053  2.149701  0.047  0.306272  -0.001556  2.656249  -0.001  0.303297  -0.001319  2.610131  -0.001  0.494177  0.314156  0.006947  2.682907  0.006
Cu  Cu5  1  0.28994170  0.52923841  0.96420981  1  0.433698  0.056977  2.149757  0.047  0.306216  -0.001552  2.656234  -0.001  0.303178  -0.001323  2.610063  -0.001  0.494199  0.31409  0.006928  2.682884  0.006
H  H6  1  0.57153992  0.00163286  0.39993140  1  0.414039  -0.00015  0.893407  0.0  0.387208  -0.000128  0.952007  0.0  0.399043  -0.000105  0.934687  0.0  0.278775  0.378449  -0.000126  0.964901  0.0
H  H7  1  0.92847040  0.50163676  0.60007846  1  0.414049  -0.000147  0.893345  0.0  0.387226  -0.000128  0.951938  0.0  0.399061  -0.000106  0.934619  0.0  0.278798  0.378469  -0.000126  0.964828  0.0
H  H8  1  0.42845586  0.99837107  0.60006934  1  0.414125  -0.000151  0.893285  0.0  0.3873  -0.000128  0.951874  0.0  0.399134  -0.000105  0.934555  0.0  0.278817  0.378543  -0.000126  0.964766  0.0
H  H9  1  0.07153131  0.49836292  0.39992369  1  0.414045  -0.000148  0.89336  0.0  0.387219  -0.000128  0.951958  0.0  0.399054  -0.000105  0.934639  0.0  0.278797  0.378463  -0.000126  0.964846  0.0
H  H10  1  0.60553008  0.86731568  0.47668809  1  0.410185  0.000101  0.893986  0.0  0.383336  0.000244  0.953396  0.0  0.395541  0.000174  0.935356  0.0  0.283172  0.374656  0.000304  0.966258  0.0
H  H11  1  0.89448209  0.36732303  0.52331126  1  0.410211  0.000106  0.893952  0.0  0.383369  0.000245  0.95334  0.0  0.39557  0.000174  0.935308  0.0  0.28318  0.374693  0.000305  0.966199  0.0
H  H12  1  0.39446555  0.13268931  0.52331042  1  0.41024  0.000102  0.893921  0.0  0.383407  0.000244  0.953295  0.0  0.395609  0.000174  0.935265  0.0  0.283178  0.37473  0.000305  0.966154  0.0
H  H13  1  0.10551801  0.63267559  0.47668849  1  0.410206  0.000107  0.893958  0.0  0.38337  0.000245  0.953337  0.0  0.39557  0.000175  0.935308  0.0  0.283183  0.374694  0.000305  0.966196  0.0
H  H14  1  0.89344554  0.23421984  0.64617291  1  0.115942  0.001148  0.978396  0.002  0.120972  0.000835  1.039972  0.002  0.124133  0.000581  1.037329  0.001  0.125244  0.118578  0.001114  1.042144  0.002
H  H15  1  0.60656016  0.73422285  0.35382476  1  0.115964  0.001152  0.97823  0.002  0.121039  0.000835  1.039763  0.002  0.12421  0.000581  1.037122  0.001  0.12527  0.118645  0.001114  1.041928  0.002
H  H16  1  0.10654412  0.76577878  0.35382344  1  0.115866  0.00114  0.9784  0.002  0.120909  0.000835  1.039979  0.002  0.124069  0.000581  1.037336  0.001  0.125213  0.118517  0.001114  1.042149  0.002
H  H17  1  0.39344877  0.26577365  0.64617598  1  0.115933  0.00115  0.978255  0.002  0.121033  0.000835  1.039756  0.002  0.124208  0.000581  1.037113  0.001  0.125239  0.118639  0.001114  1.041919  0.002
H  H18  1  0.96578690  0.78127862  0.82759952  1  0.107303  0.001162  0.928478  0.002  0.114621  0.00067  0.990589  0.001  0.117555  0.000396  0.98858  0.001  0.127062  0.111769  0.001063  0.993118  0.001
H  H19  1  0.53421585  0.28126999  0.17240969  1  0.10713  0.001161  0.928251  0.002  0.114526  0.00067  0.990329  0.001  0.117461  0.000395  0.988317  0.001  0.126947  0.111672  0.001063  0.992858  0.001
H  H20  1  0.03420607  0.21871787  0.17240313  1  0.107279  0.00112  0.928522  0.002  0.114614  0.00067  0.990612  0.001  0.117547  0.000396  0.988605  0.001  0.127046  0.11176  0.001063  0.993144  0.001
H  H21  1  0.46578714  0.71873394  0.82758965  1  0.107211  0.001175  0.928435  0.002  0.114582  0.00067  0.990487  0.001  0.117519  0.000395  0.988474  0.001  0.126982  0.111728  0.001063  0.993016  0.001
H  H22  1  0.84986626  0.21484276  0.82527640  1  0.101066  0.000909  0.929563  0.001  0.111694  0.000474  0.985564  0.001  0.113548  0.000307  0.985855  0.0  0.126223  0.109951  0.000746  0.985638  0.001
H  H23  1  0.65014558  0.71482232  0.17473040  1  0.100986  0.000905  0.929984  0.001  0.111631  0.000474  0.985898  0.001  0.113481  0.000307  0.986188  0.0  0.126227  0.109887  0.000745  0.98597  0.001
H  H24  1  0.15012629  0.78515480  0.17471954  1  0.101089  0.000883  0.929571  0.001  0.111722  0.000474  0.985554  0.001  0.113579  0.000307  0.985844  0.0  0.126222  0.109975  0.000746  0.985627  0.001
H  H25  1  0.34986491  0.28517630  0.82527201  1  0.101029  0.000903  0.929925  0.001  0.111708  0.000474  0.985796  0.001  0.113558  0.000307  0.986087  0.0  0.126245  0.109963  0.000745  0.98587  0.001
C  C26  1  0.02327580  0.76583221  0.63195804  1  0.616686  -0.003915  3.920071  -0.003  0.56449  -0.000547  4.224509  -0.001  0.599821  -0.000449  4.219856  0.0  0.214148  0.540561  -0.000416  4.227174  -0.001
C  C27  1  0.47672739  0.26584232  0.36804254  1  0.616764  -0.003905  3.920422  -0.003  0.56454  -0.000548  4.224884  -0.001  0.599884  -0.000448  4.220211  0.0  0.214102  0.540606  -0.000421  4.227554  -0.001
C  C28  1  0.97672307  0.23416641  0.36804527  1  0.616722  -0.003903  3.919765  -0.003  0.564436  -0.000546  4.224285  -0.001  0.599767  -0.000448  4.219634  0.0  0.214091  0.540508  -0.000416  4.226947  -0.001
C  C29  1  0.52327271  0.73415630  0.63195721  1  0.616789  -0.003886  3.920329  -0.003  0.564601  -0.000549  4.224766  -0.001  0.599945  -0.000449  4.220091  0.0  0.214154  0.54067  -0.000421  4.22743  -0.001
C  C30  1  0.97829577  0.89252260  0.68957500  1  0.064133  -0.006761  3.699701  -0.004  0.066372  -0.002867  3.94732  -0.002  0.066247  -0.004348  3.964761  -0.003  0.120331  0.066345  -0.001665  3.936172  -0.001
C  C31  1  0.52170318  0.39251786  0.31044023  1  0.063739  -0.006781  3.70006  -0.004  0.066011  -0.002864  3.947734  -0.002  0.065864  -0.004349  3.965173  -0.003  0.120216  0.065987  -0.001663  3.936596  -0.001
C  C32  1  0.02170266  0.10747071  0.31042160  1  0.063891  -0.006896  3.699824  -0.004  0.066306  -0.002863  3.947256  -0.002  0.066182  -0.004348  3.964699  -0.003  0.120273  0.066276  -0.001664  3.936112  -0.001
C  C33  1  0.47829996  0.60748076  0.68956134  1  0.063777  -0.006876  3.700132  -0.004  0.065994  -0.002862  3.947843  -0.002  0.065845  -0.004345  3.96528  -0.003  0.120208  0.065972  -0.001663  3.936699  -0.001
C  C34  1  0.91182386  0.13265449  0.68665570  1  0.092822  -0.006928  3.602114  -0.004  0.067682  -0.002336  3.854475  -0.001  0.071795  -0.004085  3.87052  -0.003  0.063583  0.065118  -0.000898  3.84442  0.0
C  C35  1  0.58817842  0.63266285  0.31333499  1  0.092861  -0.006958  3.602147  -0.004  0.067597  -0.002337  3.85451  -0.001  0.071696  -0.004086  3.870567  -0.003  0.063556  0.065038  -0.000899  3.844451  0.0
C  C36  1  0.08817040  0.86734200  0.31334413  1  0.093066  -0.007004  3.601975  -0.004  0.067865  -0.002333  3.854401  -0.001  0.071983  -0.004083  3.870445  -0.003  0.063609  0.065299  -0.000898  3.844343  0.0
C  C37  1  0.41182894  0.36733577  0.68666410  1  0.092953  -0.00701  3.602074  -0.004  0.067695  -0.002336  3.854444  -0.001  0.071785  -0.004088  3.870506  -0.003  0.063597  0.06514  -0.0009  3.84438  0.0
C  C38  1  0.95070280  0.88283548  0.78775998  1  0.104805  0.003857  3.621534  0.004  0.072761  0.002461  3.857957  0.003  0.077363  0.002497  3.870537  0.003  0.072384  0.068567  0.002565  3.852215  0.003
C  C39  1  0.54930746  0.38284272  0.21225149  1  0.105234  0.003868  3.620391  0.004  0.073062  0.002462  3.857011  0.003  0.077659  0.0025  3.869567  0.003  0.072554  0.068878  0.002565  3.851275  0.003
C  C40  1  0.04929132  0.11716101  0.21223761  1  0.105052  0.004053  3.621635  0.004  0.072916  0.00246  3.858046  0.003  0.077516  0.002496  3.870626  0.003  0.072441  0.068722  0.002565  3.852301  0.003
C  C41  1  0.45070009  0.61716227  0.78775058  1  0.105115  0.003869  3.620612  0.004  0.073072  0.002461  3.857139  0.003  0.077667  0.0025  3.869676  0.003  0.072558  0.068887  0.002565  3.851401  0.003
C  C42  1  0.77849870  0.78094042  0.99496290  1  -0.090268  0.002008  3.503292  0.002  -0.096126  -3.4e-05  3.892462  0.0  -0.083861  -1e-05  3.889509  0.0  -0.049482  -0.102678  0.00022  3.889153  0.0
C  C43  1  0.72149470  0.28094247  0.00503712  1  -0.090051  0.001921  3.50324  0.002  -0.095921  -3.3e-05  3.892402  0.0  -0.083641  -5e-06  3.889433  0.0  -0.049398  -0.102464  0.000219  3.889082  0.0
C  C44  1  0.22148389  0.21906563  0.00503709  1  -0.09032  0.001903  3.503811  0.002  -0.096226  -3.1e-05  3.893018  0.0  -0.083974  -3e-06  3.890083  0.0  -0.049498  -0.10277  0.000219  3.889689  0.0
C  C45  1  0.27851859  0.71906146  0.99496338  1  -0.090113  0.00191  3.503373  0.002  -0.09596  -3.1e-05  3.8925  0.0  -0.083678  -6e-06  3.889526  0.0  -0.049445  -0.102493  0.000218  3.889161  0.0
C  C46  1  0.88570660  0.12179201  0.78530318  1  0.100455  0.005864  3.618461  0.007  0.07369  0.003839  3.857938  0.005  0.077155  0.0035  3.871451  0.004  0.068914  0.070187  0.004145  3.851466  0.005
C  C47  1  0.61430199  0.62180810  0.21469727  1  0.100646  0.005897  3.619034  0.007  0.074013  0.003837  3.858425  0.005  0.077467  0.003498  3.871905  0.004  0.069047  0.070522  0.004143  3.851956  0.005
C  C48  1  0.11428610  0.87820768  0.21469500  1  0.100288  0.006001  3.618573  0.007  0.07355  0.003838  3.858019  0.005  0.077006  0.0035  3.871535  0.004  0.068886  0.070047  0.004145  3.851538  0.005
C  C49  1  0.38570689  0.37819371  0.78530274  1  0.100518  0.005943  3.61892  0.007  0.073853  0.003836  3.858336  0.005  0.077295  0.003497  3.871817  0.004  0.069025  0.070364  0.004143  3.851871  0.005
N  N50  1  0.95853114  0.01728359  0.63950093  1  -0.239028  0.053652  3.307126  0.072  -0.20827  0.046571  3.60336  0.064  -0.229967  0.037329  3.622242  0.055  -0.324766  -0.195335  0.050153  3.592033  0.066
N  N51  1  0.54147561  0.51729309  0.36049497  1  -0.239016  0.053649  3.307255  0.072  -0.208136  0.046569  3.603402  0.064  -0.229828  0.037328  3.622298  0.055  -0.324658  -0.195206  0.050159  3.592073  0.066
N  N52  1  0.04146759  0.98271078  0.36050015  1  -0.239038  0.053689  3.307299  0.072  -0.208313  0.046565  3.603494  0.064  -0.230009  0.037324  3.622376  0.055  -0.324722  -0.195377  0.050149  3.592163  0.066
N  N53  1  0.45852748  0.48270871  0.63950586  1  -0.239034  0.053677  3.307277  0.072  -0.208195  0.046571  3.603511  0.064  -0.22988  0.03733  3.622401  0.055  -0.3247  -0.19527  0.050159  3.592185  0.066
N  N54  1  0.90445228  0.99758206  0.83582098  1  -0.234445  0.000421  3.310469  0.003  -0.15894  -0.003422  3.58334  -0.003  -0.161462  -0.00435  3.58329  -0.003  -0.3208  -0.161031  -0.001447  3.588257  -0.001
N  N55  1  0.59557201  0.49761047  0.16417776  1  -0.23447  0.000403  3.309798  0.003  -0.159133  -0.003424  3.58287  -0.003  -0.161578  -0.004353  3.582729  -0.003  -0.320906  -0.161256  -0.00145  3.587806  -0.001
N  N56  1  0.09554042  0.00241656  0.16417720  1  -0.234556  0.000292  3.310671  0.003  -0.159076  -0.003421  3.583569  -0.003  -0.161589  -0.004352  3.583515  -0.003  -0.32084  -0.161158  -0.001446  3.588477  -0.001
N  N57  1  0.40443544  0.50239133  0.83582282  1  -0.234472  0.000365  3.309776  0.003  -0.159173  -0.003423  3.582856  -0.003  -0.161592  -0.004354  3.582684  -0.003  -0.320921  -0.161301  -0.001451  3.587798  -0.001
N  N58  1  0.77259701  0.65848440  0.01136152  1  -0.403378  0.000521  3.355558  0.001  -0.340327  7.2e-05  3.705227  0.0  -0.355742  7.3e-05  3.71113  0.0  -0.446191  -0.32799  0.000175  3.696257  0.0
N  N59  1  0.72739434  0.15848546  0.98863494  1  -0.403577  0.000631  3.355565  0.001  -0.340495  7.1e-05  3.70523  0.0  -0.355919  7e-05  3.711137  0.0  -0.446259  -0.328167  0.000175  3.696271  0.0
N  N60  1  0.22741382  0.34150679  0.98864610  1  -0.403323  0.000653  3.355954  0.001  -0.340234  7e-05  3.705611  0.0  -0.355616  6.8e-05  3.711439  0.0  -0.446152  -0.327895  0.000175  3.696628  0.0
N  N61  1  0.27259512  0.84151847  0.01135843  1  -0.403608  0.000653  3.355744  0.001  -0.340552  7e-05  3.70541  0.0  -0.355982  7e-05  3.711329  0.0  -0.446263  -0.328223  0.000175  3.696434  0.0
O  O62  1  0.04841226  0.79251478  0.54234015  1  -0.592844  0.056741  2.048821  0.084  -0.546903  0.047416  2.306901  0.073  -0.588963  0.034888  2.300218  0.058  -0.308508  -0.519399  0.053584  2.312037  0.078
O  O63  1  0.45158261  0.29251108  0.45766131  1  -0.592945  0.056736  2.048862  0.084  -0.546983  0.047423  2.306963  0.073  -0.589055  0.03489  2.30028  0.058  -0.30856  -0.519467  0.053603  2.31209  0.078
O  O64  1  0.95158518  0.20748066  0.45766374  1  -0.592899  0.056746  2.048866  0.084  -0.546938  0.047412  2.306967  0.073  -0.589004  0.034887  2.3003  0.058  -0.308524  -0.519434  0.05358  2.312102  0.078
O  O65  1  0.54841013  0.70748754  0.54233761  1  -0.592878  0.056738  2.048852  0.084  -0.546932  0.047427  2.306949  0.073  -0.589009  0.034893  2.300279  0.058  -0.308526  -0.519419  0.053607  2.312078  0.078
O  O66  1  0.03251703  0.64578476  0.67228031  1  -0.575332  0.01211  1.958994  0.017  -0.524881  0.007581  2.175561  0.011  -0.552271  0.003129  2.16946  0.005  -0.295481  -0.505848  0.012251  2.179708  0.017
O  O67  1  0.46748405  0.14578439  0.32773814  1  -0.575282  0.012096  1.959076  0.017  -0.524824  0.007584  2.175634  0.011  -0.55222  0.00313  2.169526  0.005  -0.295407  -0.505784  0.012257  2.179782  0.017
O  O68  1  0.96748910  0.35421705  0.32772234  1  -0.575264  0.01208  1.958836  0.017  -0.524781  0.007581  2.17541  0.011  -0.55217  0.003131  2.169315  0.005  -0.295385  -0.505748  0.012251  2.179552  0.017
O  O69  1  0.53252051  0.85421530  0.67226285  1  -0.575353  0.012093  1.958974  0.017  -0.524896  0.007584  2.175517  0.011  -0.552294  0.003131  2.169408  0.005  -0.295467  -0.505857  0.012259  2.179661  0.017
O  O70  1  0.66409757  0.92489281  0.43089086  1  -0.856315  -0.000583  1.882297  0.001  -0.821166  -0.000201  2.055388  0.002  -0.84198  -0.000848  2.019279  0.001  -0.602998  -0.806143  0.0007  2.081829  0.003
O  O71  1  0.83590809  0.42488529  0.56910762  1  -0.856323  -0.000591  1.882203  0.001  -0.821175  -0.000203  2.055245  0.002  -0.842003  -0.000849  2.01917  0.001  -0.603019  -0.806158  0.000699  2.081682  0.003
O  O72  1  0.33589953  0.07511218  0.56910782  1  -0.856455  -0.000582  1.882162  0.001  -0.821327  -0.000201  2.055251  0.002  -0.842145  -0.000848  2.01914  0.001  -0.603061  -0.806309  0.0007  2.081691  0.003
O  O73  1  0.16409201  0.57511439  0.43089213  1  -0.856326  -0.000592  1.882234  0.001  -0.821183  -0.000202  2.055277  0.002  -0.842019  -0.000849  2.019217  0.001  -0.603036  -0.806169  0.000699  2.081715  0.003
