# generated using pymatgen
data_CdH20C27(N2O5)2
_symmetry_space_group_name_H-M   'P 1'
_cell_length_a   10.34331534
_cell_length_b   10.71412288
_cell_length_c   13.69177834
_cell_angle_alpha   70.33852854
_cell_angle_beta   83.58104711
_cell_angle_gamma   83.34462429
_symmetry_Int_Tables_number   1
_chemical_formula_structural   CdH20C27(N2O5)2
_chemical_formula_sum   'Cd2 H40 C54 N8 O20'
_cell_volume   1414.91838996
_cell_formula_units_Z   2
loop_
 _symmetry_equiv_pos_site_id
 _symmetry_equiv_pos_as_xyz
  1  'x, y, z'
loop_
 _atom_site_type_symbol
 _atom_site_label
 _atom_site_symmetry_multiplicity
 _atom_site_fract_x
 _atom_site_fract_y
 _atom_site_fract_z
 _atom_site_occupancy
 _atom_site_hle17_bader_spin_density
 _atom_site_hle17_ddec_charge
 _atom_site_hle17_ddec_spin_density
 _atom_site_hle17_ddec_sum_bond_order
 _atom_site_hle17_magmom
 _atom_site_hse06_10hf_bader_spin_density
 _atom_site_hse06_10hf_ddec_charge
 _atom_site_hse06_10hf_ddec_spin_density
 _atom_site_hse06_10hf_ddec_sum_bond_order
 _atom_site_hse06_10hf_magmom
 _atom_site_hse06_bader_spin_density
 _atom_site_hse06_ddec_charge
 _atom_site_hse06_ddec_spin_density
 _atom_site_hse06_ddec_sum_bond_order
 _atom_site_hse06_magmom
 _atom_site_pbe_bader_spin_density
 _atom_site_pbe_cm5_charge
 _atom_site_pbe_ddec_charge
 _atom_site_pbe_ddec_spin_density
 _atom_site_pbe_ddec_sum_bond_order
 _atom_site_pbe_magmom
Cd  Cd0  1  0.53690298  0.28901596  0.65561234  1  0  1.101702  0  1.695908  0  0  0.907811  0  2.136424  0  0  0.965543  0  2.08583  0  0  0.764634  0.864168  0  2.172957  0
Cd  Cd1  1  0.46310070  0.71098112  0.34438780  1  0  1.101695  0  1.695918  0  0  0.907792  0  2.136451  0  0  0.965527  0  2.085854  0  0  0.764645  0.864152  0  2.172986  0
H  H2  1  0.42514762  0.39541468  0.45839932  1  0  0.426177  0  0.865554  0  0  0.397516  0  0.929786  0  0  0.407943  0  0.914593  0  0  0.293715  0.389855  0  0.941013  0
H  H3  1  0.57485075  0.60458738  0.54160358  1  0  0.426236  0  0.865473  0  0  0.397573  0  0.929713  0  0  0.407999  0  0.914521  0  0  0.29372  0.389913  0  0.940941  0
H  H4  1  0.57224720  0.40653500  0.43146417  1  0  0.425671  0  0.878645  0  0  0.393883  0  0.944039  0  0  0.405327  0  0.927384  0  0  0.286818  0.385641  0  0.956065  0
H  H5  1  0.42775242  0.59346408  0.56853650  1  0  0.425675  0  0.878633  0  0  0.393895  0  0.944015  0  0  0.405339  0  0.927358  0  0  0.286817  0.385653  0  0.956041  0
H  H6  1  0.69135364  0.45355790  0.96101375  1  0  0.296209  0  0.942407  0  0  0.274736  0  1.01627  0  0  0.282633  0  1.010105  0  0  0.300962  0.269123  0  1.020722  0
H  H7  1  0.30864631  0.54643719  0.03898795  1  0  0.296146  0  0.942424  0  0  0.274688  0  1.016284  0  0  0.282583  0  1.010119  0  0  0.300939  0.269074  0  1.020738  0
H  H8  1  0.80407675  0.65563322  0.56371550  1  0  0.112957  0  0.939265  0  0  0.120684  0  1.005274  0  0  0.124643  0  1.00171  0  0  0.111494  0.117852  0  1.007851  0
H  H9  1  0.19592442  0.34437082  0.43628154  1  0  0.112956  0  0.939242  0  0  0.120651  0  1.005288  0  0  0.124609  0  1.001728  0  0  0.111496  0.117818  0  1.007866  0
H  H10  1  0.10496954  0.16332435  0.26341693  1  0  0.295921  0  0.881097  0  0  0.287732  0  0.929167  0  0  0.293508  0  0.925658  0  0  0.326456  0.283627  0  0.931772  0
H  H11  1  0.89503007  0.83667472  0.73658447  1  0  0.295908  0  0.881105  0  0  0.287714  0  0.929177  0  0  0.293491  0  0.925668  0  0  0.326456  0.283612  0  0.931781  0
H  H12  1  0.90192863  0.97991247  0.47556116  1  0  0.399154  0  0.899779  0  0  0.368035  0  0.975272  0  0  0.381295  0  0.956747  0  0  0.301586  0.35856  0  0.988194  0
H  H13  1  0.09807383  0.02008760  0.52443756  1  0  0.399141  0  0.899828  0  0  0.368026  0  0.975285  0  0  0.381287  0  0.95676  0  0  0.301577  0.358551  0  0.988234  0
H  H14  1  0.21152567  0.65121512  0.60329567  1  0  0.115104  0  0.936823  0  0  0.124145  0  0.998306  0  0  0.128335  0  0.994255  0  0  0.113742  0.121289  0  1.000938  0
H  H15  1  0.78847477  0.34878594  0.39670295  1  0  0.115095  0  0.936832  0  0  0.124132  0  0.998323  0  0  0.128322  0  0.994271  0  0  0.113733  0.121275  0  1.000953  0
H  H16  1  0.95941488  0.78254950  0.07635285  1  0  0.385758  0  0.811313  0  0  0.379277  0  0.85251  0  0  0.386218  0  0.8459  0  0  0.343757  0.37438  0  0.857158  0
H  H17  1  0.04058473  0.21744957  0.92364782  1  0  0.385763  0  0.811303  0  0  0.379283  0  0.852498  0  0  0.386224  0  0.845887  0  0  0.343758  0.374384  0  0.857149  0
H  H18  1  0.03604547  0.28269873  0.67443320  1  0  0.114449  0  0.93279  0  0  0.119392  0  0.999518  0  0  0.12485  0  0.993453  0  0  0.107147  0.115463  0  1.003944  0
H  H19  1  0.96394921  0.71730132  0.32556613  1  0  0.114444  0  0.93282  0  0  0.119404  0  0.999515  0  0  0.124867  0  0.993447  0  0  0.107138  0.115462  0  1.003961  0
H  H20  1  0.37227281  0.11716095  0.86516626  1  0  0.091428  0  0.923042  0  0  0.099643  0  0.984988  0  0  0.102677  0  0.982378  0  0  0.119323  0.097282  0  0.987101  0
H  H21  1  0.62772972  0.88283813  0.13483418  1  0  0.091426  0  0.923033  0  0  0.099639  0  0.984977  0  0  0.102673  0  0.982367  0  0  0.119339  0.09727  0  0.987099  0
H  H22  1  0.34834339  0.07486524  0.05804567  1  0  0.10227  0  0.938723  0  0  0.114346  0  0.992229  0  0  0.117193  0  0.991983  0  0  0.107059  0.112262  0  0.99261  0
H  H23  1  0.65165929  0.92513185  0.94195747  1  0  0.10227  0  0.938727  0  0  0.114357  0  0.992218  0  0  0.117206  0  0.991968  0  0  0.107066  0.112268  0  0.992602  0
H  H24  1  0.48518449  0.19339371  0.13352654  1  0  0.11246  0  0.977129  0  0  0.119234  0  1.042678  0  0  0.121732  0  1.04186  0  0  0.10727  0.117424  0  1.043333  0
H  H25  1  0.51481634  0.80660238  0.86647555  1  0  0.112454  0  0.977187  0  0  0.11927  0  1.042671  0  0  0.121767  0  1.041859  0  0  0.107272  0.117464  0  1.043307  0
H  H26  1  0.64588123  0.38863962  0.82183185  1  0  0.099325  0  0.952924  0  0  0.105447  0  1.020199  0  0  0.108377  0  1.017798  0  0  0.116884  0.103113  0  1.022327  0
H  H27  1  0.35411935  0.61135945  0.17816947  1  0  0.099311  0  0.952963  0  0  0.10543  0  1.02024  0  0  0.108361  0  1.017838  0  0  0.116875  0.103092  0  1.022366  0
H  H28  1  0.71301222  0.59117941  0.05701079  1  0  0.120332  0  0.948248  0  0  0.128126  0  1.013252  0  0  0.130961  0  1.013247  0  0  0.110054  0.126068  0  1.013424  0
H  H29  1  0.28698632  0.40882066  0.94299189  1  0  0.120341  0  0.948234  0  0  0.128139  0  1.013228  0  0  0.130975  0  1.013221  0  0  0.110054  0.126078  0  1.013412  0
H  H30  1  0.10557678  0.60057963  0.12948981  1  0  0.111771  0  0.952547  0  0  0.11941  0  1.018474  0  0  0.123412  0  1.015764  0  0  0.108276  0.116611  0  1.020327  0
H  H31  1  0.89442275  0.39942043  0.87051134  1  0  0.111819  0  0.952515  0  0  0.119412  0  1.018489  0  0  0.123415  0  1.01578  0  0  0.108292  0.116614  0  1.020341  0
H  H32  1  0.94850462  0.22431451  0.18084474  1  0  0.102708  0  0.949102  0  0  0.110198  0  1.015254  0  0  0.114898  0  1.010868  0  0  0.106817  0.106786  0  1.018664  0
H  H33  1  0.05149580  0.77568656  0.81915607  1  0  0.10272  0  0.949056  0  0  0.110199  0  1.015225  0  0  0.114897  0  1.01084  0  0  0.10682  0.106784  0  1.018637  0
H  H34  1  0.38396105  0.30045130  0.31949138  1  0  0.125512  0  0.938881  0  0  0.134442  0  0.998617  0  0  0.137966  0  0.995626  0  0  0.117287  0.131782  0  1.000983  0
H  H35  1  0.61603989  0.69954379  0.68050877  1  0  0.125514  0  0.938782  0  0  0.134468  0  0.998506  0  0  0.138001  0  0.9955  0  0  0.117311  0.131795  0  1.000892  0
H  H36  1  0.58458691  0.15965687  0.38581642  1  0  0.121397  0  0.928902  0  0  0.133205  0  0.981076  0  0  0.136489  0  0.979695  0  0  0.116627  0.130803  0  0.982294  0
H  H37  1  0.41541296  0.84033922  0.61418428  1  0  0.12151  0  0.928773  0  0  0.13326  0  0.981013  0  0  0.136544  0  0.979629  0  0  0.116645  0.130861  0  0.982233  0
H  H38  1  0.61198867  0.92132491  0.38809854  1  0  0.10125  0  0.925444  0  0  0.111945  0  0.982547  0  0  0.114726  0  0.980162  0  0  0.124552  0.109814  0  0.984364  0
H  H39  1  0.38801299  0.07867316  0.61190077  1  0  0.101247  0  0.925416  0  0  0.111929  0  0.982524  0  0  0.114711  0  0.980141  0  0  0.124539  0.109799  0  0.984342  0
H  H40  1  0.24859882  0.95486202  0.27766059  1  0  0.108146  0  0.942464  0  0  0.11636  0  1.006217  0  0  0.120191  0  1.002061  0  0  0.118621  0.113375  0  1.009416  0
H  H41  1  0.75139991  0.04513605  0.72233968  1  0  0.108161  0  0.942473  0  0  0.116364  0  1.006232  0  0  0.120206  0  1.002061  0  0  0.118636  0.113378  0  1.009431  0
C  C42  1  0.78660627  0.38760424  0.63899146  1  0  0.630893  0  3.951022  0  0  0.58164  0  4.244236  0  0  0.614985  0  4.240033  0  0  0.189268  0.558895  0  4.246262  0
C  C43  1  0.21338952  0.61240577  0.36100589  1  0  0.630754  0  3.951158  0  0  0.581485  0  4.244427  0  0  0.614829  0  4.240227  0  0  0.189256  0.558737  0  4.246458  0
C  C44  1  0.90589671  0.46125348  0.62510911  1  0  -0.076524  0  3.751774  0  0  -0.048543  0  3.988188  0  0  -0.060164  0  4.013128  0  0  -0.019214  -0.041668  0  3.972479  0
C  C45  1  0.09410354  0.53874957  0.37489119  1  0  -0.07646  0  3.751631  0  0  -0.048514  0  3.988094  0  0  -0.060134  0  4.013035  0  0  -0.019212  -0.041636  0  3.972386  0
C  C46  1  0.89692262  0.60034235  0.58703471  1  0  -0.040307  0  3.66547  0  0  -0.083506  0  3.922316  0  0  -0.077936  0  3.939856  0  0  -0.068538  -0.086357  0  3.910266  0
C  C47  1  0.10307756  0.39966169  0.41296387  1  0  -0.040347  0  3.665449  0  0  -0.0835  0  3.922331  0  0  -0.077932  0  3.939869  0  0  -0.068542  -0.086351  0  3.910281  0
C  C48  1  0.00729104  0.66804722  0.57987624  1  0  -0.103518  0  3.806251  0  0  -0.078403  0  4.050274  0  0  -0.091393  0  4.075759  0  0  -0.024387  -0.069711  0  4.032629  0
C  C49  1  0.99270949  0.33195284  0.42012191  1  0  -0.103523  0  3.806117  0  0  -0.07841  0  4.050177  0  0  -0.0914  0  4.07566  0  0  -0.024361  -0.069722  0  4.032534  0
C  C50  1  0.00181034  0.81472757  0.54380659  1  0  0.65739  0  3.818103  0  0  0.603003  0  4.12196  0  0  0.637448  0  4.113168  0  0  0.234162  0.578932  0  4.128131  0
C  C51  1  0.99818825  0.18527249  0.45619098  1  0  0.657571  0  3.817831  0  0  0.603116  0  4.121783  0  0  0.637561  0  4.112991  0  0  0.234259  0.579052  0  4.127945  0
C  C52  1  0.12696889  0.59717439  0.60826590  1  0  -0.034851  0  3.669085  0  0  -0.07697  0  3.921286  0  0  -0.071293  0  3.93844  0  0  -0.065651  -0.079528  0  3.908747  0
C  C53  1  0.87303254  0.40282667  0.39173118  1  0  -0.034802  0  3.669212  0  0  -0.076911  0  3.921402  0  0  -0.071229  0  3.938554  0  0  -0.065641  -0.079466  0  3.908856  0
C  C54  1  0.13835496  0.45861916  0.63994201  1  0  -0.070869  0  3.751821  0  0  -0.04372  0  3.989512  0  0  -0.054877  0  4.013478  0  0  -0.017146  -0.036933  0  3.974002  0
C  C55  1  0.86164654  0.54138091  0.36005606  1  0  -0.070934  0  3.75199  0  0  -0.043771  0  3.989647  0  0  -0.054937  0  4.013622  0  0  -0.017187  -0.036986  0  3.974132  0
C  C56  1  0.27053560  0.38480930  0.65734852  1  0  0.639182  0  3.929664  0  0  0.588077  0  4.222336  0  0  0.621824  0  4.21762  0  0  0.19275  0.565073  0  4.224623  0
C  C57  1  0.72946486  0.61519175  0.34264864  1  0  0.639137  0  3.929707  0  0  0.588036  0  4.222362  0  0  0.621787  0  4.217641  0  0  0.192721  0.565035  0  4.224645  0
C  C58  1  0.02732617  0.39098721  0.64938844  1  0  -0.040924  0  3.665425  0  0  -0.079315  0  3.91536  0  0  -0.073855  0  3.931216  0  0  -0.064763  -0.082333  0  3.905238  0
C  C59  1  0.97267208  0.60901683  0.35060884  1  0  -0.040919  0  3.665412  0  0  -0.079317  0  3.915345  0  0  -0.073853  0  3.931192  0  0  -0.064719  -0.082325  0  3.905234  0
C  C60  1  0.42914126  0.16666548  0.90142223  1  0  0.111509  0  3.716844  0  0  0.074258  0  3.980603  0  0  0.080614  0  3.999059  0  0  0.039576  0.069782  0  3.968216  0
C  C61  1  0.57086144  0.83333160  0.09857872  1  0  0.11152  0  3.716905  0  0  0.074263  0  3.980661  0  0  0.08062  0  3.999117  0  0  0.039579  0.069792  0  3.968276  0
C  C62  1  0.41672815  0.14393357  0.00829670  1  0  -0.105965  0  3.772359  0  0  -0.118413  0  4.032264  0  0  -0.124211  0  4.053404  0  0  -0.085507  -0.114818  0  4.01831  0
C  C63  1  0.58327455  0.85606352  0.99170426  1  0  -0.105958  0  3.772359  0  0  -0.118408  0  4.032254  0  0  -0.124205  0  4.053394  0  0  -0.085525  -0.114807  0  4.018292  0
C  C64  1  0.49181982  0.20959119  0.05061451  1  0  -0.098463  0  3.683885  0  0  -0.12678  0  3.936859  0  0  -0.124941  0  3.953294  0  0  -0.074209  -0.127751  0  3.926096  0
C  C65  1  0.50818102  0.79040490  0.94938758  1  0  -0.098517  0  3.683957  0  0  -0.126874  0  3.936911  0  0  -0.125035  0  3.953348  0  0  -0.074269  -0.127844  0  3.926155  0
C  C66  1  0.57668009  0.29967137  0.98340570  1  0  0.208159  0  3.793425  0  0  0.20874  0  4.03832  0  0  0.2124  0  4.060026  0  0  0.098652  0.205918  0  4.023977  0
C  C67  1  0.42332066  0.70032571  0.01659541  1  0  0.208139  0  3.793465  0  0  0.208763  0  4.038334  0  0  0.21241  0  4.060056  0  0  0.098666  0.205928  0  4.024  0
C  C68  1  0.58236068  0.31820460  0.87677356  1  0  0.025932  0  3.67357  0  0  -0.009898  0  3.923174  0  0  -0.005727  0  3.940739  0  0  0.039205  -0.012963  0  3.911743  0
C  C69  1  0.41764105  0.68179249  0.12322820  1  0  0.02593  0  3.673619  0  0  -0.009897  0  3.92319  0  0  -0.005723  0  3.940759  0  0  0.039213  -0.012952  0  3.911751  0
C  C70  1  0.72397489  0.31507195  0.10610668  1  0  0.538858  0  3.825389  0  0  0.498093  0  4.10473  0  0  0.526256  0  4.104387  0  0  0.239558  0.479101  0  4.104116  0
C  C71  1  0.27602374  0.68492713  0.89389553  1  0  0.538887  0  3.825027  0  0  0.49818  0  4.104333  0  0  0.52634  0  4.10399  0  0  0.239552  0.47919  0  4.103735  0
C  C72  1  0.82306130  0.39946372  0.11780006  1  0  -0.019857  0  3.76803  0  0  0.003327  0  4.00641  0  0  -0.000803  0  4.026976  0  0  -0.009223  0.00584  0  3.99257  0
C  C73  1  0.17693929  0.60053535  0.88219980  1  0  -0.01983  0  3.76801  0  0  0.003289  0  4.006458  0  0  -0.000842  0  4.027024  0  0  -0.009251  0.00579  0  3.992634  0
C  C74  1  0.80475837  0.53823332  0.08599004  1  0  -0.162817  0  3.636087  0  0  -0.197578  0  3.886401  0  0  -0.199127  0  3.90346  0  0  -0.085978  -0.195926  0  3.874574  0
C  C75  1  0.19524216  0.46176674  0.91400810  1  0  -0.162869  0  3.636215  0  0  -0.197603  0  3.886537  0  0  -0.199152  0  3.903596  0  0  -0.085976  -0.195953  0  3.874715  0
C  C76  1  0.90620068  0.61053844  0.09187837  1  0  0.33487  0  3.816143  0  0  0.330507  0  4.085445  0  0  0.339621  0  4.101559  0  0  0.08479  0.323879  0  4.074465  0
C  C77  1  0.09379975  0.38946262  0.90812098  1  0  0.334866  0  3.816096  0  0  0.330483  0  4.085416  0  0  0.339596  0  4.101533  0  0  0.084795  0.323866  0  4.074424  0
C  C78  1  0.02529024  0.54464562  0.12652637  1  0  -0.208624  0  3.739001  0  0  -0.243131  0  3.99465  0  0  -0.246993  0  4.015722  0  0  -0.095276  -0.24019  0  3.980388  0
C  C79  1  0.97470735  0.45535445  0.87347420  1  0  -0.208556  0  3.738976  0  0  -0.243022  0  3.994621  0  0  -0.246888  0  4.015697  0  0  -0.095261  -0.240094  0  3.980362  0
C  C80  1  0.04299702  0.40561909  0.15917337  1  0  -0.04136  0  3.819343  0  0  -0.018162  0  4.059076  0  0  -0.024219  0  4.08426  0  0  -0.015852  -0.014337  0  4.042254  0
C  C81  1  0.95700167  0.59437899  0.84083055  1  0  -0.041493  0  3.819591  0  0  -0.018274  0  4.059262  0  0  -0.024329  0  4.084439  0  0  -0.015835  -0.014447  0  4.042431  0
C  C82  1  0.94032838  0.33260029  0.15713631  1  0  -0.109743  0  3.71471  0  0  -0.154122  0  3.97835  0  0  -0.153933  0  3.996496  0  0  -0.08784  -0.154431  0  3.966422  0
C  C83  1  0.05967123  0.66739879  0.84286582  1  0  -0.109717  0  3.714746  0  0  -0.15409  0  3.978426  0  0  -0.153899  0  3.996568  0  0  -0.087836  -0.15439  0  3.966494  0
C  C84  1  0.17580150  0.34491268  0.19010676  1  0  0.550009  0  3.814925  0  0  0.503031  0  4.101858  0  0  0.531775  0  4.101523  0  0  0.248961  0.483562  0  4.101588  0
C  C85  1  0.82419811  0.65508639  0.80989464  1  0  0.549986  0  3.81507  0  0  0.503057  0  4.101912  0  0  0.531804  0  4.101572  0  0  0.248975  0.48361  0  4.10162  0
C  C86  1  0.30183878  0.14040330  0.28974695  1  0  0.19648  0  3.800114  0  0  0.194605  0  4.055042  0  0  0.197476  0  4.077603  0  0  0.09782  0.19227  0  4.040042  0
C  C87  1  0.69816482  0.85959478  0.71025294  1  0  0.196472  0  3.800164  0  0  0.194571  0  4.055133  0  0  0.197441  0  4.0777  0  0  0.097722  0.192234  0  4.04014  0
C  C88  1  0.39701469  0.19700331  0.32293568  1  0  -0.084523  0  3.651924  0  0  -0.11247  0  3.903906  0  0  -0.110971  0  3.919776  0  0  -0.062004  -0.113324  0  3.893601  0
C  C89  1  0.60298787  0.80299576  0.67706257  1  0  -0.084489  0  3.65177  0  0  -0.112443  0  3.903732  0  0  -0.11095  0  3.919604  0  0  -0.062005  -0.113285  0  3.893441  0
C  C90  1  0.50926957  0.11809977  0.35973670  1  0  -0.073263  0  3.716231  0  0  -0.086959  0  3.971978  0  0  -0.092327  0  3.9926  0  0  -0.068407  -0.083666  0  3.958368  0
C  C91  1  0.49073113  0.88189830  0.64026123  1  0  -0.07346  0  3.716389  0  0  -0.087119  0  3.972145  0  0  -0.092489  0  3.992772  0  0  -0.068463  -0.083831  0  3.958538  0
C  C92  1  0.52413627  0.98597670  0.36296782  1  0  0.129023  0  3.668734  0  0  0.093251  0  3.921764  0  0  0.099726  0  3.9408  0  0  0.05453  0.088997  0  3.908694  0
C  C93  1  0.47586362  0.01401939  0.63703216  1  0  0.129035  0  3.668803  0  0  0.093284  0  3.921805  0  0  0.099758  0  3.940843  0  0  0.05456  0.089034  0  3.908733  0
C  C94  1  0.32132765  0.00581691  0.29861107  1  0  0.016654  0  3.684334  0  0  -0.023838  0  3.939839  0  0  -0.019603  0  3.957882  0  0  0.039198  -0.026447  0  3.927383  0
C  C95  1  0.67867295  0.99418217  0.70138879  1  0  0.016633  0  3.684293  0  0  -0.023843  0  3.939798  0  0  -0.019616  0  3.957836  0  0  0.039199  -0.026447  0  3.927341  0
N  N96  1  0.51149194  0.25206461  0.83744938  1  0  -0.315496  0  3.300617  0  0  -0.240046  0  3.568878  0  0  -0.25891  0  3.589614  0  0  -0.32758  -0.226883  0  3.554646  0
N  N97  1  0.48851083  0.74793149  0.16255329  1  0  -0.315469  0  3.300682  0  0  -0.240024  0  3.568947  0  0  -0.258888  0  3.589681  0  0  -0.327561  -0.226864  0  3.554709  0
N  N98  1  0.65694512  0.37079159  0.01775517  1  0  -0.46112  0  3.326097  0  0  -0.407179  0  3.560968  0  0  -0.429505  0  3.570492  0  0  -0.404397  -0.391609  0  3.55401  0
N  N99  1  0.34305147  0.62920848  0.98224767  1  0  -0.460969  0  3.325983  0  0  -0.407105  0  3.560888  0  0  -0.429422  0  3.570413  0  0  -0.404345  -0.391534  0  3.553941  0
N  N100  1  0.18622243  0.21350946  0.24935194  1  0  -0.443043  0  3.365571  0  0  -0.3928  0  3.605247  0  0  -0.41431  0  3.616619  0  0  -0.394338  -0.378079  0  3.597255  0
N  N101  1  0.81377729  0.78648861  0.75064752  1  0  -0.442946  0  3.365724  0  0  -0.392698  0  3.605368  0  0  -0.414209  0  3.616741  0  0  -0.39428  -0.377998  0  3.597387  0
N  N102  1  0.43045473  0.93127640  0.33415160  1  0  -0.31271  0  3.305057  0  0  -0.229419  0  3.571827  0  0  -0.250286  0  3.593759  0  0  -0.327517  -0.214677  0  3.555893  0
N  N103  1  0.56954701  0.06872068  0.66584797  1  0  -0.31274  0  3.304975  0  0  -0.229445  0  3.57173  0  0  -0.250313  0  3.593667  0  0  -0.327537  -0.214698  0  3.555788  0
O  O104  1  0.50917687  0.34210870  0.47514912  1  0  -0.826199  0  1.829898  0  0  -0.766242  0  2.018332  0  0  -0.788734  0  1.985763  0  0  -0.588316  -0.750646  0  2.041735  0
O  O105  1  0.49081975  0.65789136  0.52485079  1  0  -0.826258  0  1.829831  0  0  -0.766299  0  2.018257  0  0  -0.788791  0  1.985692  0  0  -0.588319  -0.750704  0  2.041659  0
O  O106  1  0.67832761  0.45748755  0.61182156  1  0  -0.668195  0  2.018018  0  0  -0.594913  0  2.260208  0  0  -0.624688  0  2.249977  0  0  -0.332534  -0.572803  0  2.267576  0
O  O107  1  0.32166994  0.54252445  0.38817659  1  0  -0.668188  0  2.018037  0  0  -0.594861  0  2.260151  0  0  -0.624637  0  2.249922  0  0  -0.332569  -0.572751  0  2.267518  0
O  O108  1  0.79467061  0.26244554  0.67803723  1  0  -0.640691  0  1.901644  0  0  -0.593723  0  2.127019  0  0  -0.618563  0  2.117579  0  0  -0.340642  -0.575611  0  2.132532  0
O  O109  1  0.20531971  0.73756047  0.32195868  1  0  -0.640586  0  1.901756  0  0  -0.593609  0  2.127128  0  0  -0.618449  0  2.117695  0  0  -0.340626  -0.575496  0  2.132639  0
O  O110  1  0.28466893  0.26118573  0.67356075  1  0  -0.619997  0  1.885243  0  0  -0.572144  0  2.109109  0  0  -0.596801  0  2.099578  0  0  -0.330064  -0.554028  0  2.114531  0
O  O111  1  0.71533262  0.73881335  0.32644123  1  0  -0.619969  0  1.885268  0  0  -0.572107  0  2.109128  0  0  -0.596765  0  2.099594  0  0  -0.330038  -0.553995  0  2.114551  0
O  O112  1  0.36638875  0.45473991  0.65140532  1  0  -0.678311  0  2.052978  0  0  -0.605296  0  2.288001  0  0  -0.635556  0  2.278605  0  0  -0.338745  -0.582719  0  2.294466  0
O  O113  1  0.63361390  0.54525816  0.34859245  1  0  -0.678284  0  2.052927  0  0  -0.605273  0  2.287954  0  0  -0.635541  0  2.27857  0  0  -0.338742  -0.582694  0  2.29441  0
O  O114  1  0.09276872  0.87226432  0.55896233  1  0  -0.572369  0  1.974657  0  0  -0.521191  0  2.182779  0  0  -0.543235  0  2.171079  0  0  -0.29227  -0.506291  0  2.191053  0
O  O115  1  0.90723079  0.12773672  0.44103272  1  0  -0.572468  0  1.974659  0  0  -0.521256  0  2.182822  0  0  -0.5433  0  2.171122  0  0  -0.292337  -0.50636  0  2.191088  0
O  O116  1  0.89630402  0.87747161  0.49783981  1  0  -0.530149  0  2.081974  0  0  -0.478106  0  2.290581  0  0  -0.500364  0  2.273221  0  0  -0.319395  -0.462557  0  2.302237  0
O  O117  1  0.10369552  0.12252845  0.50215988  1  0  -0.530206  0  2.081896  0  0  -0.478133  0  2.290485  0  0  -0.500392  0  2.273127  0  0  -0.31941  -0.462586  0  2.30216  0
O  O118  1  0.71054089  0.20195828  0.16785053  1  0  -0.523572  0  1.896046  0  0  -0.487013  0  2.098011  0  0  -0.506746  0  2.093641  0  0  -0.293565  -0.473122  0  2.100459  0
O  O119  1  0.28945543  0.79804478  0.83215299  1  0  -0.523643  0  1.895836  0  0  -0.48709  0  2.097769  0  0  -0.506821  0  2.0934  0  0  -0.293575  -0.473198  0  2.100225  0
O  O120  1  0.88532652  0.74634540  0.06031485  1  0  -0.499382  0  2.061965  0  0  -0.457643  0  2.251934  0  0  -0.473868  0  2.244856  0  0  -0.346613  -0.4459  0  2.256246  0
O  O121  1  0.11467308  0.25365368  0.93968801  1  0  -0.4994  0  2.061903  0  0  -0.457655  0  2.251877  0  0  -0.473879  0  2.2448  0  0  -0.346625  -0.445912  0  2.256187  0
O  O122  1  0.27258967  0.41152451  0.16319447  1  0  -0.545797  0  1.970513  0  0  -0.496577  0  2.192825  0  0  -0.51711  0  2.187046  0  0  -0.28158  -0.482215  0  2.196318  0
O  O123  1  0.72740997  0.58847456  0.83680401  1  0  -0.545786  0  1.970577  0  0  -0.496596  0  2.192877  0  0  -0.517125  0  2.187084  0  0  -0.281577  -0.482242  0  2.196364  0
