# generated using pymatgen
data_CdH12C18(N2O3)2
_symmetry_space_group_name_H-M   'P 1'
_cell_length_a   8.38662248
_cell_length_b   8.46901442
_cell_length_c   12.89780458
_cell_angle_alpha   83.63309591
_cell_angle_beta   75.97079474
_cell_angle_gamma   85.39811186
_symmetry_Int_Tables_number   1
_chemical_formula_structural   CdH12C18(N2O3)2
_chemical_formula_sum   'Cd2 H24 C36 N8 O12'
_cell_volume   881.92540382
_cell_formula_units_Z   2
loop_
 _symmetry_equiv_pos_site_id
 _symmetry_equiv_pos_as_xyz
  1  'x, y, z'
loop_
 _atom_site_type_symbol
 _atom_site_label
 _atom_site_symmetry_multiplicity
 _atom_site_fract_x
 _atom_site_fract_y
 _atom_site_fract_z
 _atom_site_occupancy
 _atom_site_hle17_bader_spin_density
 _atom_site_hle17_ddec_charge
 _atom_site_hle17_ddec_spin_density
 _atom_site_hle17_ddec_sum_bond_order
 _atom_site_hle17_magmom
 _atom_site_hse06_10hf_bader_spin_density
 _atom_site_hse06_10hf_ddec_charge
 _atom_site_hse06_10hf_ddec_spin_density
 _atom_site_hse06_10hf_ddec_sum_bond_order
 _atom_site_hse06_10hf_magmom
 _atom_site_hse06_bader_spin_density
 _atom_site_hse06_ddec_charge
 _atom_site_hse06_ddec_spin_density
 _atom_site_hse06_ddec_sum_bond_order
 _atom_site_hse06_magmom
 _atom_site_pbe_bader_spin_density
 _atom_site_pbe_cm5_charge
 _atom_site_pbe_ddec_charge
 _atom_site_pbe_ddec_spin_density
 _atom_site_pbe_ddec_sum_bond_order
 _atom_site_pbe_magmom
Cd  Cd0  1  0.77015845  0.91086096  0.83525844  1  0  1.070561  0  1.680036  0  0  0.861905  0  2.126317  0  0  0.920052  0  2.076604  0  0  0.796179  0.820626  0  2.160545  0
Cd  Cd1  1  0.22984151  0.08913998  0.16474231  1  0  1.070555  0  1.680032  0  0  0.861913  0  2.126316  0  0  0.920055  0  2.0766  0  0  0.796187  0.820634  0  2.160544  0
H  H2  1  0.40758143  0.89656394  0.82080608  1  0  0.084038  0  0.967895  0  0  0.085558  0  1.044242  0  0  0.08832  0  1.041433  0  0  0.112111  0.083467  0  1.04641  0
H  H3  1  0.59241982  0.10343581  0.17919455  1  0  0.084043  0  0.967892  0  0  0.085558  0  1.044246  0  0  0.088321  0  1.041436  0  0  0.112119  0.083467  0  1.046414  0
H  H4  1  0.25474532  0.80656575  0.69849097  1  0  0.104426  0  0.977311  0  0  0.111663  0  1.04295  0  0  0.113978  0  1.043831  0  0  0.103662  0.109981  0  1.042551  0
H  H5  1  0.74525348  0.19343400  0.30151005  1  0  0.104391  0  0.977279  0  0  0.11163  0  1.042918  0  0  0.113944  0  1.0438  0  0  0.103643  0.109948  0  1.042518  0
H  H6  1  0.70945252  0.81437002  0.45216035  1  0  0.112273  0  0.998142  0  0  0.115746  0  1.069498  0  0  0.120273  0  1.066313  0  0  0.104302  0.112488  0  1.071908  0
H  H7  1  0.29054621  0.18563092  0.54784059  1  0  0.112283  0  0.998076  0  0  0.115724  0  1.06946  0  0  0.120246  0  1.066275  0  0  0.104315  0.112469  0  1.071864  0
H  H8  1  0.84485063  0.89418567  0.58683913  1  0  0.085549  0  0.946019  0  0  0.097492  0  1.006575  0  0  0.099627  0  1.004338  0  0  0.117553  0.095905  0  1.008215  0
H  H9  1  0.15514810  0.10581527  0.41316181  1  0  0.085521  0  0.946043  0  0  0.097478  0  1.006584  0  0  0.099612  0  1.004348  0  0  0.117542  0.095892  0  1.008224  0
H  H10  1  0.13951817  0.80101940  0.57557396  1  0  0.097368  0  0.980157  0  0  0.107426  0  1.045495  0  0  0.110442  0  1.043445  0  0  0.099831  0.105316  0  1.046905  0
H  H11  1  0.86048247  0.19899106  0.42442289  1  0  0.097508  0  0.980004  0  0  0.107499  0  1.045408  0  0  0.110517  0  1.043349  0  0  0.09988  0.105389  0  1.046817  0
H  H12  1  0.00127050  0.67156597  0.46175987  1  0  0.09861  0  0.952603  0  0  0.10903  0  1.014415  0  0  0.111591  0  1.01394  0  0  0.103155  0.10721  0  1.014808  0
H  H13  1  0.99872891  0.32844450  0.53823640  1  0  0.098641  0  0.952578  0  0  0.109061  0  1.014386  0  0  0.111624  0  1.013907  0  0  0.103151  0.107241  0  1.01478  0
H  H14  1  0.47332264  0.51845625  0.27083235  1  0  0.096806  0  0.952049  0  0  0.107323  0  1.012824  0  0  0.109476  0  1.01281  0  0  0.103778  0.105803  0  1.012867  0
H  H15  1  0.52667616  0.48154350  0.72916866  1  0  0.096793  0  0.952047  0  0  0.107311  0  1.012825  0  0  0.109465  0  1.012811  0  0  0.103767  0.105792  0  1.012868  0
H  H16  1  0.61183607  0.64041837  0.38724501  1  0  0.102949  0  0.95539  0  0  0.116564  0  1.011749  0  0  0.119092  0  1.010842  0  0  0.107355  0.114749  0  1.012464  0
H  H17  1  0.38816409  0.35957900  0.61275674  1  0  0.102937  0  0.955405  0  0  0.116552  0  1.011761  0  0  0.119078  0  1.010859  0  0  0.107355  0.114736  0  1.012477  0
H  H18  1  0.80882222  0.61210675  0.18818511  1  0  0.128091  0  0.961785  0  0  0.135536  0  1.022343  0  0  0.139863  0  1.019704  0  0  0.110369  0.132414  0  1.02437  0
H  H19  1  0.19117651  0.38789419  0.81181583  1  0  0.12808  0  0.961827  0  0  0.135524  0  1.022383  0  0  0.139852  0  1.019744  0  0  0.110372  0.132403  0  1.02441  0
H  H20  1  0.64820319  0.52356260  0.06399360  1  0  0.106008  0  0.956323  0  0  0.116519  0  1.014586  0  0  0.119593  0  1.011831  0  0  0.109675  0.11422  0  1.016692  0
H  H21  1  0.35179813  0.47643596  0.93600633  1  0  0.105972  0  0.956338  0  0  0.11648  0  1.014609  0  0  0.119554  0  1.011854  0  0  0.109666  0.114182  0  1.016715  0
H  H22  1  0.74560275  0.27384784  0.97508554  1  0  0.122454  0  0.952893  0  0  0.128226  0  1.017816  0  0  0.13206  0  1.015465  0  0  0.110473  0.12546  0  1.019667  0
H  H23  1  0.25439851  0.72615191  0.02491509  1  0  0.12245  0  0.952858  0  0  0.128228  0  1.017788  0  0  0.132061  0  1.015439  0  0  0.110474  0.125462  0  1.019639  0
H  H24  1  0.98890316  0.11600757  0.01863464  1  0  0.078976  0  0.959635  0  0  0.086102  0  1.030571  0  0  0.088825  0  1.027187  0  0  0.113266  0.084074  0  1.033112  0
H  H25  1  0.01109796  0.88399456  0.98136662  1  0  0.078969  0  0.959643  0  0  0.086121  0  1.03055  0  0  0.088851  0  1.027167  0  0  0.11327  0.084092  0  1.033091  0
C  C26  1  0.47002108  0.87304974  0.73905314  1  0  0.137549  0  3.696816  0  0  0.106115  0  3.94539  0  0  0.114769  0  3.963493  0  0  0.043703  0.100509  0  3.933073  0
C  C27  1  0.52997895  0.12695001  0.26094768  1  0  0.13752  0  3.696787  0  0  0.106087  0  3.945363  0  0  0.114741  0  3.963463  0  0  0.043667  0.100481  0  3.933045  0
C  C28  1  0.38554381  0.82417851  0.66922691  1  0  -0.15214  0  3.681462  0  0  -0.169852  0  3.930984  0  0  -0.178121  0  3.952201  0  0  -0.081932  -0.164613  0  3.916881  0
C  C29  1  0.61445636  0.17581886  0.33077406  1  0  -0.152053  0  3.681287  0  0  -0.169761  0  3.93078  0  0  -0.178031  0  3.951997  0  0  -0.0819  -0.164522  0  3.916676  0
C  C30  1  0.46916586  0.79417857  0.56426594  1  0  0.113928  0  3.742831  0  0  0.122449  0  3.974251  0  0  0.12864  0  3.995289  0  0  0.01805  0.118477  0  3.959924  0
C  C31  1  0.53083417  0.20582118  0.43573488  1  0  0.113811  0  3.742854  0  0  0.122353  0  3.974217  0  0  0.128546  0  3.995252  0  0  0.018033  0.118381  0  3.95989  0
C  C32  1  0.63734471  0.82494513  0.53381675  1  0  -0.159988  0  3.688903  0  0  -0.177687  0  3.940978  0  0  -0.186299  0  3.961063  0  0  -0.084405  -0.172127  0  3.927625  0
C  C33  1  0.36265395  0.17505700  0.46618334  1  0  -0.15996  0  3.688832  0  0  -0.177631  0  3.940918  0  0  -0.186235  0  3.960997  0  0  -0.084421  -0.172074  0  3.927565  0
C  C34  1  0.71432713  0.87160962  0.60820519  1  0  0.128935  0  3.721238  0  0  0.094997  0  3.972733  0  0  0.103333  0  3.992317  0  0  0.043312  0.089583  0  3.959353  0
C  C35  1  0.28567283  0.12839132  0.39179556  1  0  0.128965  0  3.721251  0  0  0.095017  0  3.972739  0  0  0.103353  0  3.992323  0  0  0.043344  0.089604  0  3.959359  0
C  C36  1  0.38626835  0.72828907  0.49148570  1  0  0.04191  0  3.760866  0  0  0.059229  0  3.98999  0  0  0.058201  0  4.013532  0  0  -0.00436  0.059979  0  3.973857  0
C  C37  1  0.61373181  0.27170830  0.50851605  1  0  0.041957  0  3.76083  0  0  0.059294  0  3.989888  0  0  0.058266  0  4.013431  0  0  -0.004331  0.060045  0  3.973754  0
C  C38  1  0.21344285  0.73618692  0.51052435  1  0  -0.10176  0  3.738376  0  0  -0.123344  0  3.98701  0  0  -0.126223  0  4.008599  0  0  -0.086261  -0.121269  0  3.972236  0
C  C39  1  0.78655670  0.26382116  0.48947440  1  0  -0.10184  0  3.738243  0  0  -0.123385  0  3.986886  0  0  -0.126263  0  4.008478  0  0  -0.08633  -0.12131  0  3.972112  0
C  C40  1  0.13505514  0.66535038  0.44604283  1  0  -0.095924  0  3.717448  0  0  -0.116219  0  3.964316  0  0  -0.11874  0  3.985651  0  0  -0.082337  -0.114391  0  3.949767  0
C  C41  1  0.86494420  0.33466127  0.55395414  1  0  -0.096061  0  3.717618  0  0  -0.11638  0  3.964437  0  0  -0.118906  0  3.985775  0  0  -0.082348  -0.114553  0  3.949889  0
C  C42  1  0.22760395  0.58447856  0.35909363  1  0  0.105889  0  3.886883  0  0  0.121146  0  4.113521  0  0  0.121862  0  4.136065  0  0  0.000501  0.120591  0  4.09823  0
C  C43  1  0.77239443  0.41552833  0.64090539  1  0  0.105888  0  3.887094  0  0  0.12126  0  4.113551  0  0  0.121981  0  4.136094  0  0  0.000547  0.120703  0  4.098262  0
C  C44  1  0.40080034  0.57874977  0.33849486  1  0  -0.077935  0  3.701719  0  0  -0.096401  0  3.945103  0  0  -0.098269  0  3.965364  0  0  -0.076261  -0.094999  0  3.93127  0
C  C45  1  0.59919955  0.42125236  0.66150581  1  0  -0.077898  0  3.701757  0  0  -0.096411  0  3.945123  0  0  -0.098281  0  3.965386  0  0  -0.076253  -0.095008  0  3.931293  0
C  C46  1  0.47802988  0.64922424  0.40378405  1  0  -0.084043  0  3.706441  0  0  -0.106482  0  3.953049  0  0  -0.108789  0  3.974067  0  0  -0.078547  -0.104814  0  3.938698  0
C  C47  1  0.52196892  0.35077551  0.59621619  1  0  -0.084029  0  3.706376  0  0  -0.106478  0  3.952994  0  0  -0.108783  0  3.974012  0  0  -0.078559  -0.104809  0  3.938644  0
C  C48  1  0.14634105  0.51292479  0.29376482  1  0  -0.034565  0  3.818463  0  0  -0.035418  0  4.068598  0  0  -0.035555  0  4.098931  0  0  -0.018938  -0.03523  0  4.04785  0
C  C49  1  0.85365987  0.48708092  0.70623466  1  0  -0.034679  0  3.818735  0  0  -0.035577  0  4.068842  0  0  -0.035718  0  4.099177  0  0  -0.019035  -0.035388  0  4.048093  0
C  C50  1  0.07135809  0.45541461  0.23826263  1  0  -0.155831  0  3.818826  0  0  -0.155545  0  4.078662  0  0  -0.163417  0  4.108246  0  0  -0.044499  -0.150014  0  4.058399  0
C  C51  1  0.92864050  0.54458871  0.76173661  1  0  -0.155681  0  3.818946  0  0  -0.155382  0  4.078777  0  0  -0.163253  0  4.108359  0  0  -0.044429  -0.149842  0  4.058526  0
C  C52  1  0.97800750  0.40642887  0.17074859  1  0  0.282001  0  3.874167  0  0  0.277135  0  4.109371  0  0  0.288714  0  4.12734  0  0  0.121303  0.269242  0  4.097214  0
C  C53  1  0.02199239  0.59357327  0.82925131  1  0  0.281986  0  3.87414  0  0  0.277096  0  4.109371  0  0  0.288682  0  4.127324  0  0  0.121264  0.269173  0  4.097259  0
C  C54  1  0.84122509  0.50127280  0.15049618  1  0  -0.147282  0  3.645234  0  0  -0.164054  0  3.887957  0  0  -0.17132  0  3.906836  0  0  -0.076337  -0.159305  0  3.875356  0
C  C55  1  0.15877487  0.49872814  0.84950302  1  0  -0.147321  0  3.645262  0  0  -0.164078  0  3.887979  0  0  -0.171345  0  3.906855  0  0  -0.076319  -0.15932  0  3.875389  0
C  C56  1  0.75466507  0.45268673  0.08128793  1  0  0.006036  0  3.697081  0  0  -0.013865  0  3.947279  0  0  -0.010391  0  3.965366  0  0  -0.063591  -0.01587  0  3.934924  0
C  C57  1  0.24533742  0.54731303  0.91871018  1  0  0.006131  0  3.697011  0  0  -0.013767  0  3.947208  0  0  -0.010293  0  3.965297  0  0  -0.063601  -0.015771  0  3.934852  0
C  C58  1  0.80774377  0.31348512  0.03155191  1  0  -0.099189  0  3.688649  0  0  -0.111681  0  3.941247  0  0  -0.117406  0  3.960692  0  0  -0.077671  -0.108074  0  3.928299  0
C  C59  1  0.19225762  0.68651225  0.96844887  1  0  -0.099252  0  3.688469  0  0  -0.11177  0  3.94111  0  0  -0.117492  0  3.960555  0  0  -0.077694  -0.108164  0  3.928161  0
C  C60  1  0.94308536  0.22500761  0.05589463  1  0  0.141045  0  3.700692  0  0  0.105788  0  3.955265  0  0  0.113197  0  3.973681  0  0  0.043742  0.100951  0  3.942704  0
C  C61  1  0.05691576  0.77499452  0.94410585  1  0  0.141103  0  3.700567  0  0  0.105838  0  3.95513  0  0  0.113233  0  3.973561  0  0  0.043777  0.101003  0  3.942565  0
N  N62  1  0.63350835  0.89211386  0.71023256  1  0  -0.351591  0  3.31959  0  0  -0.257577  0  3.58014  0  0  -0.282077  0  3.601158  0  0  -0.34343  -0.240877  0  3.565454  0
N  N63  1  0.36649161  0.10788709  0.28976741  1  0  -0.351606  0  3.319674  0  0  -0.257604  0  3.580242  0  0  -0.282105  0  3.60126  0  0  -0.343428  -0.240904  0  3.565555  0
N  N64  1  0.04173762  0.10781689  0.73977010  1  0  0.691303  0  4.128229  0  0  0.71636  0  4.427957  0  0  0.74527  0  4.434475  0  0  0.097338  0.698596  0  4.422663  0
N  N65  1  0.95826104  0.89218523  0.26023077  1  0  0.691278  0  4.128208  0  0  0.716311  0  4.427973  0  0  0.745219  0  4.434493  0  0  0.097358  0.69855  0  4.422677  0
N  N66  1  0.56586144  0.83468185  0.04391303  1  0  0.683775  0  4.13741  0  0  0.720858  0  4.421623  0  0  0.736865  0  4.446984  0  0  0.088642  0.701239  0  4.41655  0
N  N67  1  0.43413982  0.16531790  0.95608683  1  0  0.683625  0  4.137564  0  0  0.720657  0  4.421848  0  0  0.736685  0  4.447198  0  0  0.088561  0.701038  0  4.416774  0
N  N68  1  0.02550743  0.26764936  0.12480672  1  0  -0.399633  0  3.242346  0  0  -0.319204  0  3.498847  0  0  -0.3416  0  3.517531  0  0  -0.332686  -0.30377  0  3.485778  0
N  N69  1  0.97449368  0.73235277  0.87519298  1  0  -0.399617  0  3.242381  0  0  -0.319186  0  3.498897  0  0  -0.341581  0  3.517582  0  0  -0.332638  -0.303744  0  3.485838  0
O  O70  1  0.01406407  0.01315457  0.67678492  1  0  -0.488715  0  1.772314  0  0  -0.473803  0  2.002085  0  0  -0.49079  0  1.995875  0  0  -0.194646  -0.462554  0  2.006015  0
O  O71  1  0.98593459  0.98684756  0.32321595  1  0  -0.488705  0  1.772342  0  0  -0.473791  0  2.002125  0  0  -0.490776  0  1.995914  0  0  -0.194658  -0.462554  0  2.006078  0
O  O72  1  0.16263624  0.19211700  0.71455224  1  0  -0.406353  0  1.785882  0  0  -0.396826  0  1.994552  0  0  -0.408942  0  1.988558  0  0  -0.151703  -0.389127  0  1.99868  0
O  O73  1  0.83736256  0.80788275  0.28544800  1  0  -0.406364  0  1.78586  0  0  -0.396829  0  1.994549  0  0  -0.408943  0  1.988552  0  0  -0.151715  -0.389128  0  1.99867  0
O  O74  1  0.94028673  0.11449344  0.83240206  1  0  -0.486392  0  1.818488  0  0  -0.452506  0  2.056639  0  0  -0.474848  0  2.050234  0  0  -0.196691  -0.437403  0  2.060514  0
O  O75  1  0.05971193  0.88550869  0.16759881  1  0  -0.48636  0  1.818437  0  0  -0.45248  0  2.056619  0  0  -0.474823  0  2.050219  0  0  -0.196695  -0.437377  0  2.060494  0
O  O76  1  0.66888796  0.94579442  0.02234540  1  0  -0.48779  0  1.785159  0  0  -0.461962  0  2.011692  0  0  -0.478739  0  2.010657  0  0  -0.203236  -0.447317  0  2.01561  0
O  O77  1  0.33111329  0.05420533  0.97765601  1  0  -0.48772  0  1.785194  0  0  -0.461902  0  2.011776  0  0  -0.478664  0  2.010698  0  0  -0.2032  -0.447256  0  2.015692  0
O  O78  1  0.46845725  0.81673987  0.13379954  1  0  -0.419464  0  1.760533  0  0  -0.416707  0  1.978139  0  0  -0.424756  0  1.977051  0  0  -0.164472  -0.40787  0  1.982602  0
O  O79  1  0.53154270  0.18326107  0.86620043  1  0  -0.419466  0  1.760592  0  0  -0.416689  0  1.9782  0  0  -0.424747  0  1.977108  0  0  -0.164477  -0.407853  0  1.982665  0
O  O80  1  0.56662328  0.74534572  0.97027683  1  0  -0.471885  0  1.77918  0  0  -0.45402  0  2.000816  0  0  -0.467763  0  1.999194  0  0  -0.186304  -0.44124  0  2.005174  0
O  O81  1  0.43337798  0.25465403  0.02972303  1  0  -0.471795  0  1.779194  0  0  -0.453903  0  2.000842  0  0  -0.467649  0  1.999205  0  0  -0.186256  -0.441122  0  2.005197  0
