# generated using pymatgen
data_CoH10(CO2)4
_symmetry_space_group_name_H-M   'P 1'
_cell_length_a   5.28358687
_cell_length_b   7.02543500
_cell_length_c   12.25084714
_cell_angle_alpha   89.59601680
_cell_angle_beta   88.87706954
_cell_angle_gamma   67.90586883
_symmetry_Int_Tables_number   1
_chemical_formula_structural   CoH10(CO2)4
_chemical_formula_sum   'Co2 H20 C8 O16'
_cell_volume   421.27109048
_cell_formula_units_Z   2
loop_
 _symmetry_equiv_pos_site_id
 _symmetry_equiv_pos_as_xyz
  1  'x, y, z'
loop_
 _atom_site_type_symbol
 _atom_site_label
 _atom_site_symmetry_multiplicity
 _atom_site_fract_x
 _atom_site_fract_y
 _atom_site_fract_z
 _atom_site_occupancy
 _atom_site_pbe_bader_charge
 _atom_site_pbe_bader_spin_density
 _atom_site_pbe_cm5_charge
 _atom_site_pbe_ddec_charge
 _atom_site_pbe_ddec_spin_density
 _atom_site_pbe_ddec_sum_bond_order
 _atom_site_pbe_magmom
Co  Co0  1  0.97771460  0.04476402  0.25000077  1  1.338904  2.659713  0.639266  1.084121  2.844515  2.244437  2.644
Co  Co1  1  0.02677955  0.94617563  0.74990996  1  1.340996  2.659854  0.637767  1.089192  2.841914  2.229083  2.645
H  H2  1  0.68453271  0.60302106  0.44658507  1  0.10672  0.00016  0.105589  0.118215  8.9e-05  1.051995  0.0
H  H3  1  0.71215492  0.60322232  0.05349630  1  0.132834  0.000167  0.10612  0.119492  9.3e-05  1.050852  0.0
H  H4  1  0.31964421  0.39776966  0.55617963  1  0.127186  0.00016  0.10618  0.120285  7.7e-05  1.053699  0.0
H  H5  1  0.28227900  0.39748061  0.94375232  1  0.141104  0.000155  0.106045  0.120296  7.6e-05  1.053512  0.0
H  H6  1  0.41181754  0.09245702  0.14997749  1  0.646827  0.000387  0.304562  0.407858  -1.3e-05  0.907476  0.001
H  H7  1  0.49593200  0.09290378  0.35017569  1  0.649325  0.000426  0.304056  0.407066  -1e-05  0.908597  0.001
H  H8  1  0.59128286  0.89881671  0.85208879  1  0.643832  0.001952  0.302915  0.404172  0.001185  0.912992  0.003
H  H9  1  0.50960952  0.89905678  0.64779148  1  0.62974  0.00199  0.302352  0.40332  0.001183  0.914118  0.003
H  H10  1  0.29220906  0.93609442  0.09124091  1  0.633229  0.000778  0.291933  0.379604  0.000585  0.965727  0.001
H  H11  1  0.77191668  0.93610257  0.40875994  1  0.662572  0.000676  0.29233  0.380244  0.000592  0.964794  0.001
H  H12  1  0.69135983  0.07058720  0.90511487  1  0.647771  -2.7e-05  0.292062  0.380847  -0.000221  0.96359  0.0
H  H13  1  0.23771303  0.07079173  0.59488356  1  0.650895  -4.5e-05  0.292154  0.381238  -0.000225  0.962862  0.0
H  H14  1  0.55796655  0.40578018  0.19303463  1  0.603315  0.001331  0.324525  0.405002  0.000578  0.873076  0.001
H  H15  1  0.03815289  0.40534251  0.30730981  1  0.604559  0.001281  0.324543  0.405452  0.000581  0.87227  0.001
H  H16  1  0.44584507  0.59002164  0.80715642  1  0.623798  0.00097  0.325742  0.407786  0.000314  0.871054  0.001
H  H17  1  0.96485651  0.58956519  0.69270235  1  0.62413  0.000956  0.325857  0.408017  0.000315  0.870014  0.001
H  H18  1  0.67902797  0.28225823  0.08278795  1  0.642365  0.000257  0.293113  0.387625  0.000126  0.959207  0.001
H  H19  1  0.03898746  0.28228163  0.41748673  1  0.669243  0.000256  0.293093  0.38768  0.000123  0.959319  0.001
H  H20  1  0.31584742  0.71660814  0.91668315  1  0.672592  6.8e-05  0.293095  0.387706  -9.1e-05  0.961279  0.0
H  H21  1  0.96754204  0.71641302  0.58326689  1  0.654928  8.9e-05  0.293268  0.387883  -9.2e-05  0.961031  0.0
C  C22  1  0.24481795  0.72430169  0.42022564  1  1.541172  -0.006315  0.212567  0.627314  -0.008161  4.158961  -0.004
C  C23  1  0.03052549  0.72460966  0.07962664  1  1.540499  -0.00632  0.212918  0.628277  -0.008152  4.157162  -0.004
C  C24  1  0.76023690  0.27875338  0.58252390  1  1.520115  -0.004963  0.211569  0.626357  -0.006621  4.16215  -0.003
C  C25  1  0.96051297  0.27868483  0.91749220  1  1.52835  -0.004933  0.211544  0.62653  -0.00661  4.162645  -0.003
C  C26  1  0.49838197  0.57846886  0.46849783  1  -0.076003  0.001043  -0.091053  -0.182723  -0.001071  3.919512  0.002
C  C27  1  0.92290846  0.57855441  0.03151636  1  -0.097509  0.001123  -0.091905  -0.184944  -0.001  3.919528  0.002
C  C28  1  0.50514481  0.42327739  0.53428637  1  -0.004867  0.00029  -0.091519  -0.185892  -0.001635  3.915396  0.002
C  C29  1  0.07123957  0.42315167  0.96574439  1  -0.02587  0.000259  -0.091048  -0.185281  -0.001671  3.914898  0.002
O  O30  1  0.27554247  0.83025271  0.33964906  1  -1.151009  0.067549  -0.316116  -0.576206  0.034218  2.305826  0.06
O  O31  1  0.89338250  0.83107204  0.16002985  1  -1.154249  0.06768  -0.315924  -0.576077  0.03434  2.305527  0.06
O  O32  1  0.73129428  0.16981099  0.66197625  1  -1.156169  0.069104  -0.316311  -0.575396  0.034863  2.297079  0.061
O  O33  1  0.09779897  0.17028243  0.83771210  1  -1.15374  0.069121  -0.316072  -0.575352  0.034849  2.297392  0.061
O  O34  1  0.01110623  0.73584219  0.45854914  1  -1.184974  -0.000908  -0.308886  -0.554427  -0.002142  2.253805  -0.001
O  O35  1  0.25292178  0.73585727  0.04134777  1  -1.192924  -0.000851  -0.308966  -0.554515  -0.002085  2.252701  -0.001
O  O36  1  0.99221043  0.27280808  0.54524167  1  -1.194342  -0.001473  -0.309968  -0.558232  -0.002805  2.246096  -0.001
O  O37  1  0.73493226  0.27238511  0.95504288  1  -1.193573  -0.001459  -0.310015  -0.558367  -0.002785  2.246846  -0.001
O  O38  1  0.24499927  0.07069621  0.13094260  1  -1.240112  0.064735  -0.576559  -0.775965  0.033253  2.189866  0.05
O  O39  1  0.68471040  0.07074746  0.36910706  1  -1.272916  0.064891  -0.576675  -0.776127  0.033275  2.190317  0.05
O  O40  1  0.75068860  0.93036477  0.87129440  1  -1.256404  0.054593  -0.578891  -0.782235  0.027918  2.186415  0.043
O  O41  1  0.31874845  0.93045327  0.62852522  1  -1.246194  0.054555  -0.578287  -0.78178  0.027981  2.18757  0.043
O  O42  1  0.63735535  0.26731801  0.16328788  1  -1.217468  0.041367  -0.557362  -0.773528  0.020896  2.152259  0.034
O  O43  1  0.09624787  0.26695091  0.33705865  1  -1.245035  0.041106  -0.557113  -0.773906  0.020775  2.150729  0.033
O  O44  1  0.35983729  0.72911791  0.83568393  1  -1.264883  0.049052  -0.555923  -0.775097  0.025319  2.164321  0.039
O  O45  1  0.91130193  0.72874220  0.66427914  1  -1.248763  0.049205  -0.556571  -0.775532  0.025361  2.162306  0.039
