# generated using pymatgen
data_ZnH17C20(NO2)2
_symmetry_space_group_name_H-M   'P 1'
_cell_length_a   10.30042457
_cell_length_b   14.58452701
_cell_length_c   14.58454006
_cell_angle_alpha   65.55004139
_cell_angle_beta   80.38618661
_cell_angle_gamma   80.38637770
_symmetry_Int_Tables_number   1
_chemical_formula_structural   ZnH17C20(NO2)2
_chemical_formula_sum   'Zn4 H68 C80 N8 O16'
_cell_volume   1954.76836729
_cell_formula_units_Z   4
loop_
 _symmetry_equiv_pos_site_id
 _symmetry_equiv_pos_as_xyz
  1  'x, y, z'
loop_
 _atom_site_type_symbol
 _atom_site_label
 _atom_site_symmetry_multiplicity
 _atom_site_fract_x
 _atom_site_fract_y
 _atom_site_fract_z
 _atom_site_occupancy
 _atom_site_pbe_bader_charge
 _atom_site_pbe_bader_spin_density
 _atom_site_pbe_cm5_charge
 _atom_site_pbe_ddec_charge
 _atom_site_pbe_ddec_spin_density
 _atom_site_pbe_ddec_sum_bond_order
 _atom_site_pbe_magmom
Zn  Zn0  1  0.37838340  0.97274926  0.62152953  1  1.288862  0  0.699175  0.8708  0  2.34311  0
Zn  Zn1  1  0.12161349  0.37846861  0.02725424  1  1.288863  0  0.699162  0.870712  0  2.343182  0
Zn  Zn2  1  0.62161344  0.02725589  0.37846888  1  1.288908  0  0.699161  0.870738  0  2.343193  0
Zn  Zn3  1  0.87838530  0.62152971  0.97274810  1  1.288847  0  0.699187  0.870802  0  2.34314  0
H  H4  1  0.52766217  0.71210719  0.68534033  1  0.070648  0  0.100719  0.151676  0  0.985796  0
H  H5  1  0.97233916  0.31465864  0.28789495  1  0.070633  0  0.100756  0.151725  0  0.985782  0
H  H6  1  0.47233607  0.28789494  0.31465778  1  0.070686  0  0.100759  0.15174  0  0.985762  0
H  H7  1  0.02765931  0.68534196  0.71210581  1  0.070658  0  0.100759  0.151735  0  0.985797  0
H  H8  1  0.65584512  0.70324397  0.75787519  1  0.086668  0  0.100462  0.147377  0  1.015285  0
H  H9  1  0.84415458  0.24212471  0.29675772  1  0.086695  0  0.100471  0.14738  0  1.015317  0
H  H10  1  0.34415431  0.29675664  0.24212202  1  0.086635  0  0.100475  0.147423  0  1.015225  0
H  H11  1  0.15584366  0.75787741  0.70324176  1  0.086695  0  0.100471  0.147415  0  1.015267  0
H  H12  1  0.61091664  0.81946069  0.65609256  1  0.121742  0  0.10718  0.172621  0  1.000538  0
H  H13  1  0.88908453  0.34390661  0.18054211  1  0.121807  0  0.10717  0.172615  0  1.000596  0
H  H14  1  0.38908475  0.18053992  0.34390372  1  0.121801  0  0.107179  0.172621  0  1.000582  0
H  H15  1  0.11091373  0.65609550  0.81945942  1  0.121791  0  0.107167  0.172614  0  1.000603  0
H  H16  1  0.13811364  0.25262995  0.73159101  1  0.128359  0  0.105727  0.110394  0  1.012132  0
H  H17  1  0.36188145  0.26841088  0.74737543  1  0.12839  0  0.105683  0.110378  0  1.012208  0
H  H18  1  0.86188398  0.74737670  0.26840874  1  0.128341  0  0.105673  0.110352  0  1.012231  0
H  H19  1  0.63811504  0.73158972  0.25262488  1  0.128368  0  0.105693  0.110378  0  1.012204  0
H  H20  1  0.21271256  0.77033938  0.52691767  1  0.070292  0  0.103574  0.103707  0  1.017557  0
H  H21  1  0.28729170  0.47307974  0.22965791  1  0.07034  0  0.10354  0.103715  0  1.017527  0
H  H22  1  0.78729702  0.22965211  0.47308480  1  0.070594  0  0.10353  0.103723  0  1.017656  0
H  H23  1  0.71270554  0.52691555  0.77034587  1  0.070353  0  0.103542  0.103747  0  1.017609  0
H  H24  1  0.02574867  0.42553338  0.67509349  1  0.072236  0  0.09815  0.097139  0  1.03469  0
H  H25  1  0.47424775  0.32490494  0.57447108  1  0.072321  0  0.098132  0.097162  0  1.034667  0
H  H26  1  0.97424807  0.57447253  0.32490530  1  0.072448  0  0.098117  0.09712  0  1.034651  0
H  H27  1  0.52575299  0.67509339  0.42552965  1  0.072325  0  0.098109  0.09714  0  1.034657  0
H  H28  1  0.39998572  0.85321345  0.16801841  1  0.070838  0  0.107601  0.112521  0  0.982866  0
H  H29  1  0.10002294  0.83197713  0.14678785  1  0.070948  0  0.107615  0.112561  0  0.982814  0
H  H30  1  0.60001197  0.14679247  0.83197683  1  0.070868  0  0.107596  0.1125  0  0.982906  0
H  H31  1  0.89998643  0.16802271  0.85320778  1  0.070852  0  0.107596  0.112523  0  0.982936  0
H  H32  1  0.14887392  0.68090629  0.43061340  1  0.106169  0  0.09862  0.103008  0  1.043303  0
H  H33  1  0.35113774  0.56938357  0.31908916  1  0.106148  0  0.098573  0.102917  0  1.043321  0
H  H34  1  0.85114363  0.31908445  0.56938635  1  0.106227  0  0.09859  0.102949  0  1.04325  0
H  H35  1  0.64885940  0.43061248  0.68091500  1  0.106169  0  0.098574  0.102945  0  1.043305  0
H  H36  1  0.46472806  0.94145020  0.26517157  1  0.111896  0  0.10913  0.116148  0  1.003009  0
H  H37  1  0.03527326  0.73482543  0.05855281  1  0.111587  0  0.109112  0.116116  0  1.003047  0
H  H38  1  0.53526483  0.05855496  0.73482662  1  0.111723  0  0.109155  0.116139  0  1.003036  0
H  H39  1  0.96473611  0.26517441  0.94144282  1  0.111721  0  0.109136  0.116122  0  1.003064  0
H  H40  1  0.24024328  0.93589480  0.84705421  1  0.157284  0  0.121627  0.130371  0  1.005525  0
H  H41  1  0.25975724  0.15294334  0.06410686  1  0.153009  0  0.121606  0.130361  0  1.005445  0
H  H42  1  0.75975870  0.06410882  0.15294557  1  0.152333  0  0.121634  0.130386  0  1.005485  0
H  H43  1  0.74024063  0.84705425  0.93589110  1  0.152309  0  0.12162  0.130352  0  1.005536  0
H  H44  1  0.32983809  0.76515315  0.01173749  1  0.121572  0  0.116877  0.116151  0  1.053042  0
H  H45  1  0.17016109  0.98826034  0.23485029  1  0.121504  0  0.116881  0.116151  0  1.053068  0
H  H46  1  0.67016915  0.23484819  0.98826464  1  0.121522  0  0.116874  0.116111  0  1.053087  0
H  H47  1  0.82983221  0.01173496  0.76515327  1  0.121578  0  0.116873  0.116144  0  1.053048  0
H  H48  1  0.36028958  0.55809955  0.99100726  1  0.018954  0  0.093657  0.09466  0  1.006444  0
H  H49  1  0.13970735  0.00899076  0.44190122  1  0.018865  0  0.093693  0.094687  0  1.006463  0
H  H50  1  0.63971021  0.44190559  0.00899078  1  0.019001  0  0.093686  0.094684  0  1.00651  0
H  H51  1  0.86028866  0.99100608  0.55809727  1  0.018957  0  0.093681  0.094672  0  1.006457  0
H  H52  1  0.46927604  0.54634383  0.88897911  1  0.006761  0  0.093883  0.091587  0  0.985637  0
H  H53  1  0.03071994  0.11101832  0.45365675  1  0.006653  0  0.093899  0.091623  0  0.985635  0
H  H54  1  0.53072011  0.45365906  0.11101757  1  0.006644  0  0.093884  0.091623  0  0.985657  0
H  H55  1  0.96927905  0.88897849  0.54634414  1  0.006743  0  0.093867  0.091584  0  0.98565  0
H  H56  1  0.06261787  0.43852105  0.37015938  1  0.033673  0  0.096325  0.094796  0  1.041794  0
H  H57  1  0.43738720  0.62984001  0.56148170  1  0.03369  0  0.096254  0.09474  0  1.041772  0
H  H58  1  0.93737207  0.56148411  0.62983985  1  0.033364  0  0.096254  0.094732  0  1.041658  0
H  H59  1  0.56262155  0.37015754  0.43851975  1  0.03366  0  0.096309  0.094796  0  1.041869  0
H  H60  1  0.53302016  0.64178578  0.02705276  1  0.053851  0  0.114642  0.098288  0  0.975276  0
H  H61  1  0.96697852  0.97294532  0.35821455  1  0.05379  0  0.114657  0.098361  0  0.975291  0
H  H62  1  0.46698507  0.35821558  0.97294412  1  0.053761  0  0.114639  0.098335  0  0.975345  0
H  H63  1  0.03301806  0.02705454  0.64178400  1  0.053794  0  0.114649  0.098315  0  0.975341  0
H  H64  1  0.63253646  0.63705184  0.91748888  1  0.080358  0  0.107828  0.080784  0  1.039492  0
H  H65  1  0.86746121  0.08250740  0.36295014  1  0.080343  0  0.107813  0.080794  0  1.039509  0
H  H66  1  0.36746600  0.36294802  0.08250622  1  0.080132  0  0.107817  0.080783  0  1.039499  0
H  H67  1  0.13253451  0.91749169  0.63705089  1  0.080232  0  0.107821  0.080788  0  1.039489  0
H  H68  1  0.17677720  0.26513918  0.42929584  1  0.093574  0  0.100754  0.105195  0  1.01523  0
H  H69  1  0.32323123  0.57070568  0.73486558  1  0.093487  0  0.100768  0.105206  0  1.015146  0
H  H70  1  0.82321263  0.73486674  0.57070241  1  0.093523  0  0.100775  0.105223  0  1.015286  0
H  H71  1  0.67677591  0.42929641  0.26513557  1  0.093514  0  0.100733  0.105188  0  1.01526  0
C  C72  1  0.16480920  0.24735827  0.58447284  1  -0.092208  0  -0.023448  -0.037737  0  3.985056  0
C  C73  1  0.33519091  0.41552823  0.75264683  1  -0.092141  0  -0.023514  -0.037794  0  3.985112  0
C  C74  1  0.83518162  0.75264764  0.41552598  1  -0.092063  0  -0.023396  -0.037662  0  3.985086  0
C  C75  1  0.66480963  0.58447161  0.24735399  1  -0.092117  0  -0.023486  -0.037705  0  3.985111  0
C  C76  1  0.57243751  0.75298477  0.71868105  1  -0.108509  0  -0.23039  -0.474306  0  3.927276  0
C  C77  1  0.92756468  0.28131699  0.24701838  1  -0.108626  0  -0.230441  -0.474372  0  3.927452  0
C  C78  1  0.42756181  0.24701660  0.28131655  1  -0.108561  0  -0.230439  -0.474418  0  3.927308  0
C  C79  1  0.07243598  0.71868208  0.75298411  1  -0.108577  0  -0.230436  -0.474418  0  3.927433  0
C  C80  1  0.37737345  0.91687307  0.45847588  1  1.531714  0  0.218121  0.593513  0  4.182254  0
C  C81  1  0.12262766  0.54151784  0.08313256  1  1.531653  0  0.218152  0.593551  0  4.182109  0
C  C82  1  0.62262621  0.08313284  0.54151913  1  1.531527  0  0.218153  0.593577  0  4.182074  0
C  C83  1  0.87737637  0.45847821  0.91686940  1  1.531662  0  0.218177  0.593629  0  4.182131  0
C  C84  1  0.23689876  0.14302825  0.62181751  1  1.555572  0  0.190102  0.546728  0  4.251748  0
C  C85  1  0.26309820  0.37818346  0.85697423  1  1.555529  0  0.190091  0.54667  0  4.251871  0
C  C86  1  0.76309906  0.85697690  0.37818008  1  1.555108  0  0.190101  0.546865  0  4.251624  0
C  C87  1  0.73689828  0.62181715  0.14302402  1  1.555428  0  0.190118  0.546714  0  4.251918  0
C  C88  1  0.12073555  0.29416458  0.65240870  1  -0.024186  0  -0.080866  -0.084403  0  3.980745  0
C  C89  1  0.37926412  0.34759106  0.70584091  1  -0.024039  0  -0.08067  -0.084228  0  3.980749  0
C  C90  1  0.87926207  0.70584208  0.34758967  1  -0.024699  0  -0.080716  -0.084344  0  3.980919  0
C  C91  1  0.62073632  0.65240954  0.29416030  1  -0.024032  0  -0.080727  -0.084307  0  3.980762  0
C  C92  1  0.25293994  0.78817337  0.44823173  1  -0.095112  0  -0.08296  -0.088413  0  3.992908  0
C  C93  1  0.24706626  0.55176566  0.21182500  1  -0.095387  0  -0.082928  -0.088461  0  3.992877  0
C  C94  1  0.74706702  0.21182268  0.55176781  1  -0.095561  0  -0.082978  -0.088577  0  3.993094  0
C  C95  1  0.75293646  0.44823267  0.78817550  1  -0.095029  0  -0.082912  -0.088501  0  3.993075  0
C  C96  1  0.26861580  0.76254293  0.29276096  1  -0.045623  0  0.002307  0.077469  0  3.994308  0
C  C97  1  0.23139667  0.70723542  0.23745536  1  -0.072072  0  0.002091  0.077305  0  3.994354  0
C  C98  1  0.73139391  0.23745463  0.70723831  1  -0.072013  0  0.00219  0.077384  0  3.994471  0
C  C99  1  0.76860920  0.29276139  0.76254400  1  -0.045309  0  0.002231  0.077457  0  3.994414  0
C  C100  1  0.34158965  0.86184928  0.40170595  1  0.045672  0  -0.026037  -0.069969  0  4.009513  0
C  C101  1  0.15841264  0.59829120  0.13815252  1  0.045658  0  -0.026056  -0.070033  0  4.009537  0
C  C102  1  0.65841056  0.13815283  0.59829261  1  0.046071  0  -0.026066  -0.069982  0  4.009572  0
C  C103  1  0.84159084  0.40170864  0.86184589  1  0.045951  0  -0.026105  -0.070025  0  4.009594  0
C  C104  1  0.05748148  0.39232406  0.61943861  1  -0.054938  0  -0.088286  -0.124452  0  3.961258  0
C  C105  1  0.44252006  0.38056184  0.60768001  1  -0.054725  0  -0.088327  -0.12456  0  3.961342  0
C  C106  1  0.94251823  0.60768183  0.38056188  1  -0.054702  0  -0.088273  -0.12439  0  3.961367  0
C  C107  1  0.55748167  0.61943649  0.39232061  1  -0.054727  0  -0.088306  -0.124526  0  3.961296  0
C  C108  1  0.03420644  0.44772989  0.51739594  1  -0.068187  0  -0.004886  0.067743  0  3.972009  0
C  C109  1  0.46579505  0.48260436  0.55227348  1  -0.038454  0  -0.00486  0.067725  0  3.97222  0
C  C110  1  0.96579019  0.55227677  0.48260323  1  -0.038625  0  -0.004823  0.067734  0  3.972206  0
C  C111  1  0.53420757  0.51739471  0.44772809  1  -0.068282  0  -0.004802  0.067899  0  3.972126  0
C  C112  1  0.35738964  0.83625563  0.24624404  1  -0.024136  0  -0.085253  -0.135571  0  3.97281  0
C  C113  1  0.14261770  0.75375305  0.16374378  1  -0.024247  0  -0.085178  -0.135538  0  3.972592  0
C  C114  1  0.64261176  0.16374497  0.75375430  1  -0.024156  0  -0.085223  -0.135521  0  3.972756  0
C  C115  1  0.85738905  0.24624452  0.83625448  1  -0.024152  0  -0.085213  -0.135556  0  3.972661  0
C  C116  1  0.47386428  0.78568179  0.78907774  1  0.974154  0  0.223207  0.350809  0  3.909155  0
C  C117  1  0.02613634  0.21092153  0.21432046  1  0.974238  0  0.223196  0.350828  0  3.90907  0
C  C118  1  0.52613671  0.21432183  0.21092147  1  0.974165  0  0.223151  0.350749  0  3.909192  0
C  C119  1  0.97386331  0.78907756  0.78567872  1  0.974114  0  0.223186  0.350834  0  3.90917  0
C  C120  1  0.21721572  0.73850828  0.39438039  1  0.013395  0  -0.087522  -0.127665  0  3.958596  0
C  C121  1  0.28279591  0.60561712  0.26148759  1  0.013711  0  -0.087395  -0.127435  0  3.958472  0
C  C122  1  0.78279760  0.26148472  0.60562169  1  0.013345  0  -0.087376  -0.127417  0  3.958395  0
C  C123  1  0.71720624  0.39437817  0.73851353  1  0.013143  0  -0.087445  -0.12755  0  3.958483  0
C  C124  1  0.39430145  0.88529780  0.30039839  1  -0.128637  0  -0.076457  -0.075902  0  3.960486  0
C  C125  1  0.10570328  0.69959884  0.11470281  1  -0.128187  0  -0.076465  -0.075845  0  3.960413  0
C  C126  1  0.60569799  0.11470281  0.69960019  1  -0.128717  0  -0.076474  -0.075885  0  3.960533  0
C  C127  1  0.89430437  0.30039947  0.88529777  1  -0.128706  0  -0.076436  -0.075842  0  3.960315  0
C  C128  1  0.31417343  0.87278072  0.85004122  1  0.35618  0  -0.005233  -0.030239  0  4.023173  0
C  C129  1  0.18582438  0.14995617  0.12722171  1  0.360007  0  -0.005211  -0.030188  0  4.023144  0
C  C130  1  0.68582976  0.12722138  0.14995903  1  0.360992  0  -0.005225  -0.030202  0  4.022994  0
C  C131  1  0.81416891  0.85003914  0.87278048  1  0.360984  0  -0.005221  -0.030149  0  4.023043  0
C  C132  1  0.35888118  0.79039161  0.93103239  1  0.340025  0  -0.006202  -0.111627  0  3.959238  0
C  C133  1  0.14111527  0.06896554  0.20960978  1  0.340546  0  -0.006236  -0.111657  0  3.959363  0
C  C134  1  0.64112276  0.20961201  0.06896578  1  0.34007  0  -0.006195  -0.111549  0  3.95911  0
C  C135  1  0.85887648  0.93103358  0.79038829  1  0.340011  0  -0.006181  -0.111599  0  3.959057  0
C  C136  1  0.46574491  0.54914399  0.96371608  1  0.046236  0  -0.161602  -0.157586  0  3.917761  0
C  C137  1  0.03425175  0.03628195  0.45085797  1  0.0465  0  -0.161599  -0.157598  0  3.917762  0
C  C138  1  0.53425400  0.45086041  0.03628169  1  0.024681  0  -0.161592  -0.15762  0  3.917847  0
C  C139  1  0.96574416  0.96371563  0.54914160  1  0.024457  0  -0.16161  -0.157591  0  3.917702  0
C  C140  1  0.07803839  0.39920108  0.44985819  1  -0.018149  0  -0.094435  -0.13633  0  3.982619  0
C  C141  1  0.42196736  0.55013932  0.60080565  1  -0.01815  0  -0.094355  -0.136284  0  3.9827  0
C  C142  1  0.92195420  0.60080635  0.55014048  1  -0.017688  0  -0.094353  -0.136217  0  3.982563  0
C  C143  1  0.57804051  0.44985747  0.39919690  1  -0.018062  0  -0.094481  -0.136474  0  3.982867  0
C  C144  1  0.53005427  0.64064930  0.95267033  1  0.311118  0  -0.051682  -0.059407  0  3.888599  0
C  C145  1  0.96994210  0.04732718  0.35935153  1  0.311092  0  -0.051709  -0.059526  0  3.888589  0
C  C146  1  0.46994790  0.35935283  0.04732592  1  0.311429  0  -0.051691  -0.059483  0  3.888682  0
C  C147  1  0.03005371  0.95267116  0.64064842  1  0.31145  0  -0.051667  -0.059433  0  3.888525  0
C  C148  1  0.14238843  0.30121163  0.48252639  1  -0.042468  0  -0.090333  -0.100618  0  3.996194  0
C  C149  1  0.35761962  0.51747386  0.69879276  1  -0.042551  0  -0.090354  -0.100585  0  3.996193  0
C  C150  1  0.85760458  0.69879276  0.51747347  1  -0.042623  0  -0.090466  -0.100785  0  3.996471  0
C  C151  1  0.64238784  0.48252596  0.30120929  1  -0.042528  0  -0.090304  -0.100575  0  3.996392  0
N  N152  1  0.38615111  0.86901934  0.76248278  1  -1.228949  0  -0.364416  -0.362859  0  3.571613  0
N  N153  1  0.11384801  0.23751504  0.13098328  1  -1.228936  0  -0.364375  -0.362851  0  3.571558  0
N  N154  1  0.61384694  0.13098428  0.23751747  1  -1.228748  0  -0.364444  -0.362893  0  3.571527  0
N  N155  1  0.88615097  0.76248178  0.86901692  1  -1.228723  0  -0.364405  -0.362908  0  3.57165  0
N  N156  1  0.45908302  0.73655343  0.89181713  1  -1.231355  0  -0.239785  -0.006591  0  3.729685  0
N  N157  1  0.04091577  0.10818061  0.26344912  1  -1.23137  0  -0.239769  -0.00657  0  3.729604  0
N  N158  1  0.54092171  0.26345170  0.10818101  1  -1.231418  0  -0.239737  -0.006565  0  3.729617  0
N  N159  1  0.95908004  0.89181773  0.73655015  1  -1.231335  0  -0.239819  -0.006662  0  3.729689  0
O  O160  1  0.34623333  0.88219082  0.55460692  1  -1.155949  0  -0.315795  -0.548608  0  2.313965  0
O  O161  1  0.15376884  0.44539028  0.11781186  1  -1.156106  0  -0.315814  -0.548607  0  2.31402  0
O  O162  1  0.65376865  0.11781280  0.44539149  1  -1.156071  0  -0.315772  -0.548601  0  2.31403  0
O  O163  1  0.84623377  0.55460880  0.88218833  1  -1.156012  0  -0.315813  -0.548652  0  2.313944  0
O  O164  1  0.43261661  0.99773592  0.40863786  1  -1.203052  0  -0.326075  -0.574552  0  2.417919  0
O  O165  1  0.06738132  0.59135698  0.00226927  1  -1.202879  0  -0.326082  -0.574581  0  2.417816  0
O  O166  1  0.56737932  0.00226849  0.59135684  1  -1.202877  0  -0.326102  -0.574601  0  2.417804  0
O  O167  1  0.93261943  0.40864135  0.99773146  1  -1.202933  0  -0.326099  -0.574577  0  2.417814  0
O  O168  1  0.27530243  0.10360410  0.55456956  1  -1.161205  0  -0.340958  -0.571851  0  2.303282  0
O  O169  1  0.22470433  0.44542542  0.89640424  1  -1.160909  0  -0.340971  -0.571823  0  2.30347  0
O  O170  1  0.72469497  0.89640408  0.44542684  1  -1.16096  0  -0.34096  -0.571873  0  2.303251  0
O  O171  1  0.77530091  0.55456910  0.10360025  1  -1.160998  0  -0.340983  -0.571856  0  2.303298  0
O  O172  1  0.25865311  0.09777606  0.71270284  1  -1.176253  0  -0.32706  -0.554824  0  2.122421  0
O  O173  1  0.24132739  0.28729593  0.90221920  1  -1.176425  0  -0.327042  -0.554793  0  2.122355  0
O  O174  1  0.74134480  0.90222834  0.28729369  1  -1.176071  0  -0.327055  -0.554905  0  2.122399  0
O  O175  1  0.75865358  0.71270247  0.09777431  1  -1.17628  0  -0.327042  -0.554824  0  2.122575  0
