# generated using pymatgen
data_CdP2H28C34(NO2)2
_symmetry_space_group_name_H-M   'P 1'
_cell_length_a   11.02577210
_cell_length_b   12.75721375
_cell_length_c   23.80607302
_cell_angle_alpha   89.99998551
_cell_angle_beta   90.00004738
_cell_angle_gamma   89.99994467
_symmetry_Int_Tables_number   1
_chemical_formula_structural   CdP2H28C34(NO2)2
_chemical_formula_sum   'Cd4 P8 H112 C136 N8 O16'
_cell_volume   3348.51774745
_cell_formula_units_Z   4
loop_
 _symmetry_equiv_pos_site_id
 _symmetry_equiv_pos_as_xyz
  1  'x, y, z'
loop_
 _atom_site_type_symbol
 _atom_site_label
 _atom_site_symmetry_multiplicity
 _atom_site_fract_x
 _atom_site_fract_y
 _atom_site_fract_z
 _atom_site_occupancy
 _atom_site_pbe_bader_charge
 _atom_site_pbe_bader_spin_density
 _atom_site_pbe_cm5_charge
 _atom_site_pbe_ddec_charge
 _atom_site_pbe_ddec_spin_density
 _atom_site_pbe_ddec_sum_bond_order
 _atom_site_pbe_magmom
Cd  Cd0  1  0.50662585  0.99405131  0.73631508  1  1.356657  0  0.80602  1.030455  0  2.189027  0
Cd  Cd1  1  0.00662562  0.00594794  0.26368482  1  1.356638  0  0.806013  1.030447  0  2.188989  0
Cd  Cd2  1  0.50662595  0.00594852  0.23631543  1  1.356658  0  0.806036  1.0305  0  2.188962  0
Cd  Cd3  1  0.00662552  0.99405152  0.76368490  1  1.356625  0  0.806028  1.030455  0  2.189014  0
P  P4  1  0.74834000  0.17344256  0.74450469  1  3.141869  0  0.287556  1.029219  0  5.233054  0
P  P5  1  0.24834065  0.82655728  0.25549572  1  3.141874  0  0.287551  1.029268  0  5.233068  0
P  P6  1  0.74834009  0.82655786  0.24450450  1  3.141869  0  0.287584  1.02928  0  5.233057  0
P  P7  1  0.24834056  0.17344198  0.75549549  1  3.141865  0  0.287593  1.029302  0  5.233023  0
P  P8  1  0.26444156  0.81485476  0.74558705  1  3.099601  0  0.287639  1.028607  0  5.230876  0
P  P9  1  0.76444092  0.18514506  0.25441295  1  3.099578  0  0.287622  1.028529  0  5.230945  0
P  P10  1  0.26444146  0.18514449  0.24558695  1  3.099595  0  0.287596  1.028588  0  5.23096  0
P  P11  1  0.76444102  0.81485455  0.75441263  1  3.099578  0  0.287625  1.028553  0  5.23097  0
H  H12  1  0.59057136  0.35887418  0.75608951  1  0.076776  0  0.101475  0.097881  0  1.01754  0
H  H13  1  0.09057220  0.64112579  0.24391000  1  0.076336  0  0.10148  0.097898  0  1.017524  0
H  H14  1  0.59057167  0.64112558  0.25608976  1  0.076772  0  0.101471  0.097895  0  1.017531  0
H  H15  1  0.09057190  0.35887439  0.74390975  1  0.076788  0  0.101487  0.097907  0  1.017513  0
H  H16  1  0.61245641  0.52386943  0.81130525  1  0.065069  0  0.098115  0.096905  0  1.020887  0
H  H17  1  0.11245733  0.47612974  0.18869470  1  0.065077  0  0.098119  0.096926  0  1.020862  0
H  H18  1  0.61245690  0.47613028  0.31130510  1  0.065064  0  0.098136  0.096952  0  1.020887  0
H  H19  1  0.11245776  0.52386967  0.68869484  1  0.065233  0  0.098123  0.09695  0  1.020904  0
H  H20  1  0.79527176  0.55356705  0.86929678  1  0.075613  0  0.092634  0.088471  0  1.037358  0
H  H21  1  0.29527171  0.44643275  0.13070281  1  0.0756  0  0.092636  0.088477  0  1.03734  0
H  H22  1  0.79526956  0.44643170  0.36929748  1  0.075554  0  0.092627  0.08843  0  1.037396  0
H  H23  1  0.29527119  0.55356810  0.63070295  1  0.07557  0  0.09264  0.088454  0  1.037337  0
H  H24  1  0.95976191  0.41822551  0.87193061  1  0.058992  0  0.093969  0.08963  0  1.022428  0
H  H25  1  0.45976260  0.58177415  0.12806863  1  0.058972  0  0.093969  0.089643  0  1.022488  0
H  H26  1  0.95975955  0.58177388  0.37193213  1  0.058974  0  0.09399  0.089657  0  1.022493  0
H  H27  1  0.45976224  0.41822578  0.62806921  1  0.058981  0  0.093981  0.089644  0  1.022497  0
H  H28  1  0.93915659  0.25486463  0.81557735  1  0.07874  0  0.099418  0.099929  0  1.03976  0
H  H29  1  0.43915630  0.74513583  0.18442188  1  0.078754  0  0.099413  0.099925  0  1.039776  0
H  H30  1  0.93915587  0.74513481  0.31557885  1  0.07877  0  0.099411  0.099936  0  1.039772  0
H  H31  1  0.43915702  0.25486409  0.68442206  1  0.078749  0  0.099405  0.099915  0  1.03978  0
H  H32  1  0.98886821  0.22544442  0.70151445  1  0.13937  0  0.102121  0.106585  0  1.061144  0
H  H33  1  0.48886900  0.77455522  0.29848564  1  0.139374  0  0.102122  0.106627  0  1.061111  0
H  H34  1  0.98886927  0.77455582  0.20151468  1  0.139366  0  0.102124  0.106587  0  1.061119  0
H  H35  1  0.48886885  0.22544460  0.79848540  1  0.139364  0  0.102128  0.106624  0  1.061094  0
H  H36  1  0.06259283  0.27974665  0.60766510  1  0.050381  0  0.097718  0.09569  0  1.002919  0
H  H37  1  0.56259366  0.72025256  0.39233482  1  0.050367  0  0.097712  0.095704  0  1.002901  0
H  H38  1  0.06259214  0.72025283  0.10766535  1  0.050386  0  0.097721  0.095703  0  1.002918  0
H  H39  1  0.56259254  0.27974716  0.89233458  1  0.050378  0  0.097712  0.095717  0  1.002908  0
H  H40  1  0.92063607  0.28315380  0.52637887  1  0.024251  0  0.093819  0.085188  0  1.023021  0
H  H41  1  0.42063723  0.71684590  0.47362119  1  0.024252  0  0.093849  0.08523  0  1.023007  0
H  H42  1  0.92063628  0.71684658  0.02637911  1  0.024263  0  0.093836  0.085225  0  1.023006  0
H  H43  1  0.42063702  0.28315390  0.97362137  1  0.024256  0  0.093835  0.085221  0  1.02299  0
H  H44  1  0.70312844  0.23390489  0.54007785  1  0.069898  0  0.09142  0.083473  0  1.054804  0
H  H45  1  0.20312862  0.76609499  0.45992212  1  0.069906  0  0.091402  0.083432  0  1.054824  0
H  H46  1  0.70312769  0.76609566  0.04007809  1  0.0699  0  0.091404  0.083431  0  1.054815  0
H  H47  1  0.20312845  0.23390500  0.95992147  1  0.069919  0  0.091432  0.083494  0  1.054816  0
H  H48  1  0.62807621  0.18822486  0.63577695  1  0.065196  0  0.095971  0.092761  0  1.046314  0
H  H49  1  0.12807617  0.81177587  0.36422300  1  0.065197  0  0.095972  0.092774  0  1.046301  0
H  H50  1  0.62807541  0.81177493  0.13577760  1  0.065194  0  0.095985  0.092794  0  1.046289  0
H  H51  1  0.12807605  0.18822501  0.86422235  1  0.065196  0  0.095981  0.092786  0  1.046292  0
H  H52  1  0.07563494  0.73422907  0.81820043  1  0.049257  0  0.099029  0.098507  0  1.040457  0
H  H53  1  0.57563499  0.26577092  0.18179950  1  0.049246  0  0.099031  0.098499  0  1.040482  0
H  H54  1  0.07563475  0.26577109  0.31820031  1  0.049261  0  0.099036  0.098515  0  1.040464  0
H  H55  1  0.57563427  0.73422889  0.68179961  1  0.049246  0  0.099037  0.098512  0  1.040446  0
H  H56  1  0.05659514  0.57137846  0.87510902  1  0.046535  0  0.094296  0.089714  0  1.019819  0
H  H57  1  0.55659491  0.42862076  0.12489090  1  0.04653  0  0.094294  0.089708  0  1.019836  0
H  H58  1  0.05659568  0.42862091  0.37510931  1  0.046543  0  0.0943  0.089722  0  1.019809  0
H  H59  1  0.55659528  0.57137909  0.62489061  1  0.04653  0  0.094297  0.089699  0  1.019834  0
H  H60  1  0.22105082  0.43594599  0.87181075  1  0.079737  0  0.092869  0.088678  0  1.034937  0
H  H61  1  0.72105044  0.56405387  0.12818924  1  0.079744  0  0.092872  0.088683  0  1.034926  0
H  H62  1  0.22105120  0.56405324  0.37181101  1  0.079749  0  0.092882  0.0887  0  1.034931  0
H  H63  1  0.72105096  0.43594584  0.62818897  1  0.079733  0  0.092876  0.088699  0  1.034927  0
H  H64  1  0.40152700  0.46465910  0.81218398  1  0.078221  0  0.098143  0.095963  0  1.020976  0
H  H65  1  0.90152676  0.53534061  0.18781608  1  0.078238  0  0.098152  0.095976  0  1.020964  0
H  H66  1  0.40152742  0.53534001  0.31218383  1  0.078194  0  0.098123  0.095949  0  1.020961  0
H  H67  1  0.90152815  0.46465970  0.68781581  1  0.07822  0  0.098134  0.095958  0  1.020979  0
H  H68  1  0.42192271  0.62923736  0.75646793  1  0.081734  0  0.101877  0.098043  0  1.015068  0
H  H69  1  0.92192275  0.37076233  0.24353213  1  0.081741  0  0.101868  0.098028  0  1.015025  0
H  H70  1  0.42192240  0.37076254  0.25646739  1  0.08172  0  0.10187  0.098021  0  1.015094  0
H  H71  1  0.92192215  0.62923794  0.74353184  1  0.081736  0  0.101889  0.098055  0  1.015086  0
H  H72  1  0.02390601  0.76275886  0.70094966  1  0.136654  0  0.101765  0.106919  0  1.0617  0
H  H73  1  0.52390630  0.23724117  0.29905067  1  0.136671  0  0.101765  0.106901  0  1.06173  0
H  H74  1  0.02390495  0.23724062  0.20095039  1  0.136628  0  0.101753  0.106875  0  1.061703  0
H  H75  1  0.52390646  0.76275784  0.79905036  1  0.136644  0  0.101759  0.10689  0  1.061675  0
H  H76  1  0.95395693  0.70656048  0.60680580  1  0.037935  0  0.097311  0.09536  0  1.004035  0
H  H77  1  0.45395751  0.29343918  0.39319385  1  0.037946  0  0.097317  0.095364  0  1.004025  0
H  H78  1  0.95395399  0.29344061  0.10680694  1  0.037889  0  0.0973  0.095349  0  1.004014  0
H  H79  1  0.45395682  0.70656062  0.89319397  1  0.03793  0  0.097305  0.095329  0  1.004047  0
H  H80  1  0.09961760  0.70005630  0.52682142  1  0.058614  0  0.095361  0.087954  0  1.015246  0
H  H81  1  0.59961813  0.29994366  0.47317851  1  0.058626  0  0.095356  0.087948  0  1.015258  0
H  H82  1  0.09961556  0.29994789  0.02682299  1  0.058643  0  0.095375  0.087927  0  1.015322  0
H  H83  1  0.59961926  0.70005442  0.97317821  1  0.058643  0  0.095356  0.08795  0  1.015272  0
H  H84  1  0.31639152  0.74970733  0.54225156  1  0.047062  0  0.091347  0.083399  0  1.054917  0
H  H85  1  0.81639117  0.25029323  0.45774804  1  0.047058  0  0.091347  0.083384  0  1.05492  0
H  H86  1  0.31638863  0.25029824  0.04225271  1  0.047131  0  0.091362  0.083404  0  1.054985  0
H  H87  1  0.81639225  0.74970311  0.95774731  1  0.047095  0  0.091365  0.08341  0  1.054919  0
H  H88  1  0.38719750  0.79863646  0.63805317  1  0.076113  0  0.096032  0.092833  0  1.045946  0
H  H89  1  0.88719794  0.20136248  0.36194687  1  0.07611  0  0.096016  0.092837  0  1.045986  0
H  H90  1  0.38719648  0.20136352  0.13805265  1  0.076137  0  0.096039  0.092857  0  1.045962  0
H  H91  1  0.88719715  0.79863777  0.86194656  1  0.076109  0  0.096012  0.092827  0  1.045972  0
H  H92  1  0.63461958  0.87816705  0.62902359  1  0.132635  0  0.11911  0.09313  0  1.021534  0
H  H93  1  0.13462122  0.12183210  0.37097594  1  0.132583  0  0.119103  0.093123  0  1.021539  0
H  H94  1  0.63461955  0.12183273  0.12902349  1  0.13264  0  0.119091  0.09314  0  1.021491  0
H  H95  1  0.13461943  0.87816642  0.87097604  1  0.132622  0  0.119085  0.093092  0  1.021532  0
H  H96  1  0.63654225  0.87334862  0.52355344  1  0.05846  0  0.10961  0.115048  0  0.996686  0
H  H97  1  0.13654499  0.12665366  0.47644609  1  0.058397  0  0.109675  0.115145  0  0.996621  0
H  H98  1  0.63654222  0.12665199  0.02355335  1  0.058446  0  0.109647  0.115082  0  0.996618  0
H  H99  1  0.13654321  0.87334794  0.97644661  1  0.058447  0  0.109641  0.115093  0  0.996616  0
H  H100  1  0.37780534  0.11300086  0.63150825  1  0.136629  0  0.11923  0.093264  0  1.025981  0
H  H101  1  0.87780775  0.88699731  0.36849389  1  0.136682  0  0.119235  0.093296  0  1.025987  0
H  H102  1  0.37780536  0.88699914  0.13150805  1  0.13663  0  0.11924  0.093293  0  1.025932  0
H  H103  1  0.87780591  0.11300138  0.86849157  1  0.136637  0  0.119229  0.093256  0  1.025998  0
H  H104  1  0.31409267  0.02836489  0.44443791  1  0.088245  0  0.098548  0.095047  0  1.05505  0
H  H105  1  0.81409532  0.97163568  0.55556253  1  0.088271  0  0.098547  0.095033  0  1.05514  0
H  H106  1  0.31409169  0.97163501  0.94443757  1  0.088231  0  0.098556  0.095066  0  1.055045  0
H  H107  1  0.81409177  0.02836477  0.05556245  1  0.088234  0  0.098556  0.095061  0  1.055038  0
H  H108  1  0.32309240  0.03372345  0.33957896  1  0.130495  0  0.118503  0.09272  0  1.022121  0
H  H109  1  0.82309252  0.96627633  0.66042149  1  0.130478  0  0.118492  0.092697  0  1.022127  0
H  H110  1  0.32309233  0.96627649  0.83957820  1  0.130464  0  0.118483  0.092685  0  1.022159  0
H  H111  1  0.82309260  0.03372407  0.16042141  1  0.13048  0  0.118494  0.092698  0  1.022141  0
H  H112  1  0.69292720  0.97835511  0.33933575  1  0.129107  0  0.118662  0.093737  0  1.022406  0
H  H113  1  0.19292675  0.02164477  0.66066549  1  0.129083  0  0.118662  0.09374  0  1.022429  0
H  H114  1  0.69292727  0.02164452  0.83933596  1  0.12912  0  0.118666  0.093755  0  1.022382  0
H  H115  1  0.19292758  0.97835536  0.16066360  1  0.129121  0  0.118672  0.093755  0  1.022367  0
H  H116  1  0.70151354  0.97856908  0.44427704  1  0.084899  0  0.098225  0.094783  0  1.054541  0
H  H117  1  0.20151563  0.02143158  0.55572462  1  0.084878  0  0.098256  0.094812  0  1.054521  0
H  H118  1  0.70151180  0.02142971  0.94427683  1  0.084915  0  0.098225  0.094789  0  1.054487  0
H  H119  1  0.20151283  0.97857016  0.05572273  1  0.084913  0  0.098224  0.094788  0  1.054465  0
H  H120  1  0.37717580  0.12689733  0.52630190  1  0.072244  0  0.109755  0.114813  0  0.995597  0
H  H121  1  0.87718204  0.87310240  0.47370024  1  0.072227  0  0.109753  0.114804  0  0.995641  0
H  H122  1  0.37717584  0.87310271  0.02630170  1  0.072236  0  0.109752  0.114831  0  0.995589  0
H  H123  1  0.87717656  0.12689702  0.97369792  1  0.07225  0  0.109743  0.11483  0  0.995533  0
C  C124  1  0.76217664  0.29515564  0.78359429  1  -0.528861  0  -0.031647  -0.167595  0  3.985064  0
C  C125  1  0.26217645  0.70484419  0.21640529  1  -0.528849  0  -0.031631  -0.167596  0  3.985125  0
C  C126  1  0.76217596  0.70484475  0.28359496  1  -0.529059  0  -0.031618  -0.167554  0  3.985026  0
C  C127  1  0.26217622  0.29515508  0.71640546  1  -0.52884  0  -0.031647  -0.167632  0  3.985085  0
C  C128  1  0.67092766  0.37175391  0.78191781  1  -0.082845  0  -0.081354  -0.066504  0  3.980911  0
C  C129  1  0.17092756  0.62824678  0.21808216  1  -0.082388  0  -0.081339  -0.066482  0  3.9809  0
C  C130  1  0.67092707  0.62824655  0.28191764  1  -0.08284  0  -0.081358  -0.066534  0  3.980872  0
C  C131  1  0.17092815  0.37175413  0.71808190  1  -0.082845  0  -0.081347  -0.066468  0  3.980879  0
C  C132  1  0.68290865  0.46400445  0.81288763  1  -0.01519  0  -0.091025  -0.081084  0  3.992467  0
C  C133  1  0.18290951  0.53599545  0.18711192  1  -0.015174  0  -0.091051  -0.081174  0  3.992489  0
C  C134  1  0.68290817  0.53599521  0.31288832  1  -0.015184  0  -0.091044  -0.081169  0  3.992462  0
C  C135  1  0.18290909  0.46400547  0.68711207  1  -0.015331  0  -0.091074  -0.081259  0  3.992498  0
C  C136  1  0.78629372  0.48078236  0.84564358  1  -0.058315  0  -0.093593  -0.078229  0  4.006318  0
C  C137  1  0.28629363  0.51921745  0.15435601  1  -0.058324  0  -0.093584  -0.078169  0  4.006204  0
C  C138  1  0.78629325  0.51921720  0.34564427  1  -0.058046  0  -0.093571  -0.07809  0  4.006299  0
C  C139  1  0.28629410  0.48078261  0.65435616  1  -0.058282  0  -0.093517  -0.078014  0  4.006148  0
C  C140  1  0.87823381  0.40535284  0.84693193  1  -0.067845  0  -0.101487  -0.100544  0  4.036839  0
C  C141  1  0.37823454  0.59464768  0.15306770  1  -0.067834  0  -0.101502  -0.100604  0  4.036855  0
C  C142  1  0.87823235  0.59464507  0.34693387  1  -0.067657  0  -0.101559  -0.100689  0  4.036965  0
C  C143  1  0.37823328  0.40535466  0.65306744  1  -0.067429  0  -0.101556  -0.100679  0  4.036902  0
C  C144  1  0.86672988  0.31318617  0.81580416  1  -0.105663  0  -0.091535  -0.087201  0  4.003964  0
C  C145  1  0.36673056  0.68681357  0.18419504  1  -0.105689  0  -0.091537  -0.087192  0  4.004022  0
C  C146  1  0.86672922  0.68681333  0.31580567  1  -0.105888  0  -0.09152  -0.08718  0  4.003978  0
C  C147  1  0.36673031  0.31318641  0.68419521  1  -0.106112  0  -0.091525  -0.087163  0  4.003929  0
C  C148  1  0.80299187  0.20595514  0.67467336  1  -0.489787  0  -0.028937  -0.165979  0  3.989821  0
C  C149  1  0.30299360  0.79404466  0.32532623  1  -0.48982  0  -0.028905  -0.165846  0  3.989759  0
C  C150  1  0.80299201  0.79404448  0.17467359  1  -0.4898  0  -0.028963  -0.166015  0  3.989824  0
C  C151  1  0.30299256  0.20595453  0.82532642  1  -0.489808  0  -0.028944  -0.165929  0  3.989781  0
C  C152  1  0.92548940  0.23105148  0.66647043  1  -0.109207  0  -0.08331  -0.072384  0  3.968419  0
C  C153  1  0.42548935  0.76894900  0.33352921  1  -0.109235  0  -0.083282  -0.072438  0  3.968417  0
C  C154  1  0.92548956  0.76894883  0.16647025  1  -0.109192  0  -0.083254  -0.0723  0  3.968392  0
C  C155  1  0.42548919  0.23105086  0.83352939  1  -0.10921  0  -0.083271  -0.07235  0  3.968357  0
C  C156  1  0.96727870  0.25941582  0.61335668  1  -0.057522  0  -0.094107  -0.080831  0  4.001557  0
C  C157  1  0.46727968  0.74058462  0.38664340  1  -0.057519  0  -0.094072  -0.080839  0  4.001514  0
C  C158  1  0.96727889  0.74058448  0.11335650  1  -0.057538  0  -0.094132  -0.080879  0  4.001583  0
C  C159  1  0.46727949  0.25941518  0.88664316  1  -0.05752  0  -0.09413  -0.08095  0  4.001621  0
C  C160  1  0.88729242  0.26106042  0.56785651  1  -0.055484  0  -0.096665  -0.088712  0  4.029748  0
C  C161  1  0.38729258  0.73894009  0.43214312  1  -0.05544  0  -0.096729  -0.088775  0  4.029845  0
C  C162  1  0.88729171  0.73893996  0.06785675  1  -0.055457  0  -0.096671  -0.088755  0  4.029795  0
C  C163  1  0.38729148  0.26105976  0.93214329  1  -0.055428  0  -0.096687  -0.088723  0  4.029771  0
C  C164  1  0.76541163  0.23450059  0.57559065  1  -0.051386  0  -0.103474  -0.104112  0  4.040967  0
C  C165  1  0.26541266  0.76550001  0.42440935  1  -0.051427  0  -0.103482  -0.104091  0  4.041093  0
C  C166  1  0.76541270  0.76549989  0.07559089  1  -0.051421  0  -0.103454  -0.104012  0  4.041046  0
C  C167  1  0.26541250  0.23449994  0.92440911  1  -0.051453  0  -0.103478  -0.104118  0  4.041057  0
C  C168  1  0.72302464  0.20817824  0.62899299  1  -0.083738  0  -0.090355  -0.076978  0  4.001916  0
C  C169  1  0.22302464  0.79182162  0.37100700  1  -0.083704  0  -0.090363  -0.077049  0  4.001863  0
C  C170  1  0.72302478  0.79182147  0.12899322  1  -0.083727  0  -0.090418  -0.077117  0  4.00201  0
C  C171  1  0.22302450  0.20817839  0.87100677  1  -0.083716  0  -0.090403  -0.077085  0  4.001898  0
C  C172  1  0.25144484  0.69346775  0.78507572  1  -0.569939  0  -0.031623  -0.168228  0  3.984374  0
C  C173  1  0.75144400  0.30653287  0.21492427  1  -0.569906  0  -0.031652  -0.168271  0  3.984381  0
C  C174  1  0.25144461  0.30653228  0.28507560  1  -0.569918  0  -0.031643  -0.168252  0  3.984224  0
C  C175  1  0.75144332  0.69346677  0.71492397  1  -0.569889  0  -0.031666  -0.168299  0  3.984256  0
C  C176  1  0.14796550  0.67581424  0.81807443  1  -0.057498  0  -0.090721  -0.084706  0  4.00328  0
C  C177  1  0.64796458  0.32418568  0.18192553  1  -0.057523  0  -0.090689  -0.084635  0  4.003219  0
C  C178  1  0.14796525  0.32418586  0.31807431  1  -0.057517  0  -0.090692  -0.084659  0  4.003178  0
C  C179  1  0.64796483  0.67581407  0.68192523  1  -0.057534  0  -0.090707  -0.084654  0  4.003162  0
C  C180  1  0.13737585  0.58395327  0.84954665  1  -0.063168  0  -0.101699  -0.100341  0  4.037932  0
C  C181  1  0.63737567  0.41604587  0.15045330  1  -0.063179  0  -0.101722  -0.10038  0  4.038015  0
C  C182  1  0.13737640  0.41604604  0.34954652  1  -0.063167  0  -0.101702  -0.100352  0  4.037979  0
C  C183  1  0.63737603  0.58395390  0.65045301  1  -0.063168  0  -0.101693  -0.100308  0  4.037983  0
C  C184  1  0.22915994  0.50842264  0.84781729  1  -0.070347  0  -0.093862  -0.080078  0  4.008327  0
C  C185  1  0.72915968  0.49157643  0.15218270  1  -0.069888  0  -0.093873  -0.080091  0  4.008398  0
C  C186  1  0.22916041  0.49157660  0.34781714  1  -0.069988  0  -0.093863  -0.080098  0  4.008365  0
C  C187  1  0.72916012  0.50842326  0.65218243  1  -0.069894  0  -0.093854  -0.08011  0  4.008368  0
C  C188  1  0.33137768  0.52474200  0.81421999  1  -0.003884  0  -0.090326  -0.077894  0  3.990424  0
C  C189  1  0.83137660  0.47525777  0.18577961  1  -0.004323  0  -0.09031  -0.077873  0  3.990479  0
C  C190  1  0.33137817  0.47525717  0.31422027  1  -0.004218  0  -0.090327  -0.077897  0  3.99049  0
C  C191  1  0.83137702  0.52474182  0.68577933  1  -0.004326  0  -0.090323  -0.077879  0  3.990421  0
C  C192  1  0.34245982  0.61669781  0.78293008  1  -0.057681  0  -0.080623  -0.065566  0  3.980332  0
C  C193  1  0.84245890  0.38330195  0.21706996  1  -0.057679  0  -0.080604  -0.06554  0  3.98039  0
C  C194  1  0.34246041  0.38330214  0.28292994  1  -0.057686  0  -0.080614  -0.06554  0  3.980378  0
C  C195  1  0.84246012  0.61669762  0.71706967  1  -0.057672  0  -0.080632  -0.065581  0  3.98034  0
C  C196  1  0.21092871  0.78152777  0.67564187  1  -0.588657  0  -0.029124  -0.165724  0  3.987322  0
C  C197  1  0.71092997  0.21847131  0.32435811  1  -0.58868  0  -0.029062  -0.165499  0  3.987147  0
C  C198  1  0.21092767  0.21847234  0.17564260  1  -0.588688  0  -0.029109  -0.165655  0  3.987202  0
C  C199  1  0.71092920  0.78152831  0.82435780  1  -0.588672  0  -0.029105  -0.165687  0  3.987316  0
C  C200  1  0.08873138  0.75639616  0.66651182  1  -0.033078  0  -0.083152  -0.07175  0  3.966768  0
C  C201  1  0.58873263  0.24360381  0.33348811  1  -0.033066  0  -0.083206  -0.071852  0  3.966699  0
C  C202  1  0.08873212  0.24360484  0.16651297  1  -0.033063  0  -0.083169  -0.071684  0  3.96662  0
C  C203  1  0.58873188  0.75639513  0.83348780  1  -0.033056  0  -0.083186  -0.071758  0  3.966625  0
C  C204  1  0.04905703  0.72691091  0.61319223  1  -0.045567  0  -0.094294  -0.081866  0  4.003237  0
C  C205  1  0.54905743  0.27308988  0.38680769  1  -0.045485  0  -0.094265  -0.081807  0  4.003053  0
C  C206  1  0.04905502  0.27309172  0.11319254  1  -0.045487  0  -0.094285  -0.081931  0  4.003159  0
C  C207  1  0.54905672  0.72690986  0.88680780  1  -0.04548  0  -0.094232  -0.081739  0  4.003071  0
C  C208  1  0.13087529  0.72373465  0.56841250  1  -0.079894  0  -0.096139  -0.089548  0  4.029506  0
C  C209  1  0.63087578  0.27626529  0.43158703  1  -0.07996  0  -0.096199  -0.08965  0  4.029573  0
C  C210  1  0.13087237  0.27626872  0.06841322  1  -0.080005  0  -0.096134  -0.08942  0  4.029642  0
C  C211  1  0.63087598  0.72373357  0.93158715  1  -0.079998  0  -0.096191  -0.089648  0  4.029634  0
C  C212  1  0.25240419  0.75052258  0.57708594  1  0.013957  0  -0.103657  -0.10315  0  4.03946  0
C  C213  1  0.75240560  0.24947804  0.42291406  1  0.013941  0  -0.103629  -0.103057  0  4.039438  0
C  C214  1  0.25240221  0.24948147  0.07708666  1  0.013688  0  -0.103721  -0.103295  0  4.039696  0
C  C215  1  0.75240486  0.75052072  0.92291375  1  0.013932  0  -0.103624  -0.103076  0  4.039456  0
C  C216  1  0.29257284  0.77837816  0.63061178  1  -0.098532  0  -0.089627  -0.077423  0  4.001598  0
C  C217  1  0.79257327  0.22162164  0.36938823  1  -0.098546  0  -0.089622  -0.077525  0  4.001663  0
C  C218  1  0.29257179  0.22162348  0.13061125  1  -0.098281  0  -0.089609  -0.077433  0  4.001559  0
C  C219  1  0.79257341  0.77837868  0.86938750  1  -0.098556  0  -0.089629  -0.077474  0  4.001617  0
C  C220  1  0.57775276  0.93068717  0.60415261  1  0.410083  0  0.052975  0.098836  0  3.942171  0
C  C221  1  0.07775269  0.06931438  0.39584774  1  0.410123  0  0.05303  0.098903  0  3.942088  0
C  C222  1  0.57775279  0.06931346  0.10415210  1  0.410077  0  0.052993  0.098792  0  3.942161  0
C  C223  1  0.07775266  0.93068652  0.89584741  1  0.410049  0  0.053048  0.098974  0  3.94213  0
C  C224  1  0.57999654  0.93005695  0.54565031  1  0.045253  0  -0.08188  -0.178505  0  3.942587  0
C  C225  1  0.07999749  0.06994617  0.45435046  1  0.045283  0  -0.081989  -0.178682  0  3.942587  0
C  C226  1  0.57999657  0.06994449  0.04565022  1  0.045243  0  -0.081925  -0.178477  0  3.942543  0
C  C227  1  0.07999655  0.93005549  0.95434929  1  0.045226  0  -0.081939  -0.17858  0  3.94255  0
C  C228  1  0.50726471  0.00074591  0.51553704  1  -0.030233  0  0.016084  0.113269  0  3.97591  0
C  C229  1  0.00726558  0.99925726  0.48446371  1  -0.030295  0  0.016148  0.113457  0  3.975928  0
C  C230  1  0.50726371  0.99925481  0.01553682  1  -0.030219  0  0.016093  0.113266  0  3.975944  0
C  C231  1  0.00726296  0.00074523  0.98446266  1  -0.0302  0  0.016078  0.113237  0  3.975989  0
C  C232  1  0.43498138  0.06274300  0.60552834  1  0.493777  0  0.052448  0.097905  0  3.94447  0
C  C233  1  0.93498288  0.93725668  0.39447299  1  0.493734  0  0.052409  0.097851  0  3.944525  0
C  C234  1  0.43498045  0.93725696  0.10552813  1  0.493795  0  0.052431  0.097952  0  3.944376  0
C  C235  1  0.93498200  0.06274272  0.89447151  1  0.493788  0  0.052443  0.097923  0  3.944548  0
C  C236  1  0.50777618  0.00327077  0.45355831  1  -0.079032  0  0.008974  0.094181  0  3.996556  0
C  C237  1  0.00777807  0.99673162  0.54644243  1  -0.079055  0  0.009034  0.094278  0  3.99656  0
C  C238  1  0.50777517  0.99672975  0.95355797  1  -0.079014  0  0.00898  0.094217  0  3.996571  0
C  C239  1  0.00777546  0.00327029  0.04644151  1  -0.079002  0  0.008963  0.094158  0  3.996627  0
C  C240  1  0.40077412  0.01973602  0.42309085  1  -0.073344  0  -0.083727  -0.170382  0  3.946046  0
C  C241  1  0.90077408  0.98026526  0.57690962  1  -0.073314  0  -0.08379  -0.170501  0  3.946163  0
C  C242  1  0.40077221  0.98026461  0.92309052  1  -0.073343  0  -0.083721  -0.170407  0  3.946038  0
C  C243  1  0.90077235  0.01973511  0.07690954  1  -0.073346  0  -0.083777  -0.170456  0  3.946116  0
C  C244  1  0.40465316  0.02086559  0.36470995  1  0.544125  0  0.055422  0.109303  0  3.929532  0
C  C245  1  0.90465413  0.97913491  0.63529094  1  0.544138  0  0.055413  0.109334  0  3.929683  0
C  C246  1  0.40465216  0.97913506  0.86470962  1  0.544124  0  0.055407  0.109302  0  3.929541  0
C  C247  1  0.90465331  0.02086543  0.13529002  1  0.544114  0  0.055449  0.109355  0  3.929654  0
C  C248  1  0.61132023  0.99029348  0.36458601  1  0.546987  0  0.055276  0.108261  0  3.931695  0
C  C249  1  0.11132157  0.00970725  0.63541561  1  0.54693  0  0.055253  0.108232  0  3.931643  0
C  C250  1  0.61132032  0.00970621  0.86458622  1  0.54698  0  0.055244  0.108203  0  3.931665  0
C  C251  1  0.11132057  0.99029375  0.13541372  1  0.546978  0  0.055263  0.108239  0  3.931618  0
C  C252  1  0.61497445  0.98866145  0.42298245  1  -0.076432  0  -0.08392  -0.170877  0  3.94777  0
C  C253  1  0.11497568  0.01134007  0.57701917  1  -0.076369  0  -0.083998  -0.171  0  3.947799  0
C  C254  1  0.61497272  0.01133899  0.92298225  1  -0.076445  0  -0.083904  -0.170874  0  3.947721  0
C  C255  1  0.11497287  0.98866174  0.07701770  1  -0.076445  0  -0.08389  -0.170855  0  3.9477  0
C  C256  1  0.43380409  0.06856168  0.54711677  1  -0.034938  0  -0.080988  -0.175843  0  3.939118  0
C  C257  1  0.93380660  0.93143957  0.45288455  1  -0.034834  0  -0.081024  -0.175998  0  3.939306  0
C  C258  1  0.43380406  0.93143909  0.04711657  1  -0.034929  0  -0.080998  -0.175937  0  3.939164  0
C  C259  1  0.93380481  0.06856060  0.95288350  1  -0.034932  0  -0.080973  -0.175876  0  3.939147  0
N  N260  1  0.50613600  0.99546936  0.63386476  1  -1.220252  0  -0.31153  -0.232923  0  3.442703  0
N  N261  1  0.00613686  0.00452990  0.36613641  1  -1.220227  0  -0.311518  -0.232878  0  3.44261  0
N  N262  1  0.50613519  0.00453053  0.13386468  1  -1.220246  0  -0.311488  -0.23293  0  3.442611  0
N  N263  1  0.00613675  0.99546951  0.86613480  1  -1.220242  0  -0.311528  -0.232948  0  3.442768  0
N  N264  1  0.50800010  0.00611076  0.33597109  1  -1.209438  0  -0.31696  -0.240061  0  3.492413  0
N  N265  1  0.00799857  0.99388928  0.66402965  1  -1.209474  0  -0.316882  -0.239926  0  3.492405  0
N  N266  1  0.50799909  0.99388981  0.83597075  1  -1.209431  0  -0.316939  -0.240021  0  3.49235  0
N  N267  1  0.00799958  0.00611023  0.16402873  1  -1.209422  0  -0.31695  -0.240016  0  3.49242  0
O  O268  1  0.61389138  0.14763212  0.73927197  1  -1.441796  0  -0.378967  -0.716749  0  2.314029  0
O  O269  1  0.11389201  0.85236705  0.26072755  1  -1.441757  0  -0.378985  -0.716772  0  2.313986  0
O  O270  1  0.61389144  0.85236763  0.23927262  1  -1.441792  0  -0.379002  -0.716765  0  2.313998  0
O  O271  1  0.11389194  0.14763232  0.76072775  1  -1.441751  0  -0.378992  -0.716779  0  2.313995  0
O  O272  1  0.83163492  0.09411093  0.77257276  1  -1.452257  0  -0.379391  -0.719054  0  2.300707  0
O  O273  1  0.33163452  0.90588884  0.22742726  1  -1.452252  0  -0.379387  -0.719097  0  2.300706  0
O  O274  1  0.83163492  0.90588862  0.27257298  1  -1.452257  0  -0.379372  -0.719063  0  2.30073  0
O  O275  1  0.33163452  0.09411037  0.72742704  1  -1.452277  0  -0.379379  -0.719078  0  2.300713  0
O  O276  1  0.39877227  0.84111671  0.74034052  1  -1.439946  0  -0.379357  -0.717063  0  2.315932  0
O  O277  1  0.89877258  0.15888300  0.25965911  1  -1.439945  0  -0.37936  -0.71708  0  2.31599  0
O  O278  1  0.39877129  0.15888322  0.24034042  1  -1.439944  0  -0.379339  -0.717075  0  2.315956  0
O  O279  1  0.89877264  0.84111650  0.75965921  1  -1.439936  0  -0.379366  -0.717078  0  2.315978  0
O  O280  1  0.18081928  0.89405390  0.77351898  1  -1.449402  0  -0.379674  -0.718574  0  2.300265  0
O  O281  1  0.68081959  0.10594599  0.22648057  1  -1.449411  0  -0.37966  -0.718569  0  2.30036  0
O  O282  1  0.18081927  0.10594619  0.27351973  1  -1.449429  0  -0.37964  -0.718588  0  2.300326  0
O  O283  1  0.68081869  0.89405370  0.72648066  1  -1.44941  0  -0.379664  -0.718557  0  2.300354  0
