# generated using pymatgen
data_ZnH50C28(NO)4
_symmetry_space_group_name_H-M   'P 1'
_cell_length_a   8.86071791
_cell_length_b   10.11108546
_cell_length_c   10.30437107
_cell_angle_alpha   63.87295395
_cell_angle_beta   88.06872595
_cell_angle_gamma   66.62869254
_symmetry_Int_Tables_number   1
_chemical_formula_structural   ZnH50C28(NO)4
_chemical_formula_sum   'Zn1 H50 C28 N4 O4'
_cell_volume   749.63278324
_cell_formula_units_Z   1
loop_
 _symmetry_equiv_pos_site_id
 _symmetry_equiv_pos_as_xyz
  1  'x, y, z'
loop_
 _atom_site_type_symbol
 _atom_site_label
 _atom_site_symmetry_multiplicity
 _atom_site_fract_x
 _atom_site_fract_y
 _atom_site_fract_z
 _atom_site_occupancy
 _atom_site_hle17_bader_spin_density
 _atom_site_hle17_ddec_charge
 _atom_site_hle17_ddec_spin_density
 _atom_site_hle17_ddec_sum_bond_order
 _atom_site_hle17_magmom
 _atom_site_hse06_10hf_bader_spin_density
 _atom_site_hse06_10hf_ddec_charge
 _atom_site_hse06_10hf_ddec_spin_density
 _atom_site_hse06_10hf_ddec_sum_bond_order
 _atom_site_hse06_10hf_magmom
 _atom_site_hse06_bader_spin_density
 _atom_site_hse06_ddec_charge
 _atom_site_hse06_ddec_spin_density
 _atom_site_hse06_ddec_sum_bond_order
 _atom_site_hse06_magmom
 _atom_site_pbe_bader_spin_density
 _atom_site_pbe_cm5_charge
 _atom_site_pbe_ddec_charge
 _atom_site_pbe_ddec_spin_density
 _atom_site_pbe_ddec_sum_bond_order
 _atom_site_pbe_magmom
Zn  Zn0  1  0.49999917  0.50000052  0.49999912  1  0  0.906001  0  1.913566  0  0  0.726207  0  2.330872  0  0  0.766975  0  2.29145  0  0  0.691371  0.697634  0  2.357838  0
H  H1  1  0.23035056  0.48889935  0.48149983  1  0  0.249235  0  0.91482  0  0  0.241673  0  0.970808  0  0  0.246325  0  0.968528  0  0  0.295354  0.238495  0  0.972405  0
H  H2  1  0.76964717  0.51110048  0.51849895  1  0  0.249235  0  0.914832  0  0  0.241669  0  0.970823  0  0  0.246318  0  0.968546  0  0  0.295352  0.23849  0  0.972421  0
H  H3  1  0.47628636  0.58606074  0.69868575  1  0  0.265918  0  0.952198  0  0  0.254875  0  1.008274  0  0  0.262534  0  1.002715  0  0  0.282271  0.249538  0  1.012255  0
H  H4  1  0.52371243  0.41393666  0.30131599  1  0  0.265883  0  0.952215  0  0  0.254838  0  1.008297  0  0  0.262501  0  1.002735  0  0  0.282272  0.2495  0  1.012278  0
H  H5  1  0.32293008  0.40731121  0.78662762  1  0  0.057081  0  0.902332  0  0  0.075983  0  0.953682  0  0  0.07609  0  0.954435  0  0  0.115935  0.076148  0  0.953006  0
H  H6  1  0.67707270  0.59268740  0.21337154  1  0  0.057065  0  0.902337  0  0  0.075933  0  0.953729  0  0  0.076071  0  0.954441  0  0  0.115931  0.0761  0  0.953053  0
H  H7  1  0.98213685  0.56021077  0.59616708  1  0  0.057446  0  0.944605  0  0  0.076034  0  1.013485  0  0  0.076641  0  1.013767  0  0  0.086426  0.075289  0  1.013993  0
H  H8  1  0.01786201  0.43978906  0.40383166  1  0  0.057479  0  0.944577  0  0  0.076069  0  1.013454  0  0  0.076675  0  1.013736  0  0  0.08644  0.075326  0  1.013959  0
H  H9  1  0.07262629  0.36306087  0.74781449  1  0  0.06911  0  0.963437  0  0  0.087356  0  1.027823  0  0  0.08747  0  1.029102  0  0  0.091009  0.08721  0  1.027108  0
H  H10  1  0.92737431  0.63694017  0.25218659  1  0  0.069108  0  0.963437  0  0  0.087354  0  1.027831  0  0  0.087469  0  1.029109  0  0  0.091007  0.087209  0  1.027116  0
H  H11  1  0.86647877  0.55611397  0.82323364  1  0  0.076474  0  0.951745  0  0  0.091022  0  1.017391  0  0  0.092723  0  1.016601  0  0  0.088351  0.089838  0  1.017976  0
H  H12  1  0.13351791  0.44388830  0.17676412  1  0  0.076484  0  0.951787  0  0  0.091021  0  1.01745  0  0  0.092724  0  1.016657  0  0  0.088356  0.089837  0  1.018034  0
H  H13  1  0.06984597  0.48067502  0.91519594  1  0  0.064263  0  0.941015  0  0  0.086251  0  0.998288  0  0  0.086505  0  0.999346  0  0  0.090876  0.086002  0  0.997902  0
H  H14  1  0.93015123  0.51932603  0.08480329  1  0  0.064265  0  0.941047  0  0  0.08628  0  0.99829  0  0  0.086536  0  0.999347  0  0  0.090874  0.086031  0  0.997904  0
H  H15  1  0.92648422  0.78136999  0.82262489  1  0  0.060357  0  0.940504  0  0  0.079518  0  1.001007  0  0  0.080489  0  1.000905  0  0  0.087188  0.078605  0  1.001578  0
H  H16  1  0.07351803  0.21862983  0.17737279  1  0  0.060368  0  0.940459  0  0  0.079516  0  1.000971  0  0  0.080497  0  1.000859  0  0  0.087196  0.0786  0  1.001546  0
H  H17  1  0.88990965  0.81060834  0.64250725  1  0  0.050715  0  0.941545  0  0  0.071226  0  1.003503  0  0  0.071581  0  1.004482  0  0  0.083309  0.070869  0  1.003148  0
H  H18  1  0.11008929  0.18939393  0.35748947  1  0  0.050711  0  0.941563  0  0  0.071226  0  1.003509  0  0  0.07158  0  1.004491  0  0  0.083333  0.070869  0  1.003153  0
H  H19  1  0.23364587  0.65916846  0.83071306  1  0  0.08833  0  0.917997  0  0  0.106097  0  0.977651  0  0  0.107781  0  0.976842  0  0  0.097995  0.10526  0  0.97757  0
H  H20  1  0.76635187  0.34083137  0.16928572  1  0  0.088295  0  0.918013  0  0  0.106077  0  0.977656  0  0  0.107763  0  0.976844  0  0  0.097985  0.105246  0  0.977562  0
H  H21  1  0.13803257  0.85547099  0.67816492  1  0  0.068658  0  0.941955  0  0  0.088656  0  1.000104  0  0  0.089197  0  1.000872  0  0  0.089888  0.088027  0  1.000285  0
H  H22  1  0.86196742  0.14452884  0.32183380  1  0  0.068653  0  0.941957  0  0  0.088652  0  1.000104  0  0  0.089186  0  1.00088  0  0  0.089878  0.08802  0  1.000291  0
H  H23  1  0.14733163  0.73380292  0.51226119  1  0  0.045939  0  0.914979  0  0  0.059725  0  0.977843  0  0  0.060397  0  0.97756  0  0  0.106849  0.059881  0  0.977045  0
H  H24  1  0.85266731  0.26619934  0.48773747  1  0  0.045956  0  0.914947  0  0  0.05975  0  0.977823  0  0  0.060424  0  0.977537  0  0  0.106859  0.059905  0  0.977025  0
H  H25  1  0.34715776  0.88797290  0.57206016  1  0  0.032983  0  0.940078  0  0  0.05027  0  1.005524  0  0  0.050987  0  1.004768  0  0  0.088728  0.048837  0  1.007925  0
H  H26  1  0.65284503  0.11202570  0.42794094  1  0  0.032943  0  0.940086  0  0  0.050249  0  1.005533  0  0  0.050968  0  1.004776  0  0  0.08871  0.048816  0  1.007934  0
H  H27  1  0.31574432  0.87660553  0.40901718  1  0  0.061932  0  0.934746  0  0  0.079302  0  1.000334  0  0  0.079928  0  1.000262  0  0  0.103417  0.079013  0  1.000086  0
H  H28  1  0.68425794  0.12339429  0.59098243  1  0  0.061915  0  0.934741  0  0  0.079296  0  1.000332  0  0  0.079923  0  1.00026  0  0  0.1034  0.079008  0  1.000083  0
H  H29  1  0.65967149  0.71005126  0.60125200  1  0  0.088473  0  0.936165  0  0  0.106343  0  0.994996  0  0  0.107173  0  0.995977  0  0  0.100019  0.105872  0  0.994152  0
H  H30  1  0.34032903  0.28994735  0.39874819  1  0  0.088498  0  0.936129  0  0  0.106372  0  0.994951  0  0  0.107199  0  0.995929  0  0  0.10003  0.105899  0  0.994106  0
H  H31  1  0.57511724  0.91595795  0.46819376  1  0  0.067931  0  0.968585  0  0  0.086312  0  1.030716  0  0  0.086662  0  1.031485  0  0  0.091484  0.085658  0  1.031143  0
H  H32  1  0.42488443  0.08404066  0.53180931  1  0  0.067924  0  0.968578  0  0  0.086301  0  1.030718  0  0  0.086648  0  1.031486  0  0  0.091475  0.085646  0  1.031146  0
H  H33  1  0.77045839  0.76834528  0.37022381  1  0  0.005486  0  0.936431  0  0  0.019724  0  1.00289  0  0  0.019831  0  1.00242  0  0  0.089342  0.018942  0  1.004626  0
H  H34  1  0.22954439  0.23165333  0.62977631  1  0  0.005501  0  0.936321  0  0  0.019739  0  1.002786  0  0  0.019848  0  1.002315  0  0  0.089333  0.018956  0  1.004522  0
H  H35  1  0.51066886  0.99690728  0.20015164  1  0  0.105851  0  0.936975  0  0  0.131571  0  0.990258  0  0  0.132552  0  0.990917  0  0  0.092447  0.130876  0  0.98995  0
H  H36  1  0.48933626  0.00309375  0.79984930  1  0  0.10586  0  0.936932  0  0  0.131572  0  0.990228  0  0  0.132552  0  0.990888  0  0  0.092447  0.130878  0  0.989919  0
H  H37  1  0.42823853  0.85490708  0.21967107  1  0  0.118609  0  0.984112  0  0  0.135491  0  1.051671  0  0  0.137498  0  1.051399  0  0  0.091451  0.134132  0  1.05154  0
H  H38  1  0.57176388  0.14509760  0.78032740  1  0  0.118615  0  0.984166  0  0  0.135498  0  1.051724  0  0  0.137507  0  1.051449  0  0  0.091461  0.134139  0  1.051591  0
H  H39  1  0.60821407  0.85180115  0.13687795  1  0  0.10159  0  0.953792  0  0  0.123047  0  1.015169  0  0  0.1242  0  1.01551  0  0  0.089201  0.12224  0  1.014844  0
H  H40  1  0.39178819  0.14819868  0.86312263  1  0  0.101598  0  0.95374  0  0  0.123051  0  1.015122  0  0  0.124207  0  1.015459  0  0  0.089206  0.122245  0  1.014795  0
H  H41  1  0.03926199  0.77488237  0.04523239  1  0  0.062363  0  0.924544  0  0  0.077696  0  0.98178  0  0  0.078822  0  0.982318  0  0  0.094755  0.076746  0  0.981544  0
H  H42  1  0.96073521  0.22511869  0.95476782  1  0  0.062332  0  0.924577  0  0  0.077686  0  0.981809  0  0  0.078805  0  0.982356  0  0  0.094738  0.076736  0  0.981573  0
H  H43  1  0.23564784  0.97770463  0.99329748  1  0  0.056219  0  0.941924  0  0  0.076849  0  1.003523  0  0  0.07741  0  1.004255  0  0  0.08412  0.076445  0  1.00277  0
H  H44  1  0.76435261  0.02229155  0.00670668  1  0  0.05624  0  0.942036  0  0  0.07688  0  1.003605  0  0  0.07744  0  1.004338  0  0  0.084146  0.076475  0  1.002852  0
H  H45  1  0.24217454  0.86097784  0.90424776  1  0  0.068425  0  0.941544  0  0  0.084688  0  1.00449  0  0  0.086249  0  1.0042  0  0  0.088274  0.083372  0  1.005289  0
H  H46  1  0.75782651  0.13901955  0.09575489  1  0  0.068409  0  0.941573  0  0  0.084693  0  1.004494  0  0  0.086254  0  1.004204  0  0  0.088272  0.083377  0  1.005293  0
H  H47  1  0.93743771  0.03439897  0.79879284  1  0  0.064266  0  0.945563  0  0  0.08069  0  1.01382  0  0  0.081978  0  1.0133  0  0  0.08619  0.079534  0  1.014553  0
H  H48  1  0.06256508  0.96559964  0.20120729  1  0  0.064267  0  0.94557  0  0  0.080695  0  1.013824  0  0  0.08198  0  1.013308  0  0  0.086189  0.079545  0  1.014551  0
H  H49  1  0.04643270  0.15661029  0.74806510  1  0  0.047761  0  0.965711  0  0  0.060898  0  1.040571  0  0  0.062911  0  1.038554  0  0  0.076862  0.059524  0  1.042041  0
H  H50  1  0.95356677  0.84339076  0.25193601  1  0  0.047783  0  0.96574  0  0  0.060904  0  1.040619  0  0  0.062916  0  1.038603  0  0  0.076865  0.05953  0  1.042091  0
C  C51  1  0.23650342  0.48462231  0.68095863  1  0  0.111266  0  3.572382  0  0  0.089594  0  3.815814  0  0  0.092515  0  3.831826  0  0  0.002568  0.087288  0  3.804784  0
C  C52  1  0.76349552  0.51537996  0.31904003  1  0  0.111265  0  3.572354  0  0  0.089604  0  3.815815  0  0  0.092508  0  3.831835  0  0  0.002548  0.087292  0  3.804793  0
C  C53  1  0.06425277  0.48682667  0.70445891  1  0  -0.154147  0  3.679553  0  0  -0.20259  0  3.94699  0  0  -0.203746  0  3.961418  0  0  -0.166931  -0.201085  0  3.936875  0
C  C54  1  0.93574609  0.51317316  0.29553984  1  0  -0.154182  0  3.679565  0  0  -0.202615  0  3.947003  0  0  -0.203776  0  3.961443  0  0  -0.166936  -0.201112  0  3.936889  0
C  C55  1  0.98885960  0.55854102  0.80684430  1  0  -0.119685  0  3.705373  0  0  -0.160112  0  3.970735  0  0  -0.161386  0  3.985369  0  0  -0.171614  -0.158732  0  3.960387  0
C  C56  1  0.01113707  0.44146125  0.19315346  1  0  -0.119707  0  3.705457  0  0  -0.160154  0  3.970837  0  0  -0.161427  0  3.985474  0  0  -0.171632  -0.158774  0  3.960489  0
C  C57  1  0.97767460  0.73028512  0.74764635  1  0  -0.097033  0  3.70511  0  0  -0.136811  0  3.969203  0  0  -0.137693  0  3.98458  0  0  -0.166895  -0.135895  0  3.958483  0
C  C58  1  0.02232486  0.26971593  0.25235088  1  0  -0.097029  0  3.705087  0  0  -0.136794  0  3.969172  0  0  -0.137682  0  3.984548  0  0  -0.166928  -0.135876  0  3.958454  0
C  C59  1  0.14903697  0.73044185  0.72412355  1  0  -0.164851  0  3.662197  0  0  -0.209643  0  3.924154  0  0  -0.211674  0  3.938889  0  0  -0.166366  -0.208122  0  3.913309  0
C  C60  1  0.85096303  0.26955797  0.27587419  1  0  -0.164806  0  3.662171  0  0  -0.209593  0  3.924121  0  0  -0.211619  0  3.938859  0  0  -0.16632  -0.208071  0  3.913277  0
C  C61  1  0.22699138  0.65789479  0.62181269  1  0  0.114743  0  3.57078  0  0  0.093271  0  3.815402  0  0  0.096496  0  3.831709  0  0  0.004033  0.091195  0  3.803335  0
C  C62  1  0.77300695  0.34210625  0.37818555  1  0  0.11468  0  3.570727  0  0  0.093157  0  3.815436  0  0  0.09638  0  3.831749  0  0  0.003985  0.091082  0  3.803366  0
C  C63  1  0.39798206  0.81259289  0.51559486  1  0  0.0628  0  3.629916  0  0  0.001653  0  3.89727  0  0  0.006238  0  3.90956  0  0  -0.06977  -0.001289  0  3.88878  0
C  C64  1  0.60202073  0.18740572  0.48440624  1  0  0.062852  0  3.629891  0  0  0.001654  0  3.897304  0  0  0.006235  0  3.909593  0  0  -0.069711  -0.001288  0  3.888812  0
C  C65  1  0.57537422  0.79788687  0.49516821  1  0  -0.195208  0  3.631312  0  0  -0.236043  0  3.886391  0  0  -0.238531  0  3.900191  0  0  -0.160745  -0.234558  0  3.877421  0
C  C66  1  0.42462804  0.20211296  0.50483238  1  0  -0.195248  0  3.631317  0  0  -0.236069  0  3.88643  0  0  -0.238544  0  3.900212  0  0  -0.160769  -0.234585  0  3.877457  0
C  C67  1  0.65216209  0.75446754  0.37511258  1  0  0.220721  0  3.60419  0  0  0.20363  0  3.856683  0  0  0.208101  0  3.873201  0  0  0.00249  0.200393  0  3.846417  0
C  C68  1  0.34784017  0.24553228  0.62488703  1  0  0.22073  0  3.604133  0  0  0.203642  0  3.856632  0  0  0.208108  0  3.873148  0  0  0.002513  0.200405  0  3.846364  0
C  C69  1  0.54311916  0.87075101  0.22403744  1  0  -0.350198  0  3.678534  0  0  -0.43273  0  3.923502  0  0  -0.436245  0  3.934226  0  0  -0.247907  -0.430171  0  3.916081  0
C  C70  1  0.45688430  0.12925124  0.77596205  1  0  -0.350237  0  3.678485  0  0  -0.432774  0  3.923471  0  0  -0.436287  0  3.93419  0  0  -0.24794  -0.430214  0  3.916045  0
C  C71  1  0.26203567  0.67672233  0.19358205  1  0  0.649112  0  3.872627  0  0  0.600872  0  4.180159  0  0  0.632937  0  4.173694  0  0  0.196868  0.57921  0  4.184062  0
C  C72  1  0.73795831  0.32328360  0.80642294  1  0  0.649156  0  3.872764  0  0  0.600921  0  4.180285  0  0  0.632973  0  4.173825  0  0  0.196877  0.579255  0  4.184194  0
C  C73  1  0.10719235  0.82321335  0.08676967  1  0  -0.120626  0  3.654821  0  0  -0.119619  0  3.893636  0  0  -0.125504  0  3.909213  0  0  -0.097707  -0.115785  0  3.882999  0
C  C74  1  0.89280652  0.17678649  0.91323101  1  0  -0.120545  0  3.654734  0  0  -0.119603  0  3.893638  0  0  -0.125474  0  3.90921  0  0  -0.097679  -0.115766  0  3.882999  0
C  C75  1  0.16073804  0.93331444  0.95418693  1  0  -0.112971  0  3.672539  0  0  -0.156499  0  3.929443  0  0  -0.157623  0  3.944554  0  0  -0.163801  -0.155645  0  3.919045  0
C  C76  1  0.83926136  0.06668417  0.04581426  1  0  -0.113028  0  3.672655  0  0  -0.156548  0  3.929541  0  0  -0.157672  0  3.944651  0  0  -0.163828  -0.155692  0  3.919143  0
C  C77  1  0.00843790  0.07773652  0.84325911  1  0  -0.118136  0  3.711137  0  0  -0.165861  0  3.97781  0  0  -0.165876  0  3.990964  0  0  -0.171691  -0.165385  0  3.968848  0
C  C78  1  0.99156210  0.92226331  0.15674154  1  0  -0.118151  0  3.711202  0  0  -0.165889  0  3.977868  0  0  -0.165902  0  3.991022  0  0  -0.171711  -0.165418  0  3.968909  0
N  N79  1  0.31016103  0.41773923  0.58021201  1  0  -0.46289  0  3.196522  0  0  -0.39482  0  3.44442  0  0  -0.411251  0  3.453263  0  0  -0.484243  -0.382751  0  3.438309  0
N  N80  1  0.68983843  0.58226181  0.41978716  1  0  -0.462879  0  3.196446  0  0  -0.394782  0  3.444312  0  0  -0.411214  0  3.453164  0  0  -0.484232  -0.382711  0  3.438205  0
N  N81  1  0.39427497  0.65290715  0.59873406  1  0  -0.449764  0  3.227235  0  0  -0.374884  0  3.478342  0  0  -0.39305  0  3.486751  0  0  -0.490993  -0.361699  0  3.471669  0
N  N82  1  0.60572555  0.34709146  0.40126613  1  0  -0.449654  0  3.227117  0  0  -0.374753  0  3.478254  0  0  -0.392925  0  3.48667  0  0  -0.491015  -0.361565  0  3.471578  0
O  O83  1  0.30143296  0.68183232  0.30971402  1  0  -0.670936  0  2.052669  0  0  -0.602346  0  2.313317  0  0  -0.628427  0  2.303121  0  0  -0.337419  -0.584739  0  2.319302  0
O  O84  1  0.69856876  0.31816872  0.69028120  1  0  -0.671101  0  2.052329  0  0  -0.602514  0  2.313011  0  0  -0.6286  0  2.302813  0  0  -0.33748  -0.584911  0  2.319007  0
O  O85  1  0.34080202  0.56419644  0.16033566  1  0  -0.630624  0  1.882466  0  0  -0.591457  0  2.099073  0  0  -0.612703  0  2.089324  0  0  -0.347274  -0.577396  0  2.105465  0
O  O86  1  0.65919481  0.43579245  0.83966498  1  0  -0.63049  0  1.883055  0  0  -0.591321  0  2.099651  0  0  -0.612557  0  2.089906  0  0  -0.347212  -0.577259  0  2.106051  0
