# generated using pymatgen
data_CoPH13C12N3O5
_symmetry_space_group_name_H-M   'P 1'
_cell_length_a   5.15515375
_cell_length_b   10.51547676
_cell_length_c   14.40334417
_cell_angle_alpha   74.76190832
_cell_angle_beta   82.71855424
_cell_angle_gamma   81.49574141
_symmetry_Int_Tables_number   1
_chemical_formula_structural   CoPH13C12N3O5
_chemical_formula_sum   'Co2 P2 H26 C24 N6 O10'
_cell_volume   741.88940453
_cell_formula_units_Z   2
loop_
 _symmetry_equiv_pos_site_id
 _symmetry_equiv_pos_as_xyz
  1  'x, y, z'
loop_
 _atom_site_type_symbol
 _atom_site_label
 _atom_site_symmetry_multiplicity
 _atom_site_fract_x
 _atom_site_fract_y
 _atom_site_fract_z
 _atom_site_occupancy
 _atom_site_pbe_bader_charge
 _atom_site_pbe_bader_spin_density
 _atom_site_pbe_cm5_charge
 _atom_site_pbe_ddec_charge
 _atom_site_pbe_ddec_spin_density
 _atom_site_pbe_ddec_sum_bond_order
 _atom_site_pbe_magmom
Co  Co0  1  0.99999353  0.50000709  0.49999162  1  1.296784  2.637311  0.659236  0.976014  2.829538  2.317474  2.62
Co  Co1  1  0.49998660  0.99999494  0.50000952  1  1.284477  2.613753  0.674776  0.961363  2.812983  2.428463  2.598
P  P2  1  0.91800353  0.19701212  0.46957066  1  3.39743  0.010168  0.355398  1.251369  0.010728  5.370655  0.009
P  P3  1  0.08200717  0.80298710  0.53043569  1  3.397187  0.010169  0.355217  1.251086  0.010729  5.370757  0.009
H  H4  1  0.41233239  0.91388185  0.35212779  1  0.676831  -0.000232  0.308512  0.380572  -0.000582  0.956576  0.0
H  H5  1  0.70345665  0.71570698  0.47974385  1  0.638974  0.000222  0.292005  0.382739  -2.5e-05  0.971577  0.001
H  H6  1  0.48253986  0.62329587  0.49097039  1  0.650249  0.000848  0.296023  0.392811  0.000341  0.947901  0.002
H  H7  1  0.20973825  0.25146605  0.27941916  1  0.076407  0.000621  0.103971  0.109505  0.000208  1.019618  0.0
H  H8  1  0.18661921  0.16641696  0.13261750  1  0.065175  -0.000128  0.100218  0.091107  -0.000212  1.009306  0.0
H  H9  1  0.84757169  0.01386469  0.13938484  1  0.060618  0.001427  0.102312  0.118156  0.000614  0.995681  0.0
H  H10  1  0.11686128  0.25593673  0.68936416  1  0.153364  0.000647  0.117948  0.119591  0.000136  1.03347  0.001
H  H11  1  0.75961209  0.20978859  0.85384281  1  0.091008  0.001019  0.117109  0.113423  0.000421  1.008589  0.0
H  H12  1  0.46581101  0.55381108  0.65019934  1  0.192619  0.000519  0.136215  0.114482  -3.6e-05  1.030849  0.0
H  H13  1  0.19247348  0.49239398  0.80187563  1  0.082417  4.3e-05  0.120519  0.110486  -8e-06  0.971531  0.0
H  H14  1  0.23143587  0.32594782  0.86957525  1  0.061924  0.000204  0.110266  0.090769  8.1e-05  0.985666  0.0
H  H15  1  0.72873403  0.56614547  0.83541350  1  0.072123  -7e-06  0.100761  0.096171  -3.9e-05  1.041868  0.0
H  H16  1  0.13551503  0.36042558  0.03000116  1  0.058282  -8.1e-05  0.09835  0.096455  -0.000102  1.026834  0.0
H  H17  1  0.58763870  0.08611610  0.64787350  1  0.676908  -0.000233  0.308519  0.380557  -0.000583  0.956595  0.0
H  H18  1  0.29651725  0.28430464  0.52024079  1  0.638892  0.000223  0.292014  0.382651  -2.5e-05  0.971695  0.001
H  H19  1  0.51743262  0.37672674  0.50901561  1  0.650093  0.000845  0.295982  0.392726  0.00034  0.94805  0.002
H  H20  1  0.79024692  0.74852727  0.72059868  1  0.076366  0.000621  0.103954  0.109478  0.000208  1.019605  0.0
H  H21  1  0.81339428  0.83356843  0.86739566  1  0.064954  -0.000129  0.100192  0.091057  -0.000212  1.009474  0.0
H  H22  1  0.15244279  0.98611556  0.86061955  1  0.060778  0.001426  0.102278  0.118156  0.000614  0.995828  0.0
H  H23  1  0.88312745  0.74404713  0.31062554  1  0.153266  0.000647  0.118001  0.119672  0.000136  1.033526  0.001
H  H24  1  0.24036224  0.79021408  0.14614287  1  0.091005  0.001019  0.117107  0.113427  0.000421  1.00847  0.0
H  H25  1  0.53421421  0.44620090  0.34979165  1  0.192694  0.000519  0.136226  0.114561  -3.6e-05  1.030709  0.0
H  H26  1  0.80752836  0.50761596  0.19811910  1  0.082391  4.3e-05  0.120541  0.110506  -8e-06  0.971531  0.0
H  H27  1  0.76859256  0.67406038  0.13042615  1  0.061935  0.000204  0.110261  0.090719  8.1e-05  0.985789  0.0
H  H28  1  0.27130592  0.43386956  0.16457724  1  0.071766  -7e-06  0.100815  0.096242  -3.9e-05  1.041844  0.0
H  H29  1  0.86454757  0.63957568  0.96999381  1  0.058108  -8.1e-05  0.098305  0.096441  -0.000102  1.026734  0.0
C  C30  1  0.88554078  0.15123242  0.35802230  1  0.0054  -0.003024  0.104711  0.005289  -0.005828  3.960373  -0.003
C  C31  1  0.05888890  0.19056809  0.27660161  1  -0.053707  0.005173  -0.100997  -0.156008  0.002353  4.013463  0.004
C  C32  1  0.04629425  0.14176433  0.19603894  1  -0.004265  -0.00828  -0.081887  -0.019437  -0.009168  4.040849  -0.005
C  C33  1  0.86152142  0.05715306  0.19925765  1  -0.025322  0.005265  -0.106787  -0.254008  0.002573  3.962977  0.004
C  C34  1  0.69216329  0.02131153  0.28426574  1  1.106882  -0.002655  0.214712  0.478287  -0.003691  4.060321  -0.002
C  C35  1  0.92966650  0.31118168  0.70586484  1  0.36937  -0.000128  -0.001003  -0.015575  -0.000994  3.973657  0.0
C  C36  1  0.75722098  0.28797271  0.78767256  1  0.33531  0.002873  -0.007846  -0.121388  0.001433  3.955981  0.002
C  C37  1  0.60296297  0.46960449  0.68244449  1  0.941179  -0.003297  0.143537  0.102253  -0.004301  3.886251  -0.002
C  C38  1  0.33387065  0.41473596  0.84161070  1  0.336333  0.000926  -0.041393  -0.109816  0.000495  3.927607  0.001
C  C39  1  0.42303978  0.45781445  0.92346327  1  -0.071031  -8.4e-05  -0.015675  0.0827  -0.000115  3.985027  0.0
C  C40  1  0.62740137  0.53715665  0.90756785  1  -0.049711  0.000122  -0.094742  -0.132069  3.5e-05  3.990572  0.0
C  C41  1  0.29699875  0.42109124  0.01673773  1  -0.01598  -0.000191  -0.095949  -0.138761  -0.000205  4.014102  0.0
C  C42  1  0.11446126  0.84875193  0.64199133  1  0.005977  -0.003024  0.104735  0.005422  -0.005827  3.96032  -0.003
C  C43  1  0.94111733  0.80941141  0.72341843  1  -0.053747  0.005175  -0.100972  -0.156123  0.002353  4.013219  0.004
C  C44  1  0.95369775  0.85822699  0.80397635  1  -0.004452  -0.008281  -0.081811  -0.019124  -0.009169  4.040909  -0.005
C  C45  1  0.13850409  0.94282151  0.80076011  1  -0.025826  0.005265  -0.106706  -0.254051  0.002573  3.962832  0.004
C  C46  1  0.30785396  0.97867584  0.71574486  1  1.107519  -0.002658  0.214656  0.478124  -0.003695  4.060252  -0.002
C  C47  1  0.07030656  0.68881104  0.29412212  1  0.369318  -0.00013  -0.001116  -0.01577  -0.000995  3.973546  0.0
C  C48  1  0.24278712  0.71202928  0.21232149  1  0.334995  0.002874  -0.007838  -0.12139  0.001433  3.955712  0.002
C  C49  1  0.39702014  0.53040045  0.31755445  1  0.94167  -0.003301  0.143603  0.10215  -0.004306  3.886313  -0.002
C  C50  1  0.66613106  0.58527710  0.15839107  1  0.336355  0.000926  -0.041433  -0.109873  0.000495  3.927716  0.001
C  C51  1  0.57696144  0.54219652  0.07653336  1  -0.070459  -8.4e-05  -0.015727  0.082628  -0.000115  3.984789  0.0
C  C52  1  0.37261920  0.46285732  0.09242425  1  -0.049663  0.000122  -0.094741  -0.132002  3.5e-05  3.990667  0.0
C  C53  1  0.70301311  0.57893170  0.98325631  1  -0.015792  -0.000191  -0.095867  -0.138689  -0.000205  4.013772  0.0
N  N54  1  0.70204514  0.06945341  0.36177744  1  -1.216695  0.048721  -0.329323  -0.371739  0.025315  3.527176  0.044
N  N55  1  0.83117035  0.42475965  0.64084163  1  -1.204171  0.049935  -0.351584  -0.308989  0.026846  3.566637  0.041
N  N56  1  0.55064668  0.38884749  0.77162464  1  -1.25771  0.001286  -0.24936  0.036203  0.000263  3.797887  0.001
N  N57  1  0.29792354  0.93052579  0.63823521  1  -1.216805  0.04873  -0.329447  -0.371872  0.025317  3.527631  0.044
N  N58  1  0.16883588  0.57524929  0.35915180  1  -1.204429  0.049948  -0.351578  -0.308874  0.02685  3.566936  0.041
N  N59  1  0.44935691  0.61115647  0.22836983  1  -1.257692  0.001287  -0.249358  0.036317  0.000263  3.79791  0.001
O  O60  1  0.82611510  0.34594627  0.45616214  1  -1.440126  0.055775  -0.36503  -0.770869  0.027831  2.324494  0.045
O  O61  1  0.74202098  0.10668961  0.54609366  1  -1.432675  0.0739  -0.363565  -0.738573  0.037026  2.373513  0.058
O  O62  1  0.21244549  0.16709593  0.48495812  1  -1.43142  0.059607  -0.364119  -0.751187  0.030316  2.39312  0.046
O  O63  1  0.52412433  0.93501976  0.28729244  1  -1.197348  -0.001079  -0.34074  -0.487425  -0.001327  2.320197  0.0
O  O64  1  0.66952512  0.63155688  0.46444299  1  -1.262389  0.074346  -0.579555  -0.765201  0.038356  2.191416  0.06
O  O65  1  0.17386963  0.65405154  0.54382771  1  -1.440402  0.055785  -0.365019  -0.770835  0.027834  2.324555  0.045
O  O66  1  0.25794877  0.89331041  0.45391212  1  -1.432603  0.073891  -0.363461  -0.738523  0.037022  2.373772  0.058
O  O67  1  0.78755786  0.83289334  0.51505105  1  -1.431353  0.05961  -0.364082  -0.751102  0.030317  2.392875  0.046
O  O68  1  0.47586027  0.06498233  0.71271397  1  -1.197459  -0.00108  -0.340754  -0.487387  -0.001328  2.320376  0.0
O  O69  1  0.33045205  0.36845772  0.53554029  1  -1.262104  0.074349  -0.579523  -0.765005  0.038362  2.191399  0.06
