# generated using pymatgen
data_Zn2H18C39O11
_symmetry_space_group_name_H-M   'P 1'
_cell_length_a   16.04170977
_cell_length_b   16.13511421
_cell_length_c   30.15843278
_cell_angle_alpha   90.69724782
_cell_angle_beta   89.35716440
_cell_angle_gamma   89.97437009
_symmetry_Int_Tables_number   1
_chemical_formula_structural   Zn2H18C39O11
_chemical_formula_sum   'Zn4 H36 C78 O22'
_cell_volume   7804.98190306
_cell_formula_units_Z   2
loop_
 _symmetry_equiv_pos_site_id
 _symmetry_equiv_pos_as_xyz
  1  'x, y, z'
loop_
 _atom_site_type_symbol
 _atom_site_label
 _atom_site_symmetry_multiplicity
 _atom_site_fract_x
 _atom_site_fract_y
 _atom_site_fract_z
 _atom_site_occupancy
 _atom_site_pbe_bader_charge
 _atom_site_pbe_bader_spin_density
 _atom_site_pbe_cm5_charge
 _atom_site_pbe_ddec_charge
 _atom_site_pbe_ddec_spin_density
 _atom_site_pbe_ddec_sum_bond_order
 _atom_site_pbe_magmom
Zn  Zn0  1  0.50386959  0.92013235  0.49835774  1  1.302574  0  0.737673  0.976166  0  2.065594  0
Zn  Zn1  1  0.49608465  0.07985945  0.50165520  1  1.298642  0  0.73721  0.975273  0  2.066477  0
Zn  Zn2  1  0.08041189  0.50339652  0.99908613  1  1.296979  0  0.736524  0.975132  0  2.074384  0
Zn  Zn3  1  0.91958176  0.49659887  0.00087623  1  1.301239  0  0.736695  0.975406  0  2.07503  0
H  H4  1  0.23830235  0.87738284  0.68881707  1  0.076312  0  0.112274  0.116013  0  0.977789  0
H  H5  1  0.76161456  0.12244966  0.31118453  1  0.076875  0  0.112234  0.115872  0  0.977736  0
H  H6  1  0.86194172  0.10905528  0.74600824  1  0.080723  0  0.101415  0.103522  0  1.031062  0
H  H7  1  0.13811462  0.89095273  0.25405036  1  0.082222  0  0.101316  0.103369  0  1.03141  0
H  H8  1  0.11193151  0.94886818  0.81100272  1  0.070868  0  0.10558  0.107528  0  0.998644  0
H  H9  1  0.88805018  0.05097488  0.18901750  1  0.067636  0  0.105325  0.107211  0  0.99839  0
H  H10  1  0.87442202  0.04009033  0.81287491  1  0.073359  0  0.10572  0.109731  0  0.993702  0
H  H11  1  0.12569038  0.96008624  0.18718107  1  0.071707  0  0.105797  0.109645  0  0.993819  0
H  H12  1  0.12144973  0.10573227  0.76839168  1  0.062981  0  0.101943  0.102574  0  1.013163  0
H  H13  1  0.87866437  0.89414092  0.23153851  1  0.061804  0  0.101742  0.102311  0  1.012945  0
H  H14  1  0.86828135  0.87668291  0.76620138  1  0.084596  0  0.101708  0.103051  0  1.019498  0
H  H15  1  0.13165807  0.12340295  0.23374753  1  0.086732  0  0.101986  0.103475  0  1.019202  0
H  H16  1  0.74611940  0.11204497  0.69291801  1  0.0663  0  0.108435  0.115319  0  0.985159  0
H  H17  1  0.25396626  0.88809004  0.30711996  1  0.066831  0  0.108565  0.115576  0  0.985118  0
H  H18  1  0.11149352  0.83316206  0.86365717  1  0.094455  0  0.11127  0.115079  0  0.978578  0
H  H19  1  0.88828110  0.16672017  0.13639386  1  0.092203  0  0.111424  0.115533  0  0.97878  0
H  H20  1  0.87950985  0.15063821  0.87014969  1  0.094453  0  0.11102  0.114873  0  0.980338  0
H  H21  1  0.12081079  0.84950111  0.12990300  1  0.097853  0  0.111306  0.115203  0  0.979677  0
H  H22  1  0.12894782  0.21241668  0.82761466  1  0.053686  0  0.111147  0.114696  0  0.980027  0
H  H23  1  0.87138820  0.78743664  0.17232222  1  0.050815  0  0.110978  0.114212  0  0.980237  0
H  H24  1  0.86569981  0.76384070  0.82063935  1  0.091164  0  0.110173  0.112947  0  0.98198  0
H  H25  1  0.13404249  0.23630171  0.17934970  1  0.089846  0  0.110097  0.113095  0  0.981965  0
H  H26  1  0.14173615  0.09568373  0.62689883  1  0.115628  0  0.11602  0.125416  0  0.976828  0
H  H27  1  0.85829121  0.90416167  0.37306712  1  0.113829  0  0.116313  0.125633  0  0.977106  0
H  H28  1  0.83325159  0.88254313  0.63479844  1  0.075694  0  0.110858  0.124021  0  1.012752  0
H  H29  1  0.16670707  0.11759362  0.36517885  1  0.075102  0  0.111125  0.124433  0  1.013246  0
H  H30  1  0.12301005  0.88278461  0.74267528  1  0.05806  0  0.104118  0.107659  0  1.027852  0
H  H31  1  0.87695227  0.11715641  0.25735291  1  0.058958  0  0.104005  0.107555  0  1.027715  0
H  H32  1  0.96481965  0.22119463  0.69502376  1  0.610651  0  0.349074  0.384726  0  0.842524  0
H  H33  1  0.03524561  0.77875063  0.30497474  1  0.611378  0  0.348977  0.384573  0  0.842051  0
H  H34  1  0.96784368  0.83686483  0.62232897  1  0.078314  0  0.107418  0.107665  0  0.976752  0
H  H35  1  0.90687574  0.76899312  0.65687737  1  0.059409  0  0.103032  0.100308  0  0.979853  0
H  H36  1  0.01840957  0.76953412  0.66062386  1  0.106904  0  0.114588  0.121081  0  0.965834  0
H  H37  1  0.09305113  0.23103643  0.34310908  1  0.049382  0  0.102959  0.100136  0  0.979801  0
H  H38  1  0.03211060  0.16315668  0.37766458  1  0.077992  0  0.107374  0.107439  0  0.976907  0
H  H39  1  0.98151229  0.23047004  0.33937207  1  0.107403  0  0.114515  0.121038  0  0.96597  0
C  C40  1  0.61795282  0.00777261  0.44071017  1  1.643875  0  0.225  0.676118  0  4.223421  0
C  C41  1  0.38196911  0.99068746  0.55921842  1  1.649686  0  0.225409  0.67594  0  4.222786  0
C  C42  1  0.93222742  0.14084876  0.84759960  1  -0.047564  0  -0.078733  -0.114041  0  3.952046  0
C  C43  1  0.06805962  0.85925643  0.15243416  1  -0.046463  0  -0.078662  -0.113772  0  3.950924  0
C  C44  1  0.06810749  0.11506538  0.79055472  1  -0.037295  0  -0.091672  -0.122716  0  4.004207  0
C  C45  1  0.93206262  0.88484753  0.20940524  1  -0.030864  0  -0.091939  -0.12328  0  4.003996  0
C  C46  1  0.07259609  0.17548079  0.82374673  1  0.02122  0  -0.077485  -0.110139  0  3.938183  0
C  C47  1  0.92770620  0.82441102  0.17621176  1  -0.001358  0  -0.077259  -0.109434  0  3.937701  0
C  C48  1  0.92241590  0.86703441  0.78699757  1  -0.024554  0  -0.093146  -0.132856  0  4.011724  0
C  C49  1  0.07747922  0.13301308  0.21297057  1  -0.022953  0  -0.09317  -0.133071  0  4.012013  0
C  C50  1  0.92050557  0.80334838  0.81770332  1  -0.071261  0  -0.077611  -0.109067  0  3.946741  0
C  C51  1  0.07926169  0.19675559  0.18228339  1  -0.074071  0  -0.077783  -0.10963  0  3.94684  0
C  C52  1  0.07429111  0.05430436  0.68449083  1  -0.026907  0  -0.009343  -0.073091  0  3.929183  0
C  C53  1  0.92575298  0.94562848  0.31549610  1  -0.028276  0  -0.009599  -0.070429  0  3.925073  0
C  C54  1  0.13940666  0.05029534  0.65333084  1  -0.011353  0  -0.068891  -0.128489  0  3.895453  0
C  C55  1  0.86062378  0.94957240  0.34664649  1  0.005985  0  -0.06907  -0.128334  0  3.896306  0
C  C56  1  0.90547254  0.93049908  0.68952051  1  0.470088  0  0.086593  0.21116  0  4.04225  0
C  C57  1  0.09449294  0.06954661  0.31048075  1  0.46843  0  0.086095  0.210837  0  4.041894  0
C  C58  1  0.84002728  0.93155206  0.65954265  1  0.023082  0  -0.09734  -0.251135  0  3.93314  0
C  C59  1  0.15995130  0.06856736  0.34044438  1  0.023708  0  -0.097691  -0.251929  0  3.933949  0
C  C60  1  0.99263362  0.99431103  0.75147949  1  0.065402  0  0.018475  0.014429  0  3.75378  0
C  C61  1  0.00738173  0.00568136  0.24852684  1  0.065651  0  0.018381  0.01444  0  3.753445  0
C  C62  1  0.60731759  0.99691581  0.56356013  1  1.638229  0  0.224538  0.676579  0  4.226098  0
C  C63  1  0.39264794  0.00462865  0.43647340  1  1.644692  0  0.22459  0.676972  0  4.222961  0
C  C64  1  0.06810992  0.99510228  0.71870298  1  0.011408  0  0.009465  0.056156  0  3.861594  0
C  C65  1  0.93189799  0.00485104  0.28129288  1  0.011024  0  0.009491  0.055635  0  3.861298  0
C  C66  1  0.20048264  0.98807431  0.65461732  1  0.072472  0  0.000404  0.128133  0  4.131631  0
C  C67  1  0.79948048  0.01172836  0.34536032  1  0.057077  0  0.00094  0.124643  0  4.137189  0
C  C68  1  0.91497105  0.99485602  0.72172442  1  -0.056916  0  -0.01344  -0.046078  0  3.900319  0
C  C69  1  0.08503804  0.00516676  0.27828809  1  -0.056689  0  -0.013566  -0.046453  0  3.900547  0
C  C70  1  0.78224746  0.99729038  0.66025814  1  0.097258  0  0.002352  0.152968  0  4.133576  0
C  C71  1  0.21781025  0.00289287  0.33973615  1  0.095499  0  0.002274  0.153258  0  4.133891  0
C  C72  1  0.99194722  0.91886979  0.78280904  1  -0.03181  0  0.002737  0.077973  0  3.892708  0
C  C73  1  0.00801204  0.08111145  0.21719254  1  -0.029621  0  0.002575  0.077653  0  3.892232  0
C  C74  1  0.98925504  0.78896901  0.84514363  1  0.126508  0  -0.002232  0.117739  0  4.129226  0
C  C75  1  0.01042167  0.21111775  0.15489915  1  0.133597  0  -0.001658  0.11846  0  4.129337  0
C  C76  1  0.99619743  0.06706833  0.78509464  1  -0.012028  0  1.7e-05  0.07587  0  3.900701  0
C  C77  1  0.00390397  0.93293147  0.21490598  1  -0.01424  0  0.000607  0.076646  0  3.899967  0
C  C78  1  0.00419185  0.19024437  0.85240240  1  0.032271  0  -0.001906  0.1184  0  4.13235  0
C  C79  1  0.99619379  0.80972377  0.14760916  1  0.054375  0  -0.002038  0.118142  0  4.132836  0
C  C80  1  0.71887897  0.99868499  0.62793187  1  -0.463333  0  -0.015299  -0.017757  0  4.059672  0
C  C81  1  0.28123606  0.00183908  0.37203692  1  -0.461663  0  -0.015353  -0.017703  0  4.060012  0
C  C82  1  0.66655662  0.99804465  0.59895780  1  0.17925  0  -0.046894  -0.191212  0  3.95573  0
C  C83  1  0.33350512  0.00315757  0.40104074  1  0.173347  0  -0.046661  -0.191343  0  3.956013  0
C  C84  1  0.12856257  0.93220924  0.71866799  1  -0.001676  0  -0.088506  -0.126498  0  4.013544  0
C  C85  1  0.87141038  0.06770881  0.28134741  1  0.001052  0  -0.088388  -0.126885  0  4.014003  0
C  C86  1  0.26485570  0.98607474  0.62210942  1  -0.435505  0  -0.018535  -0.029099  0  4.077346  0
C  C87  1  0.73504465  0.01343098  0.37783498  1  -0.429959  0  -0.018368  -0.026581  0  4.076821  0
C  C88  1  0.31875976  0.98694941  0.59335107  1  0.15623  0  -0.043237  -0.183566  0  3.957509  0
C  C89  1  0.68116076  0.01187576  0.40658960  1  0.148743  0  -0.043648  -0.185055  0  3.956369  0
C  C90  1  0.98907448  0.72312845  0.87571546  1  -0.334143  0  -0.021022  -0.030476  0  4.094389  0
C  C91  1  0.01006029  0.27706209  0.12438678  1  -0.316776  0  -0.02156  -0.031039  0  4.094122  0
C  C92  1  0.99067549  0.66661362  0.90212064  1  0.066405  0  -0.047587  -0.19139  0  3.975363  0
C  C93  1  0.00726609  0.33352762  0.09798782  1  0.04534  0  -0.047779  -0.191301  0  3.973576  0
C  C94  1  0.00686946  0.25349377  0.88526418  1  -0.489368  0  -0.020999  -0.03016  0  4.095182  0
C  C95  1  0.99398617  0.74640740  0.11477804  1  -0.492753  0  -0.020798  -0.030196  0  4.095249  0
C  C96  1  0.00745750  0.30861254  0.91322940  1  0.241894  0  -0.048443  -0.192892  0  3.97624  0
C  C97  1  0.99444795  0.69127413  0.08681029  1  0.244435  0  -0.048574  -0.192577  0  3.976398  0
C  C98  1  0.00594294  0.37533281  0.94515959  1  1.613533  0  0.223594  0.676096  0  4.227772  0
C  C99  1  0.99659725  0.62467940  0.05482482  1  1.623645  0  0.222499  0.674272  0  4.226643  0
C  C100  1  0.99361207  0.60317661  0.93505219  1  1.615524  0  0.222887  0.675418  0  4.226884  0
C  C101  1  0.00374863  0.39689525  0.06501577  1  1.628976  0  0.221964  0.674604  0  4.227062  0
C  C102  1  0.19348643  0.92805234  0.68785630  1  -0.013639  0  -0.075795  -0.111601  0  3.944634  0
C  C103  1  0.80645665  0.07180123  0.31214794  1  -0.015172  0  -0.075907  -0.110292  0  3.9457  0
C  C104  1  0.85554922  0.05831988  0.72220893  1  -0.040629  0  -0.096149  -0.12297  0  4.05033  0
C  C105  1  0.14448409  0.94171846  0.27783537  1  -0.043603  0  -0.095735  -0.122343  0  4.050882  0
C  C106  1  0.79023139  0.06074748  0.69220294  1  0.038348  0  -0.091381  -0.138968  0  3.964371  0
C  C107  1  0.20983745  0.93937388  0.30783039  1  0.042753  0  -0.091508  -0.139557  0  3.965056  0
C  C108  1  0.05893695  0.90661526  0.81172460  1  -0.036228  0  -0.089642  -0.130271  0  4.001108  0
C  C109  1  0.94099175  0.09329225  0.18828931  1  -0.035728  0  -0.089035  -0.129011  0  4.000295  0
C  C110  1  0.05866049  0.84232875  0.84185436  1  -0.058183  0  -0.077483  -0.111008  0  3.942227  0
C  C111  1  0.94113535  0.15759930  0.15818290  1  -0.061792  0  -0.078151  -0.11241  0  3.943792  0
C  C112  1  0.92931667  0.07967377  0.81494011  1  -0.008967  0  -0.088752  -0.128391  0  4.00256  0
C  C113  1  0.07085069  0.92043331  0.18508997  1  -0.011191  0  -0.089312  -0.128896  0  4.002698  0
C  C114  1  0.01275255  0.12148553  0.67417391  1  1.534514  0  0.231625  0.578703  0  4.129466  0
C  C115  1  0.98730525  0.87846404  0.32581371  1  1.532516  0  0.231615  0.578426  0  4.128543  0
C  C116  1  0.96320700  0.80787106  0.65511981  1  0.343128  0  -0.127155  -0.168566  0  3.90751  0
C  C117  1  0.03672359  0.19215479  0.34487422  1  0.352707  0  -0.126969  -0.168065  0  3.907337  0
O  O118  1  0.59672549  0.93512489  0.45311069  1  -1.119462  0  -0.311565  -0.543746  0  2.217489  0
O  O119  1  0.40331319  0.06326499  0.54676316  1  -1.124228  0  -0.311467  -0.544918  0  2.221918  0
O  O120  1  0.57981129  0.06717661  0.55084466  1  -1.132124  0  -0.312861  -0.550082  0  2.226491  0
O  O121  1  0.42022444  0.93445726  0.44926463  1  -1.131162  0  -0.313373  -0.551989  0  2.228174  0
O  O122  1  0.58768392  0.92564304  0.54774595  1  -1.122865  0  -0.312745  -0.543209  0  2.21632  0
O  O123  1  0.41216011  0.07598379  0.45225222  1  -1.126914  0  -0.312613  -0.541708  0  2.211528  0
O  O124  1  0.58887653  0.07668785  0.45554065  1  -1.125735  0  -0.311821  -0.545945  0  2.220761  0
O  O125  1  0.41096051  0.92168805  0.54443232  1  -1.129611  0  -0.312178  -0.544656  0  2.214997  0
O  O126  1  0.07638373  0.40518020  0.95695911  1  -1.120429  0  -0.314099  -0.546065  0  2.217668  0
O  O127  1  0.92632258  0.59465388  0.04293985  1  -1.124236  0  -0.314112  -0.547525  0  2.223946  0
O  O128  1  0.92366996  0.57484342  0.94901462  1  -1.126578  0  -0.314461  -0.547029  0  2.217111  0
O  O129  1  0.07355306  0.42541738  0.05099547  1  -1.126134  0  -0.313298  -0.548027  0  2.225616  0
O  O130  1  0.06619724  0.58131167  0.94773203  1  -1.122683  0  -0.313805  -0.547874  0  2.22563  0
O  O131  1  0.93105264  0.41840566  0.05231984  1  -1.132276  0  -0.313523  -0.545684  0  2.217477  0
O  O132  1  0.93382731  0.39910503  0.95880915  1  -1.123606  0  -0.31442  -0.548874  0  2.227697  0
O  O133  1  0.06886911  0.60119733  0.04122787  1  -1.128421  0  -0.313664  -0.54601  0  2.218954  0
O  O134  1  0.97843379  0.12659156  0.63841550  1  -1.117547  0  -0.290631  -0.480093  0  2.055611  0
O  O135  1  0.00401508  0.18031739  0.70662773  1  -1.128024  0  -0.32728  -0.476017  0  2.262968  0
O  O136  1  0.02162650  0.87335988  0.36157444  1  -1.117306  0  -0.290765  -0.480565  0  2.055435  0
O  O137  1  0.99606017  0.81963157  0.29336543  1  -1.128281  0  -0.327123  -0.476028  0  2.262907  0
O  O138  1  0.96360852  0.86898888  0.68980665  1  -1.101919  0  -0.175002  -0.151334  0  2.644943  0
O  O139  1  0.03632144  0.13102706  0.31018997  1  -1.101361  0  -0.174395  -0.150766  0  2.644029  0
