# generated using pymatgen
data_Cu3H22C16S2I3N2
_symmetry_space_group_name_H-M   'P 1'
_cell_length_a   8.76924305
_cell_length_b   9.77721762
_cell_length_c   13.82633515
_cell_angle_alpha   95.67918050
_cell_angle_beta   90.00028133
_cell_angle_gamma   89.99996042
_symmetry_Int_Tables_number   1
_chemical_formula_structural   Cu3H22C16S2I3N2
_chemical_formula_sum   'Cu6 H44 C32 S4 I6 N4'
_cell_volume   1179.63466460
_cell_formula_units_Z   2
loop_
 _symmetry_equiv_pos_site_id
 _symmetry_equiv_pos_as_xyz
  1  'x, y, z'
loop_
 _atom_site_type_symbol
 _atom_site_label
 _atom_site_symmetry_multiplicity
 _atom_site_fract_x
 _atom_site_fract_y
 _atom_site_fract_z
 _atom_site_occupancy
 _atom_site_hle17_bader_spin_density
 _atom_site_hle17_ddec_charge
 _atom_site_hle17_ddec_spin_density
 _atom_site_hle17_ddec_sum_bond_order
 _atom_site_hle17_magmom
 _atom_site_hse06_10hf_bader_spin_density
 _atom_site_hse06_10hf_ddec_charge
 _atom_site_hse06_10hf_ddec_spin_density
 _atom_site_hse06_10hf_ddec_sum_bond_order
 _atom_site_hse06_10hf_magmom
 _atom_site_hse06_bader_spin_density
 _atom_site_hse06_ddec_charge
 _atom_site_hse06_ddec_spin_density
 _atom_site_hse06_ddec_sum_bond_order
 _atom_site_hse06_magmom
 _atom_site_pbe_bader_spin_density
 _atom_site_pbe_cm5_charge
 _atom_site_pbe_ddec_charge
 _atom_site_pbe_ddec_spin_density
 _atom_site_pbe_ddec_sum_bond_order
 _atom_site_pbe_magmom
Cu  Cu0  1  0.21777877  0.56582878  0.79628160  1  0  0.314836  0  2.064311  0  0  0.224197  0  2.547278  0  0  0.238791  0  2.493904  0  0  0.293307  0.214909  0  2.584186  0
Cu  Cu1  1  0.21778511  0.93417152  0.70371843  1  0  0.314876  0  2.064274  0  0  0.224244  0  2.54723  0  0  0.238824  0  2.493846  0  0  0.293322  0.214937  0  2.584174  0
Cu  Cu2  1  0.78221522  0.43417135  0.20371929  1  0  0.314883  0  2.06429  0  0  0.224215  0  2.547222  0  0  0.238827  0  2.493861  0  0  0.293305  0.214932  0  2.584165  0
Cu  Cu3  1  0.78221230  0.06582553  0.29628080  1  0  0.314889  0  2.064339  0  0  0.224263  0  2.547309  0  0  0.238834  0  2.493922  0  0  0.293314  0.214934  0  2.584228  0
Cu  Cu4  1  0.21823485  0.25000000  0.75000022  1  0  0.151433  0  2.288906  0  0  0.080803  0  2.766652  0  0  0.086608  0  2.720444  0  0  0.245612  0.078559  0  2.797433  0
Cu  Cu5  1  0.78176028  0.75000014  0.25000139  1  0  0.151413  0  2.288911  0  0  0.080786  0  2.766658  0  0  0.08658  0  2.720455  0  0  0.245585  0.078542  0  2.797399  0
H  H6  1  0.43888161  0.84864482  0.36503606  1  0  0.103936  0  0.984085  0  0  0.108724  0  1.057171  0  0  0.112468  0  1.055914  0  0  0.088969  0.105738  0  1.058661  0
H  H7  1  0.43888536  0.65135450  0.13496124  1  0  0.103907  0  0.984127  0  0  0.108697  0  1.057218  0  0  0.112443  0  1.055955  0  0  0.088952  0.105711  0  1.058707  0
H  H8  1  0.56111923  0.15135737  0.63496353  1  0  0.103995  0  0.984131  0  0  0.108789  0  1.057193  0  0  0.112537  0  1.055922  0  0  0.08899  0.105805  0  1.058687  0
H  H9  1  0.56111775  0.34864462  0.86503596  1  0  0.103999  0  0.984081  0  0  0.108772  0  1.05718  0  0  0.11252  0  1.055911  0  0  0.088987  0.105788  0  1.058672  0
H  H10  1  0.32936140  0.06146659  0.30712879  1  0  0.090403  0  0.945101  0  0  0.102515  0  1.001713  0  0  0.105703  0  0.99901  0  0  0.098917  0.100017  0  1.003981  0
H  H11  1  0.32936081  0.43853860  0.19287263  1  0  0.090428  0  0.945156  0  0  0.10254  0  1.001753  0  0  0.105721  0  0.999066  0  0  0.098944  0.100048  0  1.004003  0
H  H12  1  0.67063944  0.93853766  0.69287312  1  0  0.09045  0  0.945134  0  0  0.102562  0  1.001733  0  0  0.105741  0  0.999054  0  0  0.098954  0.100072  0  1.003983  0
H  H13  1  0.67063888  0.56146564  0.80712783  1  0  0.090421  0  0.945142  0  0  0.102533  0  1.001751  0  0  0.10572  0  0.99905  0  0  0.098933  0.100043  0  1.004002  0
H  H14  1  0.16439542  0.21415609  0.41845636  1  0  0.105683  0  0.989548  0  0  0.11517  0  1.054243  0  0  0.118756  0  1.05292  0  0  0.093581  0.112555  0  1.055203  0
H  H15  1  0.16439182  0.28584502  0.08154786  1  0  0.105641  0  0.989627  0  0  0.115157  0  1.054294  0  0  0.118746  0  1.052967  0  0  0.093576  0.112543  0  1.055251  0
H  H16  1  0.83560541  0.78584405  0.58154597  1  0  0.105682  0  0.989569  0  0  0.115171  0  1.054258  0  0  0.118758  0  1.052935  0  0  0.093577  0.112557  0  1.055219  0
H  H17  1  0.83560331  0.71415820  0.91845614  1  0  0.105644  0  0.989608  0  0  0.115139  0  1.0543  0  0  0.118724  0  1.05298  0  0  0.093568  0.112526  0  1.055259  0
H  H18  1  0.44489681  0.78544694  0.61918666  1  0  0.113262  0  0.959106  0  0  0.13204  0  1.027571  0  0  0.135044  0  1.024277  0  0  0.084617  0.129092  0  1.031302  0
H  H19  1  0.44490012  0.71454614  0.88080924  1  0  0.113265  0  0.959031  0  0  0.132019  0  1.027523  0  0  0.135022  0  1.024229  0  0  0.084622  0.129071  0  1.03125  0
H  H20  1  0.55510402  0.21455320  0.38081206  1  0  0.113263  0  0.959085  0  0  0.132033  0  1.027565  0  0  0.135036  0  1.02427  0  0  0.084615  0.129086  0  1.031291  0
H  H21  1  0.55510527  0.28544784  0.11918616  1  0  0.113252  0  0.959178  0  0  0.132029  0  1.027636  0  0  0.135029  0  1.024347  0  0  0.084611  0.129083  0  1.031362  0
H  H22  1  0.48053571  0.70613182  0.49927930  1  0  0.122131  0  0.979845  0  0  0.142999  0  1.03893  0  0  0.144752  0  1.039598  0  0  0.0775  0.141673  0  1.038346  0
H  H23  1  0.48054175  0.79386235  0.00071849  1  0  0.122121  0  0.979791  0  0  0.142996  0  1.038851  0  0  0.144747  0  1.039521  0  0  0.077476  0.141636  0  1.038302  0
H  H24  1  0.51946626  0.29387037  0.50072029  1  0  0.122147  0  0.979811  0  0  0.143013  0  1.038893  0  0  0.144765  0  1.039563  0  0  0.077511  0.141684  0  1.038315  0
H  H25  1  0.51946592  0.20613163  0.99927763  1  0  0.12213  0  0.979844  0  0  0.142993  0  1.038933  0  0  0.144745  0  1.039602  0  0  0.077496  0.141659  0  1.038355  0
H  H26  1  0.30185690  0.68564772  0.55734674  1  0  0.115597  0  0.967897  0  0  0.135529  0  1.034468  0  0  0.137436  0  1.033905  0  0  0.083289  0.133955  0  1.03495  0
H  H27  1  0.30186061  0.81435052  0.94265052  1  0  0.115565  0  0.967961  0  0  0.135483  0  1.034529  0  0  0.137389  0  1.033966  0  0  0.083294  0.133911  0  1.035005  0
H  H28  1  0.69814508  0.31435345  0.44265133  1  0  0.115662  0  0.967911  0  0  0.1356  0  1.034462  0  0  0.137507  0  1.033899  0  0  0.083331  0.134023  0  1.034942  0
H  H29  1  0.69814593  0.18564859  0.05734741  1  0  0.115611  0  0.967972  0  0  0.135536  0  1.034538  0  0  0.137442  0  1.033975  0  0  0.08331  0.133959  0  1.035019  0
H  H30  1  0.09764895  0.38250065  0.55314706  1  0  0.083108  0  0.955497  0  0  0.09704  0  1.019462  0  0  0.098735  0  1.019164  0  0  0.085934  0.095942  0  1.0193  0
H  H31  1  0.09764714  0.11749422  0.94685409  1  0  0.08308  0  0.955479  0  0  0.09699  0  1.019479  0  0  0.098681  0  1.019179  0  0  0.085928  0.095893  0  1.019317  0
H  H32  1  0.90235074  0.61749640  0.44685361  1  0  0.08308  0  0.955502  0  0  0.097003  0  1.019489  0  0  0.098699  0  1.019192  0  0  0.085934  0.095904  0  1.019326  0
H  H33  1  0.90235255  0.88250693  0.05314904  1  0  0.08308  0  0.955477  0  0  0.096996  0  1.019476  0  0  0.098686  0  1.019175  0  0  0.085932  0.095896  0  1.019316  0
H  H34  1  0.95051484  0.27842252  0.49266092  1  0  0.087805  0  0.953786  0  0  0.10167  0  1.018193  0  0  0.10268  0  1.01901  0  0  0.091793  0.100763  0  1.017779  0
H  H35  1  0.95051756  0.22157023  0.00733868  1  0  0.087821  0  0.953756  0  0  0.10166  0  1.018182  0  0  0.102668  0  1.018997  0  0  0.091803  0.100752  0  1.017768  0
H  H36  1  0.04948257  0.72157351  0.50733896  1  0  0.087836  0  0.953738  0  0  0.101677  0  1.01816  0  0  0.102688  0  1.018977  0  0  0.091814  0.100772  0  1.017749  0
H  H37  1  0.04947985  0.77842888  0.99266142  1  0  0.087823  0  0.953722  0  0  0.101672  0  1.018146  0  0  0.102681  0  1.018961  0  0  0.091808  0.100766  0  1.017734  0
H  H38  1  0.92881928  0.43554608  0.69819785  1  0  0.089127  0  0.995435  0  0  0.102025  0  1.075251  0  0  0.104095  0  1.074153  0  0  0.070411  0.100278  0  1.076593  0
H  H39  1  0.92881868  0.06445276  0.80180041  1  0  0.08913  0  0.995411  0  0  0.102004  0  1.075243  0  0  0.104073  0  1.074143  0  0  0.070404  0.10026  0  1.076587  0
H  H40  1  0.07117927  0.56445406  0.30180087  1  0  0.089136  0  0.995437  0  0  0.102026  0  1.075254  0  0  0.104093  0  1.074156  0  0  0.070407  0.100277  0  1.076594  0
H  H41  1  0.07118215  0.93554840  0.19820128  1  0  0.089161  0  0.995436  0  0  0.102061  0  1.075238  0  0  0.104132  0  1.074138  0  0  0.070422  0.100314  0  1.076575  0
H  H42  1  0.78308362  0.32683973  0.64352613  1  0  0.103164  0  0.961504  0  0  0.12351  0  1.022866  0  0  0.124385  0  1.024587  0  0  0.081995  0.123092  0  1.021523  0
H  H43  1  0.78308563  0.17315707  0.85647442  1  0  0.103186  0  0.961466  0  0  0.123533  0  1.022809  0  0  0.124408  0  1.024529  0  0  0.082  0.123114  0  1.021467  0
H  H44  1  0.21691379  0.67315835  0.35647462  1  0  0.103165  0  0.961423  0  0  0.123511  0  1.022782  0  0  0.124386  0  1.024501  0  0  0.081986  0.123091  0  1.02144  0
H  H45  1  0.21691520  0.82684306  0.14352647  1  0  0.103194  0  0.961467  0  0  0.123523  0  1.022832  0  0  0.124396  0  1.024555  0  0  0.082001  0.123103  0  1.02149  0
H  H46  1  0.83405812  0.48025097  0.59268855  1  0  0.109232  0  0.937969  0  0  0.131794  0  0.994958  0  0  0.133506  0  0.994716  0  0  0.088043  0.130524  0  0.995161  0
H  H47  1  0.83405608  0.01974377  0.90731056  1  0  0.109237  0  0.93794  0  0  0.131773  0  0.994956  0  0  0.133488  0  0.994711  0  0  0.088026  0.130505  0  0.99516  0
H  H48  1  0.16594157  0.51974814  0.40731082  1  0  0.109242  0  0.937969  0  0  0.131781  0  0.994985  0  0  0.133494  0  0.994742  0  0  0.088033  0.130512  0  0.995191  0
H  H49  1  0.16594361  0.98025431  0.09269018  1  0  0.109244  0  0.937959  0  0  0.13177  0  0.994992  0  0  0.133482  0  0.99475  0  0  0.088019  0.130501  0  0.995196  0
C  C50  1  0.18424483  0.08198838  0.53488570  1  0  0.197801  0  3.754446  0  0  0.195024  0  4.022136  0  0  0.204986  0  4.040571  0  0  0.105909  0.188065  0  4.009879  0
C  C51  1  0.18424294  0.41800852  0.96511731  1  0  0.197673  0  3.754462  0  0  0.194965  0  4.0221  0  0  0.204919  0  4.040557  0  0  0.10588  0.188006  0  4.009835  0
C  C52  1  0.81575600  0.91801175  0.46511591  1  0  0.197768  0  3.754426  0  0  0.195017  0  4.022083  0  0  0.204987  0  4.04051  0  0  0.105908  0.188055  0  4.009828  0
C  C53  1  0.81575789  0.58199058  0.03488568  1  0  0.197771  0  3.754699  0  0  0.195011  0  4.022367  0  0  0.204985  0  4.040797  0  0  0.10592  0.188048  0  4.010109  0
C  C54  1  0.33457553  0.88415872  0.50656434  1  0  0.324584  0  3.692667  0  0  0.333451  0  3.93  0  0  0.343815  0  3.949028  0  0  0.117122  0.326457  0  3.917115  0
C  C55  1  0.33457864  0.61583745  0.99343432  1  0  0.324544  0  3.692475  0  0  0.333336  0  3.929948  0  0  0.343703  0  3.94898  0  0  0.1171  0.326344  0  3.917051  0
C  C56  1  0.66542530  0.11584038  0.49343648  1  0  0.324718  0  3.692524  0  0  0.333552  0  3.929898  0  0  0.34392  0  3.948924  0  0  0.117148  0.326563  0  3.917012  0
C  C57  1  0.66542447  0.38416166  0.00656433  1  0  0.32469  0  3.692495  0  0  0.333535  0  3.929849  0  0  0.343904  0  3.948878  0  0  0.11714  0.326545  0  3.916957  0
C  C58  1  0.36590853  0.91619471  0.41237733  1  0  -0.179471  0  3.693942  0  0  -0.197125  0  3.939329  0  0  -0.205437  0  3.959071  0  0  -0.096553  -0.19167  0  3.926459  0
C  C59  1  0.36591083  0.58380359  0.08762111  1  0  -0.179459  0  3.693906  0  0  -0.197077  0  3.9393  0  0  -0.205384  0  3.959036  0  0  -0.096539  -0.191623  0  3.926427  0
C  C60  1  0.63409344  0.08381056  0.58762465  1  0  -0.17965  0  3.693918  0  0  -0.197286  0  3.939285  0  0  -0.205594  0  3.959023  0  0  -0.0966  -0.191835  0  3.926428  0
C  C61  1  0.63409228  0.41619347  0.91237594  1  0  -0.179598  0  3.693781  0  0  -0.197243  0  3.939199  0  0  -0.205551  0  3.958936  0  0  -0.096582  -0.191796  0  3.926335  0
C  C62  1  0.30494225  0.03547020  0.38046570  1  0  0.014056  0  3.742781  0  0  -0.003162  0  3.994232  0  0  0.003894  0  4.009132  0  0  -0.07334  -0.007892  0  3.9842  0
C  C63  1  0.30494108  0.46452986  0.11953601  1  0  0.014028  0  3.742611  0  0  -0.003184  0  3.994075  0  0  0.00387  0  4.008974  0  0  -0.073347  -0.007918  0  3.984057  0
C  C64  1  0.69506200  0.96453508  0.61953773  1  0  0.014057  0  3.7426  0  0  -0.003161  0  3.994068  0  0  0.003892  0  4.008967  0  0  -0.073365  -0.007893  0  3.984053  0
C  C65  1  0.69505975  0.53547130  0.88046423  1  0  0.014046  0  3.742573  0  0  -0.003158  0  3.994017  0  0  0.003896  0  4.008919  0  0  -0.073343  -0.007895  0  3.984001  0
C  C66  1  0.21345565  0.12125994  0.44252360  1  0  -0.165192  0  3.740599  0  0  -0.187701  0  3.994484  0  0  -0.196304  0  4.01543  0  0  -0.099194  -0.181638  0  3.979959  0
C  C67  1  0.21345522  0.37873602  0.05747681  1  0  -0.165044  0  3.740564  0  0  -0.187578  0  3.994391  0  0  -0.196177  0  4.015335  0  0  -0.099149  -0.181517  0  3.979863  0
C  C68  1  0.78654518  0.87873916  0.55747795  1  0  -0.16516  0  3.740446  0  0  -0.187676  0  3.994316  0  0  -0.19628  0  4.015258  0  0  -0.09917  -0.181613  0  3.979794  0
C  C69  1  0.78654333  0.62126514  0.94252416  1  0  -0.165149  0  3.740591  0  0  -0.187661  0  3.994453  0  0  -0.196266  0  4.015396  0  0  -0.099206  -0.1816  0  3.979927  0
C  C70  1  0.39448968  0.75870990  0.54692040  1  0  -0.384653  0  3.721483  0  0  -0.465204  0  3.949001  0  0  -0.469536  0  3.955553  0  0  -0.253395  -0.461798  0  3.944654  0
C  C71  1  0.39449467  0.74128833  0.95307498  1  0  -0.384575  0  3.721189  0  0  -0.465065  0  3.948767  0  0  -0.469397  0  3.955318  0  0  -0.253367  -0.461638  0  3.944449  0
C  C72  1  0.60551229  0.24129024  0.45307905  1  0  -0.384751  0  3.721422  0  0  -0.46529  0  3.948955  0  0  -0.469623  0  3.955506  0  0  -0.253451  -0.461882  0  3.94461  0
C  C73  1  0.60551301  0.25871182  0.04692085  1  0  -0.384677  0  3.721553  0  0  -0.465203  0  3.949082  0  0  -0.469536  0  3.955639  0  0  -0.253409  -0.461797  0  3.944736  0
C  C74  1  0.99794337  0.31738127  0.56367296  1  0  -0.087736  0  3.61818  0  0  -0.11682  0  3.873928  0  0  -0.116931  0  3.885882  0  0  -0.151129  -0.116568  0  3.865617  0
C  C75  1  0.99794371  0.18261241  0.93632732  1  0  -0.087668  0  3.618108  0  0  -0.116684  0  3.873775  0  0  -0.116787  0  3.885725  0  0  -0.15114  -0.116437  0  3.865466  0
C  C76  1  0.00205519  0.68261475  0.43632692  1  0  -0.087653  0  3.618112  0  0  -0.116716  0  3.873879  0  0  -0.116833  0  3.88584  0  0  -0.151144  -0.11647  0  3.86557  0
C  C77  1  0.00205713  0.81738773  0.06367430  1  0  -0.087619  0  3.618008  0  0  -0.116671  0  3.87374  0  0  -0.116764  0  3.885665  0  0  -0.151133  -0.116424  0  3.86543  0
C  C78  1  0.87912489  0.39355723  0.62867211  1  0  -0.283507  0  3.703817  0  0  -0.354689  0  3.944435  0  0  -0.35788  0  3.955306  0  0  -0.254829  -0.352504  0  3.937029  0
C  C79  1  0.87912593  0.10643955  0.87132874  1  0  -0.283572  0  3.703778  0  0  -0.354715  0  3.944389  0  0  -0.357906  0  3.955249  0  0  -0.25482  -0.35253  0  3.936982  0
C  C80  1  0.12087138  0.60644085  0.37132864  1  0  -0.283584  0  3.703841  0  0  -0.354738  0  3.944462  0  0  -0.357922  0  3.955331  0  0  -0.25483  -0.352551  0  3.937057  0
C  C81  1  0.12087376  0.89356058  0.12867360  1  0  -0.283632  0  3.70385  0  0  -0.354771  0  3.944446  0  0  -0.357963  0  3.955311  0  0  -0.254824  -0.352584  0  3.937038  0
S  S82  1  0.06316855  0.16896490  0.62238439  1  0  0.036237  0  2.838803  0  0  0.053635  0  3.25759  0  0  0.054977  0  3.242856  0  0  -0.007364  0.051746  0  3.268535  0
S  S83  1  0.06316947  0.33103306  0.87761470  1  0  0.036213  0  2.838799  0  0  0.053592  0  3.257537  0  0  0.054935  0  3.242801  0  0  -0.007372  0.051701  0  3.268472  0
S  S84  1  0.93682886  0.83103421  0.37761498  1  0  0.036218  0  2.838741  0  0  0.05361  0  3.257503  0  0  0.054958  0  3.242763  0  0  -0.007358  0.051727  0  3.268422  0
S  S85  1  0.93682908  0.66896913  0.12238561  1  0  0.036213  0  2.838813  0  0  0.053609  0  3.257572  0  0  0.054946  0  3.24283  0  0  -0.007357  0.05172  0  3.268496  0
I  I86  1  0.38881933  0.43461114  0.67391098  1  0  -0.401929  0  1.557984  0  0  -0.333608  0  1.965462  0  0  -0.353534  0  1.929549  0  0  -0.181762  -0.318151  0  1.989754  0
I  I87  1  0.38882690  0.06539191  0.82608443  1  0  -0.401941  0  1.55802  0  0  -0.333655  0  1.965549  0  0  -0.353572  0  1.929627  0  0  -0.181777  -0.318189  0  1.989849  0
I  I88  1  0.61117466  0.56538695  0.32608470  1  0  -0.40193  0  1.558019  0  0  -0.333631  0  1.965545  0  0  -0.353558  0  1.929638  0  0  -0.181776  -0.318186  0  1.989842  0
I  I89  1  0.61117279  0.93460926  0.17391509  1  0  -0.401916  0  1.558043  0  0  -0.333622  0  1.965582  0  0  -0.353533  0  1.929655  0  0  -0.18177  -0.318153  0  1.989851  0
I  I90  1  0.03643561  0.75000068  0.75000013  1  0  -0.419322  0  1.647729  0  0  -0.353583  0  2.107979  0  0  -0.373936  0  2.063867  0  0  -0.183293  -0.338587  0  2.138263  0
I  I91  1  0.96355838  0.24999432  0.24999533  1  0  -0.419333  0  1.64777  0  0  -0.353589  0  2.108026  0  0  -0.373945  0  2.063916  0  0  -0.183289  -0.338583  0  2.138274  0
N  N92  1  0.24447445  0.96716015  0.56664971  1  0  -0.374549  0  3.347131  0  0  -0.30463  0  3.627754  0  0  -0.320736  0  3.635489  0  0  -0.37496  -0.294559  0  3.6227  0
N  N93  1  0.24447260  0.53283707  0.93334874  1  0  -0.374491  0  3.346895  0  0  -0.304633  0  3.627618  0  0  -0.320751  0  3.635378  0  0  -0.37498  -0.294565  0  3.622563  0
N  N94  1  0.75552638  0.03283896  0.43335039  1  0  -0.374631  0  3.347178  0  0  -0.304692  0  3.627759  0  0  -0.320805  0  3.635497  0  0  -0.374985  -0.294616  0  3.622687  0
N  N95  1  0.75552595  0.46716410  0.06665005  1  0  -0.374603  0  3.34717  0  0  -0.304684  0  3.627785  0  0  -0.320813  0  3.635554  0  0  -0.374984  -0.294619  0  3.622734  0
