# generated using pymatgen
data_NiH14C14(NO3)2
_symmetry_space_group_name_H-M   'P 1'
_cell_length_a   8.86419696
_cell_length_b   9.77200259
_cell_length_c   10.72087922
_cell_angle_alpha   62.84824233
_cell_angle_beta   78.44097213
_cell_angle_gamma   63.97410791
_symmetry_Int_Tables_number   1
_chemical_formula_structural   NiH14C14(NO3)2
_chemical_formula_sum   'Ni2 H28 C28 N4 O12'
_cell_volume   742.52423380
_cell_formula_units_Z   2
loop_
 _symmetry_equiv_pos_site_id
 _symmetry_equiv_pos_as_xyz
  1  'x, y, z'
loop_
 _atom_site_type_symbol
 _atom_site_label
 _atom_site_symmetry_multiplicity
 _atom_site_fract_x
 _atom_site_fract_y
 _atom_site_fract_z
 _atom_site_occupancy
 _atom_site_hle17_ddec_charge
 _atom_site_hle17_ddec_spin_density
 _atom_site_hle17_ddec_sum_bond_order
 _atom_site_hle17_magmom
 _atom_site_hse06_10hf_ddec_charge
 _atom_site_hse06_10hf_ddec_spin_density
 _atom_site_hse06_10hf_ddec_sum_bond_order
 _atom_site_hse06_10hf_magmom
 _atom_site_hse06_ddec_charge
 _atom_site_hse06_ddec_spin_density
 _atom_site_hse06_ddec_sum_bond_order
 _atom_site_hse06_magmom
 _atom_site_pbe_cm5_charge
 _atom_site_pbe_ddec_charge
 _atom_site_pbe_ddec_spin_density
 _atom_site_pbe_ddec_sum_bond_order
 _atom_site_pbe_magmom
Ni  Ni0  1  0.74995305  0.70662867  0.58666923  1  0.882314  -1.795529  1.989749  -1.531  0.87352  -1.83229  2.379581  -1.639  0.955705  -1.882429  2.310586  -1.719  0.644908  0.810847  -1.785064  2.430674  -1.567
Ni  Ni1  1  0.25004847  0.29337106  0.41332742  1  0.882223  -1.795527  1.989759  -1.531  0.873454  -1.832295  2.379601  -1.639  0.955645  -1.882433  2.310602  -1.719  0.644896  0.810779  -1.78503  2.430729  -1.567
H  H2  1  0.07910337  0.59213757  0.51752418  1  0.422038  -0.000173  0.882362  0.0  0.395742  -0.00056  0.93938  -0.001  0.406816  -0.000322  0.923795  0.0  0.292375  0.387689  -0.000721  0.950668  -0.001
H  H3  1  0.42086996  0.89034392  0.51756056  1  0.421984  -0.000172  0.882456  0.0  0.395608  -0.000558  0.939605  -0.001  0.406689  -0.000321  0.924007  0.0  0.292352  0.387552  -0.00072  0.950897  -0.001
H  H4  1  0.92089286  0.40785768  0.48247581  1  0.422116  -0.000174  0.882286  0.0  0.395824  -0.00056  0.939291  -0.001  0.406898  -0.000322  0.923706  0.0  0.292418  0.387769  -0.000721  0.95058  -0.001
H  H5  1  0.57913474  0.10965840  0.48243720  1  0.421982  -0.000172  0.882459  0.0  0.395608  -0.000559  0.939603  -0.001  0.406688  -0.000321  0.924006  0.0  0.292366  0.387551  -0.00072  0.950897  -0.001
H  H6  1  0.02748520  0.69427015  0.61547505  1  0.406734  0.000577  0.901273  0.001  0.376672  -2.3e-05  0.969326  0.0  0.387926  0.000171  0.953278  0.0  0.289232  0.368678  -0.000168  0.980649  0.0
H  H7  1  0.47241888  0.69014345  0.61540895  1  0.406902  0.000577  0.901697  0.001  0.376694  -2.3e-05  0.969513  0.0  0.387966  0.00017  0.953434  0.0  0.28903  0.36869  -0.000168  0.980852  0.0
H  H8  1  0.97250889  0.30573344  0.38451907  1  0.406711  0.000576  0.901255  0.001  0.376644  -2.3e-05  0.969355  0.0  0.3879  0.000171  0.953303  0.0  0.28921  0.36865  -0.000168  0.980678  0.0
H  H9  1  0.52758418  0.30985616  0.38459281  1  0.406834  0.000577  0.901763  0.001  0.376638  -2.3e-05  0.969582  0.0  0.387901  0.00017  0.953519  0.0  0.28902  0.368636  -0.000168  0.980919  0.0
H  H10  1  0.61380171  0.69437178  0.35700287  1  0.082046  -0.000632  0.967433  -0.002  0.083387  -0.000489  1.042504  -0.001  0.085752  -0.000308  1.03994  -0.001  0.114407  0.081479  -0.000673  1.044645  -0.001
H  H11  1  0.88620934  0.94886743  0.35674271  1  0.082  -0.000632  0.967516  -0.002  0.083312  -0.00049  1.042649  -0.001  0.085673  -0.000308  1.040093  -0.001  0.114388  0.081417  -0.000674  1.044785  -0.001
H  H12  1  0.38619672  0.30562769  0.64299909  1  0.082018  -0.000633  0.967491  -0.002  0.083389  -0.000489  1.042526  -0.001  0.085763  -0.000308  1.039938  -0.001  0.114416  0.081483  -0.000673  1.044664  -0.001
H  H13  1  0.11379188  0.05113269  0.64325731  1  0.08201  -0.000635  0.967499  -0.002  0.083333  -0.00049  1.042615  -0.001  0.085693  -0.000309  1.04006  -0.001  0.114398  0.081437  -0.000674  1.044752  -0.001
H  H14  1  0.60475960  0.82235655  0.09747476  1  0.096207  -0.000304  0.97657  0.0  0.104963  -0.000351  1.039332  0.0  0.107217  -0.000261  1.040637  0.0  0.103192  0.103473  -0.000432  1.038447  0.0
H  H15  1  0.89550361  0.08023138  0.09719626  1  0.096458  -0.000305  0.977271  0.0  0.105102  -0.000351  1.040073  0.0  0.107347  -0.000261  1.041364  0.0  0.103195  0.10361  -0.000432  1.039193  0.0
H  H16  1  0.39523535  0.17764538  0.90252479  1  0.096235  -0.000304  0.976553  0.0  0.105001  -0.000351  1.039294  0.0  0.107251  -0.000261  1.04061  0.0  0.103212  0.10351  -0.000432  1.038408  0.0
H  H17  1  0.10449579  0.91976925  0.90280202  1  0.09643  -0.000305  0.977322  0.0  0.105076  -0.000351  1.040115  0.0  0.10732  -0.000261  1.04141  0.0  0.1032  0.103585  -0.000432  1.039235  0.0
H  H18  1  0.75019505  0.01949801  0.96087757  1  0.087087  -0.000178  0.948773  -0.001  0.097671  9.2e-05  1.010017  0.0  0.099809  8.7e-05  1.008658  0.0  0.103618  0.096121  8.8e-05  1.011103  0.0
H  H19  1  0.24980222  0.98050260  0.03912328  1  0.087054  -0.000178  0.948795  -0.001  0.097693  9.2e-05  1.009982  0.0  0.099831  8.7e-05  1.008624  0.0  0.103621  0.096144  8.8e-05  1.011072  0.0
H  H20  1  0.98375463  0.40978521  0.81221773  1  0.086994  -0.000661  0.963472  -0.002  0.092284  -0.000432  1.030901  -0.001  0.094215  -0.00027  1.029585  -0.001  0.112992  0.090773  -0.000581  1.032154  -0.001
H  H21  1  0.51609363  0.77793945  0.81219405  1  0.087368  -0.000661  0.963305  -0.002  0.092588  -0.000432  1.03078  -0.001  0.094422  -0.00027  1.029579  -0.001  0.113121  0.091147  -0.00058  1.031959  -0.001
H  H22  1  0.01625048  0.59021303  0.18777412  1  0.087083  -0.000662  0.96343  -0.002  0.092347  -0.000432  1.030877  -0.001  0.094257  -0.00027  1.029611  -0.001  0.113016  0.090839  -0.000581  1.032133  -0.001
H  H23  1  0.48391003  0.22206124  0.18779911  1  0.087398  -0.000661  0.963383  -0.002  0.092635  -0.000432  1.030818  -0.001  0.094472  -0.00027  1.0296  -0.001  0.113148  0.091196  -0.00058  1.031998  -0.001
H  H24  1  0.99633243  0.27340500  0.07633123  1  0.100302  -0.000219  0.962656  0.0  0.109089  -0.000313  1.023889  0.0  0.111525  -0.000215  1.024068  0.0  0.103425  0.107323  -0.000401  1.024021  -0.001
H  H25  1  0.50372687  0.65039385  0.07631138  1  0.100187  -0.000222  0.962586  0.0  0.108999  -0.000313  1.023827  0.0  0.111433  -0.000215  1.024013  0.0  0.103276  0.107234  -0.000401  1.023961  -0.001
H  H26  1  0.00367634  0.72659408  0.92366222  1  0.100316  -0.00022  0.962714  0.0  0.109084  -0.000313  1.02395  0.0  0.111525  -0.000215  1.024131  0.0  0.103421  0.10732  -0.000401  1.02408  -0.001
H  H27  1  0.49628026  0.34960625  0.92368232  1  0.100167  -0.00022  0.962546  0.0  0.108966  -0.000313  1.023802  0.0  0.111401  -0.000215  1.023987  0.0  0.103234  0.1072  -0.000401  1.023933  -0.001
H  H28  1  0.75009907  0.39508167  0.21006484  1  0.112697  -0.000397  0.936288  -0.001  0.124842  -0.000164  0.991346  0.0  0.128019  -9.1e-05  0.988092  0.0  0.112832  0.122383  -0.000235  0.993849  0.0
H  H29  1  0.24990920  0.60492009  0.78992717  1  0.112688  -0.000396  0.936318  -0.001  0.124839  -0.000164  0.991365  0.0  0.128014  -9.1e-05  0.988117  0.0  0.112851  0.122383  -0.000235  0.993866  0.0
C  C30  1  0.66451966  0.41677219  0.63227633  1  0.712144  0.004718  3.9582  0.004  0.659378  0.001244  4.258361  0.001  0.698381  0.001022  4.243145  0.001  0.223304  0.631898  0.000723  4.268459  0.001
C  C31  1  0.83536591  0.95079199  0.63230458  1  0.711031  0.004714  3.95871  0.004  0.65812  0.001239  4.258972  0.001  0.697127  0.001018  4.243779  0.001  0.222743  0.630632  0.000719  4.269059  0.001
C  C32  1  0.33547288  0.58322173  0.36773756  1  0.712194  0.004714  3.957993  0.004  0.659475  0.001245  4.258088  0.001  0.698484  0.001021  4.242869  0.001  0.22335  0.631999  0.000724  4.26819  0.001
C  C33  1  0.16462912  0.04921134  0.36770230  1  0.711097  0.00471  3.958906  0.004  0.658141  0.001239  4.259235  0.001  0.69715  0.001016  4.244042  0.001  0.222687  0.630655  0.000717  4.269328  0.001
C  C34  1  0.72467562  0.24744860  0.64267046  1  -0.143505  -0.003474  3.703116  -0.006  -0.142513  -0.003083  3.965333  -0.005  -0.144185  -0.002073  3.978968  -0.003  -0.032281  -0.140899  -0.004702  3.955672  -0.006
C  C35  1  0.77519222  0.10973382  0.64268267  1  -0.142357  -0.003484  3.702515  -0.006  -0.141372  -0.003083  3.964711  -0.005  -0.143044  -0.002082  3.978351  -0.003  -0.031763  -0.139763  -0.004707  3.955051  -0.006
C  C36  1  0.27531652  0.75254102  0.35735776  1  -0.143562  -0.003476  3.702815  -0.006  -0.142606  -0.003082  3.965049  -0.005  -0.144276  -0.00208  3.978679  -0.003  -0.032393  -0.140994  -0.004703  3.955392  -0.006
C  C37  1  0.22479460  0.89026342  0.35733672  1  -0.142353  -0.003481  3.702187  -0.006  -0.141338  -0.003084  3.964384  -0.005  -0.143012  -0.002079  3.978023  -0.003  -0.031685  -0.139725  -0.004706  3.954724  -0.006
C  C38  1  0.67322423  0.78202000  0.29631465  1  0.136438  0.017043  3.675099  0.011  0.10902  0.005029  3.93163  0.003  0.118348  0.005881  3.948376  0.004  0.050251  0.101831  0.005047  3.92137  0.003
C  C39  1  0.82689193  0.92177433  0.29617104  1  0.136358  0.017028  3.675563  0.011  0.108884  0.005019  3.932124  0.003  0.118205  0.005871  3.948874  0.004  0.050102  0.101676  0.005037  3.921884  0.003
C  C40  1  0.32677420  0.21798226  0.70368450  1  0.136411  0.017045  3.675092  0.011  0.108981  0.005028  3.931629  0.003  0.11831  0.005882  3.948382  0.004  0.05023  0.101794  0.005045  3.92137  0.003
C  C41  1  0.17311142  0.07822489  0.70382736  1  0.136335  0.017033  3.6756  0.011  0.108857  0.005017  3.932186  0.003  0.118179  0.005872  3.948937  0.004  0.050068  0.101651  0.005035  3.921949  0.003
C  C42  1  0.66912761  0.85380160  0.15038307  1  -0.123891  -0.009217  3.737358  -0.012  -0.132115  -0.002805  3.97946  -0.004  -0.140226  -0.002774  4.001078  -0.004  -0.086191  -0.126846  -0.003065  3.965426  -0.004
C  C43  1  0.83111982  0.99583466  0.15023245  1  -0.124633  -0.00922  3.738313  -0.012  -0.132761  -0.002808  3.980497  -0.004  -0.140849  -0.002776  4.002104  -0.004  -0.086128  -0.127495  -0.003068  3.966464  -0.004
C  C44  1  0.33087459  0.14619410  0.84961888  1  -0.123867  -0.009219  3.737307  -0.012  -0.132098  -0.002805  3.979428  -0.004  -0.140212  -0.002774  4.001052  -0.004  -0.086192  -0.126828  -0.003065  3.965393  -0.004
C  C45  1  0.16887958  0.00416504  0.84976677  1  -0.124578  -0.009221  3.738299  -0.012  -0.132704  -0.002808  3.980498  -0.004  -0.140792  -0.002777  4.002105  -0.004  -0.086118  -0.127437  -0.003068  3.966465  -0.004
C  C46  1  0.75016076  0.96226828  0.07533500  1  -0.022908  0.017826  3.749666  0.011  -0.039027  0.006099  3.992475  0.003  -0.034101  0.005993  4.009807  0.003  -0.07088  -0.042468  0.007246  3.980963  0.004
C  C47  1  0.24983815  0.03773223  0.92466465  1  -0.022924  0.017824  3.749703  0.011  -0.039089  0.006098  3.992527  0.003  -0.034166  0.005991  4.009864  0.003  -0.070893  -0.042531  0.007243  3.981017  0.004
C  C48  1  0.88091465  0.45829871  0.87566351  1  0.117183  0.016721  3.692887  0.011  0.090885  0.004723  3.943574  0.003  0.098845  0.005715  3.963444  0.004  0.041021  0.084749  0.004357  3.930752  0.002
C  C49  1  0.61898974  0.66602795  0.87563492  1  0.116693  0.016725  3.692413  0.011  0.090423  0.004722  3.943145  0.003  0.098449  0.005714  3.963018  0.004  0.040957  0.084235  0.00436  3.930305  0.002
C  C50  1  0.11908900  0.54169919  0.12433246  1  0.117105  0.016726  3.692818  0.011  0.090882  0.004723  3.943513  0.003  0.09884  0.005716  3.963379  0.004  0.041034  0.084746  0.004356  3.930701  0.002
C  C51  1  0.38101458  0.33397150  0.12436073  1  0.116609  0.016723  3.692608  0.011  0.090392  0.004721  3.943335  0.003  0.098425  0.005713  3.963209  0.004  0.041003  0.084206  0.004358  3.930499  0.002
C  C52  1  0.88627620  0.38338176  0.02136576  1  -0.134156  -0.0095  3.770649  -0.012  -0.144154  -0.002847  4.020899  -0.004  -0.152444  -0.002771  4.043597  -0.004  -0.089324  -0.138758  -0.003082  4.005858  -0.004
C  C53  1  0.61374741  0.59535093  0.02134749  1  -0.134006  -0.009493  3.770865  -0.012  -0.144008  -0.002847  4.021033  -0.004  -0.152289  -0.00277  4.043704  -0.004  -0.089269  -0.138618  -0.003082  4.006015  -0.004
C  C54  1  0.11373275  0.61662062  0.97862688  1  -0.134241  -0.009497  3.77081  -0.012  -0.144196  -0.002847  4.021021  -0.004  -0.152489  -0.00277  4.043719  -0.004  -0.089364  -0.138798  -0.003083  4.005986  -0.004
C  C55  1  0.38626203  0.40464784  0.97864751  1  -0.134006  -0.009498  3.770735  -0.012  -0.143986  -0.002847  4.020897  -0.004  -0.152266  -0.00277  4.043566  -0.004  -0.089275  -0.138592  -0.003083  4.005878  -0.004
C  C56  1  0.75003724  0.45202081  0.09611696  1  0.005858  0.01867  3.695864  0.012  -0.01598  0.006262  3.943825  0.003  -0.010799  0.00626  3.960328  0.003  -0.065879  -0.019061  0.0068  3.9326  0.004
C  C57  1  0.24996940  0.54798104  0.90387625  1  0.005906  0.018663  3.695875  0.012  -0.015969  0.006261  3.943874  0.003  -0.010778  0.006258  3.960349  0.003  -0.065865  -0.01906  0.006799  3.932655  0.004
N  N58  1  0.75001937  0.81563379  0.36882528  1  -0.295042  -0.052131  3.278273  -0.083  -0.251392  -0.032411  3.562521  -0.053  -0.27745  -0.025836  3.580372  -0.045  -0.324273  -0.233224  -0.038211  3.550976  -0.06
N  N59  1  0.24998284  0.18436377  0.63117480  1  -0.294979  -0.052127  3.27831  -0.083  -0.251368  -0.032411  3.562615  -0.053  -0.277428  -0.025837  3.58047  -0.045  -0.324245  -0.233202  -0.038214  3.551083  -0.06
N  N60  1  0.74993259  0.59810363  0.80370081  1  -0.285568  -0.060364  3.292502  -0.095  -0.240788  -0.036816  3.571066  -0.06  -0.268994  -0.02915  3.593528  -0.05  -0.329492  -0.220542  -0.042365  3.555805  -0.066
N  N61  1  0.25007338  0.40189573  0.19629364  1  -0.285379  -0.060365  3.29238  -0.095  -0.240755  -0.036816  3.571077  -0.06  -0.26896  -0.029149  3.593537  -0.05  -0.329511  -0.220512  -0.042367  3.555836  -0.066
O  O62  1  0.51351335  0.48615392  0.66202005  1  -0.585797  0.002735  1.921682  0.002  -0.534093  0.001282  2.135816  0.0  -0.55867  0.001623  2.125788  0.001  -0.291203  -0.516522  0.000566  2.142502  0.0
O  O63  1  0.98630762  0.85156686  0.66220034  1  -0.585339  0.002737  1.921924  0.002  -0.533635  0.001285  2.136046  0.0  -0.558181  0.001624  2.125988  0.001  -0.291121  -0.51607  0.000567  2.142731  0.0
O  O64  1  0.48649075  0.51384639  0.33798724  1  -0.585771  0.002737  1.921355  0.002  -0.53409  0.001281  2.135454  0.0  -0.558654  0.001624  2.125411  0.001  -0.291167  -0.516512  0.000566  2.142136  0.0
O  O65  1  0.01368460  0.14844234  0.33780194  1  -0.585399  0.002736  1.922072  0.002  -0.533677  0.001284  2.136217  0.0  -0.558214  0.001625  2.126133  0.001  -0.291067  -0.516107  0.000566  2.142901  0.0
O  O66  1  0.77554160  0.48020075  0.59060213  1  -0.610923  -0.039077  2.095041  -0.066  -0.565292  -0.026524  2.346771  -0.046  -0.601866  -0.020084  2.335493  -0.036  -0.291886  -0.537358  -0.033977  2.353245  -0.056
O  O67  1  0.72441351  0.92910827  0.59053697  1  -0.610759  -0.039094  2.095439  -0.067  -0.564785  -0.026531  2.346866  -0.046  -0.601385  -0.02009  2.335611  -0.037  -0.291416  -0.536829  -0.033986  2.353321  -0.056
O  O68  1  0.22445452  0.51979818  0.40940041  1  -0.610921  -0.039072  2.095246  -0.066  -0.565279  -0.026522  2.346928  -0.046  -0.601861  -0.020083  2.335653  -0.036  -0.291886  -0.537348  -0.033975  2.353415  -0.056
O  O69  1  0.27556994  0.07089797  0.40946717  1  -0.610759  -0.039087  2.095569  -0.067  -0.564761  -0.026528  2.347017  -0.046  -0.601359  -0.020087  2.335756  -0.036  -0.291445  -0.536808  -0.033983  2.353486  -0.056
O  O70  1  0.00881300  0.61086020  0.59784573  1  -0.804039  -0.04245  1.994471  -0.07  -0.777673  -0.030217  2.204639  -0.05  -0.80774  -0.022729  2.172115  -0.04  -0.574883  -0.754537  -0.037001  2.227268  -0.059
O  O71  1  0.49110598  0.79117237  0.59787305  1  -0.804114  -0.04248  1.994872  -0.07  -0.777622  -0.030232  2.204604  -0.05  -0.80768  -0.022739  2.172041  -0.04  -0.574741  -0.754489  -0.03702  2.227254  -0.059
O  O72  1  0.99118360  0.38914071  0.40215356  1  -0.80412  -0.042451  1.994374  -0.07  -0.777751  -0.030217  2.20459  -0.05  -0.807819  -0.022729  2.172065  -0.04  -0.574917  -0.754611  -0.037003  2.227228  -0.059
O  O73  1  0.50889756  0.20883015  0.40212452  1  -0.804049  -0.042482  1.9949  -0.07  -0.777562  -0.030232  2.204623  -0.05  -0.807619  -0.022739  2.172074  -0.04  -0.574765  -0.754426  -0.037022  2.227279  -0.059
