# generated using pymatgen
data_NaH5C7O3
_symmetry_space_group_name_H-M   'P 1'
_cell_length_a   3.55807332
_cell_length_b   5.30983356
_cell_length_c   16.08012285
_cell_angle_alpha   90.00051221
_cell_angle_beta   89.66631809
_cell_angle_gamma   90.00030096
_symmetry_Int_Tables_number   1
_chemical_formula_structural   NaH5C7O3
_chemical_formula_sum   'Na2 H10 C14 O6'
_cell_volume   303.79302451
_cell_formula_units_Z   2
loop_
 _symmetry_equiv_pos_site_id
 _symmetry_equiv_pos_as_xyz
  1  'x, y, z'
loop_
 _atom_site_type_symbol
 _atom_site_label
 _atom_site_symmetry_multiplicity
 _atom_site_fract_x
 _atom_site_fract_y
 _atom_site_fract_z
 _atom_site_occupancy
 _atom_site_hle17_bader_spin_density
 _atom_site_hle17_ddec_charge
 _atom_site_hle17_ddec_spin_density
 _atom_site_hle17_ddec_sum_bond_order
 _atom_site_hle17_magmom
 _atom_site_pbe_bader_spin_density
 _atom_site_pbe_cm5_charge
 _atom_site_pbe_ddec_charge
 _atom_site_pbe_ddec_spin_density
 _atom_site_pbe_ddec_sum_bond_order
 _atom_site_pbe_magmom
Na  Na0  1  0.74007244  0.14438251  0.05498134  1  0  0.91805  0  0.366503  0  0  0.676038  0.870207  0  0.532822  0
Na  Na1  1  0.25988520  0.64436378  0.94501732  1  0  0.918004  0  0.366519  0  0  0.676038  0.870237  0  0.532718  0
H  H2  1  0.43635420  0.41865343  0.40278260  1  0  0.10415  0  0.965846  0  0  0.09834  0.10907  0  1.035243  0
H  H3  1  0.56367036  0.91860535  0.59721997  1  0  0.104122  0  0.965863  0  0  0.098345  0.108996  0  1.035314  0
H  H4  1  0.90771852  0.13382860  0.35789820  1  0  0.105235  0  0.9715  0  0  0.101062  0.113478  0  1.035145  0
H  H5  1  0.09227447  0.63379086  0.64209433  1  0  0.10524  0  0.971402  0  0  0.10103  0.113518  0  1.035018  0
H  H6  1  0.47786717  0.34561902  0.24951052  1  0  0.091007  0  0.964474  0  0  0.106395  0.10079  0  1.028042  0
H  H7  1  0.52209207  0.84559751  0.75048469  1  0  0.091071  0  0.964153  0  0  0.106407  0.100828  0  1.027755  0
H  H8  1  0.98111639  0.06938805  0.20618347  1  0  0.082797  0  0.969074  0  0  0.107988  0.088121  0  1.042562  0
H  H9  1  0.01885937  0.56937802  0.79381300  1  0  0.082795  0  0.968946  0  0  0.108026  0.08811  0  1.042444  0
H  H10  1  0.02772843  0.97301448  0.48731080  1  0  0.393042  0  0.855187  0  0  0.314681  0.360026  0  0.937502  0
H  H11  1  0.97229999  0.47298782  0.51269148  1  0  0.392882  0  0.855345  0  0  0.314609  0.359891  0  0.937609  0
C  C12  1  0.16366631  0.77770973  0.38907897  1  0  0.328481  0  3.813643  0  0  0.07462  0.310435  0  4.064661  0
C  C13  1  0.83637607  0.27769275  0.61092222  1  0  0.328461  0  3.81367  0  0  0.074578  0.310361  0  4.064731  0
C  C14  1  0.32905712  0.55709313  0.35886232  1  0  -0.205329  0  3.754352  0  0  -0.112696  -0.220302  0  3.996563  0
C  C15  1  0.67097506  0.05706199  0.64113857  1  0  -0.205272  0  3.754135  0  0  -0.112778  -0.220232  0  3.996431  0
C  C16  1  0.03563962  0.96180235  0.33411548  1  0  -0.214041  0  3.770654  0  0  -0.109719  -0.22521  0  4.004791  0
C  C17  1  0.96437321  0.46177363  0.66588292  1  0  -0.214109  0  3.770678  0  0  -0.109743  -0.225305  0  4.004842  0
C  C18  1  0.35312269  0.51807052  0.27354636  1  0  -0.033483  0  3.751566  0  0  -0.077582  -0.056691  0  3.98005  0
C  C19  1  0.64690821  0.01805580  0.72645580  1  0  -0.033642  0  3.751461  0  0  -0.077592  -0.056805  0  3.979802  0
C  C20  1  0.07166105  0.92287156  0.24897800  1  0  -0.037086  0  3.76668  0  0  -0.075633  -0.061948  0  4.000896  0
C  C21  1  0.92835618  0.42285264  0.75102107  1  0  -0.03693  0  3.766494  0  0  -0.075618  -0.061814  0  4.000678  0
C  C22  1  0.22334408  0.69899773  0.21727345  1  0  -0.102609  0  3.762807  0  0  -0.024695  -0.071787  0  3.97392  0
C  C23  1  0.77668751  0.19899304  0.78272708  1  0  -0.102642  0  3.762683  0  0  -0.024674  -0.071748  0  3.973661  0
C  C24  1  0.24243577  0.65327065  0.12526289  1  0  0.685927  0  3.936557  0  0  0.20327  0.621304  0  4.234319  0
C  C25  1  0.75754270  0.15325586  0.87473952  1  0  0.685815  0  3.936385  0  0  0.203336  0.621235  0  4.234009  0
O  O26  1  0.12862064  0.80405631  0.47414889  1  0  -0.544447  0  2.111983  0  0  -0.355653  -0.477227  0  2.335255  0
O  O27  1  0.87141517  0.30402956  0.52585145  1  0  -0.544289  0  2.11223  0  0  -0.355478  -0.476997  0  2.335398  0
O  O28  1  0.27601851  0.42776464  0.09928295  1  0  -0.766991  0  1.925171  0  0  -0.438687  -0.712512  0  2.184814  0
O  O29  1  0.72395975  0.92775083  0.90072064  1  0  -0.766918  0  1.925005  0  0  -0.438653  -0.712498  0  2.184633  0
O  O30  1  0.22115911  0.84455014  0.07696119  1  0  -0.804692  0  1.942998  0  0  -0.487718  -0.747786  0  2.207057  0
O  O31  1  0.77877159  0.34453262  0.92303633  1  0  -0.804596  0  1.943198  0  0  -0.487844  -0.747746  0  2.20725  0
