# generated using pymatgen
data_AgH9C12(NO2)2
_symmetry_space_group_name_H-M   'P 1'
_cell_length_a   7.30592362
_cell_length_b   7.30594257
_cell_length_c   12.17727999
_cell_angle_alpha   75.23215236
_cell_angle_beta   75.23239120
_cell_angle_gamma   64.86634989
_symmetry_Int_Tables_number   1
_chemical_formula_structural   AgH9C12(NO2)2
_chemical_formula_sum   'Ag2 H18 C24 N4 O8'
_cell_volume   560.96454296
_cell_formula_units_Z   2
loop_
 _symmetry_equiv_pos_site_id
 _symmetry_equiv_pos_as_xyz
  1  'x, y, z'
loop_
 _atom_site_type_symbol
 _atom_site_label
 _atom_site_symmetry_multiplicity
 _atom_site_fract_x
 _atom_site_fract_y
 _atom_site_fract_z
 _atom_site_occupancy
 _atom_site_hle17_bader_spin_density
 _atom_site_hle17_ddec_charge
 _atom_site_hle17_ddec_spin_density
 _atom_site_hle17_ddec_sum_bond_order
 _atom_site_hle17_magmom
 _atom_site_hse06_10hf_bader_spin_density
 _atom_site_hse06_10hf_ddec_charge
 _atom_site_hse06_10hf_ddec_spin_density
 _atom_site_hse06_10hf_ddec_sum_bond_order
 _atom_site_hse06_10hf_magmom
 _atom_site_hse06_bader_spin_density
 _atom_site_hse06_ddec_charge
 _atom_site_hse06_ddec_spin_density
 _atom_site_hse06_ddec_sum_bond_order
 _atom_site_hse06_magmom
 _atom_site_pbe_bader_spin_density
 _atom_site_pbe_cm5_charge
 _atom_site_pbe_ddec_charge
 _atom_site_pbe_ddec_spin_density
 _atom_site_pbe_ddec_sum_bond_order
 _atom_site_pbe_magmom
Ag  Ag0  1  0.99999484  0.99999621  0.00000021  1  0  0.551477  0  1.363518  0  0  0.404687  0  1.787638  0  0  0.434384  0  1.745382  0  0  0.473099  0.384875  0  1.816744  0
Ag  Ag1  1  0.99999802  0.99999940  0.49999930  1  0  0.551463  0  1.363522  0  0  0.404652  0  1.787632  0  0  0.43435  0  1.745375  0  0  0.473049  0.384839  0  1.816737  0
H  H2  1  0.34038958  0.47639232  0.82253938  1  0  0.111874  0  0.942197  0  0  0.124389  0  0.997254  0  0  0.127273  0  0.997084  0  0  0.110369  0.122264  0  0.997643  0
H  H3  1  0.47639752  0.34039025  0.32253861  1  0  0.111842  0  0.942254  0  0  0.124365  0  0.997326  0  0  0.127272  0  0.997127  0  0  0.110362  0.122241  0  0.997713  0
H  H4  1  0.65960650  0.52360881  0.17746166  1  0  0.111909  0  0.942192  0  0  0.124431  0  0.997241  0  0  0.127342  0  0.997035  0  0  0.110385  0.122306  0  0.997629  0
H  H5  1  0.52360710  0.65961076  0.67746032  1  0  0.111858  0  0.942241  0  0  0.124379  0  0.9973  0  0  0.127281  0  0.997107  0  0  0.110375  0.122255  0  0.997689  0
H  H6  1  0.71475538  0.34282552  0.84294856  1  0  0.087371  0  0.972748  0  0  0.09516  0  1.040242  0  0  0.097548  0  1.038284  0  0  0.113851  0.093379  0  1.041722  0
H  H7  1  0.34282994  0.71475322  0.34294681  1  0  0.087398  0  0.972758  0  0  0.095147  0  1.040289  0  0  0.097534  0  1.038333  0  0  0.113845  0.093365  0  1.041768  0
H  H8  1  0.28524127  0.65717408  0.15705508  1  0  0.087446  0  0.972668  0  0  0.095182  0  1.040208  0  0  0.097568  0  1.038253  0  0  0.113869  0.0934  0  1.041686  0
H  H9  1  0.65717298  0.28524476  0.65705366  1  0  0.087407  0  0.972686  0  0  0.095155  0  1.040214  0  0  0.097542  0  1.03826  0  0  0.113848  0.093374  0  1.041693  0
H  H10  1  0.59903501  0.03901035  0.17400786  1  0  0.086029  0  0.966221  0  0  0.091899  0  1.036623  0  0  0.094841  0  1.033386  0  0  0.114758  0.089717  0  1.038972  0
H  H11  1  0.03901535  0.59903087  0.67400453  1  0  0.086077  0  0.966189  0  0  0.091917  0  1.036607  0  0  0.09486  0  1.03337  0  0  0.114763  0.089734  0  1.038961  0
H  H12  1  0.40096222  0.96098008  0.82599299  1  0  0.086081  0  0.966246  0  0  0.091941  0  1.03666  0  0  0.094881  0  1.033425  0  0  0.114778  0.089761  0  1.03901  0
H  H13  1  0.96098842  0.40096862  0.32599475  1  0  0.086044  0  0.966182  0  0  0.091891  0  1.036608  0  0  0.094833  0  1.033372  0  0  0.114753  0.089707  0  1.038963  0
H  H14  1  0.10110972  0.36316202  0.98266154  1  0  0.103217  0  0.960476  0  0  0.112937  0  1.02622  0  0  0.116326  0  1.021825  0  0  0.110754  0.110353  0  1.029579  0
H  H15  1  0.36316685  0.10110609  0.48265920  1  0  0.1032  0  0.960464  0  0  0.112936  0  1.026183  0  0  0.116326  0  1.021791  0  0  0.110752  0.110351  0  1.029543  0
H  H16  1  0.89888920  0.63683907  0.01733824  1  0  0.103247  0  0.960468  0  0  0.112971  0  1.026205  0  0  0.116361  0  1.021812  0  0  0.110767  0.110386  0  1.029564  0
H  H17  1  0.63684034  0.89889183  0.51733898  1  0  0.103224  0  0.960459  0  0  0.112957  0  1.026194  0  0  0.116344  0  1.0218  0  0  0.11077  0.110373  0  1.029552  0
H  H18  1  0.91764496  0.08239312  0.24998887  1  0  0.390052  0  0.916646  0  0  0.35823  0  0.995266  0  0  0.372987  0  0.981058  0  0  0.284081  0.347916  0  1.005082  0
H  H19  1  0.08236559  0.91762611  0.75000142  1  0  0.39011  0  0.91656  0  0  0.358235  0  0.995279  0  0  0.372993  0  0.981069  0  0  0.284096  0.347921  0  1.005097  0
C  C20  1  0.39497983  0.37803428  0.90081864  1  0  -0.107813  0  3.709686  0  0  -0.120411  0  3.965555  0  0  -0.12869  0  3.987114  0  0  -0.080587  -0.115191  0  3.951174  0
C  C21  1  0.37804187  0.39498141  0.40081551  1  0  -0.107792  0  3.709726  0  0  -0.120437  0  3.965624  0  0  -0.128738  0  3.987191  0  0  -0.080603  -0.115215  0  3.951232  0
C  C22  1  0.60501510  0.62196991  0.09918456  1  0  -0.107871  0  3.7097  0  0  -0.120475  0  3.965545  0  0  -0.12878  0  3.987108  0  0  -0.080634  -0.115251  0  3.951151  0
C  C23  1  0.62196616  0.60501802  0.59918396  1  0  -0.107776  0  3.709684  0  0  -0.1204  0  3.965561  0  0  -0.128693  0  3.987113  0  0  -0.080587  -0.115179  0  3.951173  0
C  C24  1  0.60009082  0.30638061  0.91159063  1  0  0.116885  0  3.679888  0  0  0.081414  0  3.932401  0  0  0.089232  0  3.951316  0  0  0.042225  0.076437  0  3.919403  0
C  C25  1  0.30638522  0.60008959  0.41158799  1  0  0.116842  0  3.679872  0  0  0.081406  0  3.932393  0  0  0.089222  0  3.951314  0  0  0.042206  0.076432  0  3.91939  0
C  C26  1  0.39990384  0.69362054  0.08841144  1  0  0.116759  0  3.679821  0  0  0.081355  0  3.932342  0  0  0.089172  0  3.951263  0  0  0.04219  0.076381  0  3.919341  0
C  C27  1  0.69361855  0.39990991  0.58841211  1  0  0.116787  0  3.679868  0  0  0.081371  0  3.932362  0  0  0.089188  0  3.951284  0  0  0.042179  0.076395  0  3.919364  0
C  C28  1  0.53847300  0.13624707  0.09705239  1  0  0.113101  0  3.681248  0  0  0.073545  0  3.923462  0  0  0.082186  0  3.942569  0  0  0.049652  0.06804  0  3.910442  0
C  C29  1  0.13625150  0.53846894  0.59704936  1  0  0.112989  0  3.681225  0  0  0.073483  0  3.923377  0  0  0.082121  0  3.942486  0  0  0.049614  0.067979  0  3.910358  0
C  C30  1  0.46152195  0.86374949  0.90294952  1  0  0.112851  0  3.681265  0  0  0.073323  0  3.92345  0  0  0.081965  0  3.942557  0  0  0.049547  0.067817  0  3.910432  0
C  C31  1  0.86375483  0.46152747  0.40295165  1  0  0.113057  0  3.681246  0  0  0.073523  0  3.923428  0  0  0.082163  0  3.942537  0  0  0.049618  0.068018  0  3.910406  0
C  C32  1  0.33026791  0.20215978  0.09318173  1  0  -0.122967  0  3.753938  0  0  -0.093533  0  3.982543  0  0  -0.107217  0  4.007751  0  0  -0.01515  -0.084929  0  3.965849  0
C  C33  1  0.20216498  0.33026652  0.59317939  1  0  -0.122914  0  3.754023  0  0  -0.093492  0  3.982611  0  0  -0.107171  0  4.00782  0  0  -0.015169  -0.084891  0  3.965919  0
C  C34  1  0.66972646  0.79783832  0.90681921  1  0  -0.122886  0  3.75381  0  0  -0.093434  0  3.982378  0  0  -0.107118  0  4.007587  0  0  -0.015115  -0.084832  0  3.965687  0
C  C35  1  0.79784277  0.66972987  0.40682058  1  0  -0.122974  0  3.753835  0  0  -0.093509  0  3.982408  0  0  -0.107195  0  4.007615  0  0  -0.015128  -0.084906  0  3.965713  0
C  C36  1  0.25930854  0.32003752  0.99131548  1  0  -0.000644  0  3.679449  0  0  -0.031755  0  3.928685  0  0  -0.025134  0  3.944398  0  0  -0.057202  -0.035853  0  3.918192  0
C  C37  1  0.32004448  0.25930739  0.49131215  1  0  -0.00059  0  3.679432  0  0  -0.031698  0  3.928691  0  0  -0.025069  0  3.944375  0  0  -0.057157  -0.035798  0  3.9182  0
C  C38  1  0.74068754  0.67996361  0.00868638  1  0  -0.000659  0  3.679396  0  0  -0.031779  0  3.928649  0  0  -0.025158  0  3.944361  0  0  -0.057201  -0.035876  0  3.918155  0
C  C39  1  0.67996554  0.74069050  0.50868725  1  0  -0.000648  0  3.679325  0  0  -0.031761  0  3.92854  0  0  -0.025149  0  3.944279  0  0  -0.057218  -0.035856  0  3.918044  0
C  C40  1  0.19493329  0.13391666  0.19570868  1  0  0.64932  0  3.883537  0  0  0.597857  0  4.18101  0  0  0.631987  0  4.173691  0  0  0.21423  0.57474  0  4.185342  0
C  C41  1  0.13392022  0.19492673  0.69570419  1  0  0.649187  0  3.883699  0  0  0.597722  0  4.181185  0  0  0.63185  0  4.173872  0  0  0.214141  0.574607  0  4.185518  0
C  C42  1  0.80506336  0.86608294  0.80429250  1  0  0.649256  0  3.883676  0  0  0.597782  0  4.181144  0  0  0.631913  0  4.173826  0  0  0.214188  0.574666  0  4.185481  0
C  C43  1  0.86608411  0.80507124  0.30429443  1  0  0.649356  0  3.883591  0  0  0.597871  0  4.181085  0  0  0.632002  0  4.173768  0  0  0.214207  0.574753  0  4.185416  0
N  N44  1  0.67219774  0.18231563  0.00735538  1  0  -0.300949  0  3.326674  0  0  -0.212333  0  3.605136  0  0  -0.23278  0  3.622454  0  0  -0.345948  -0.198608  0  3.59311  0
N  N45  1  0.18231899  0.67219822  0.50735334  1  0  -0.300922  0  3.32652  0  0  -0.212287  0  3.604924  0  0  -0.232734  0  3.622241  0  0  -0.345904  -0.198563  0  3.592897  0
N  N46  1  0.32779634  0.81768705  0.99264655  1  0  -0.300769  0  3.326505  0  0  -0.212201  0  3.60498  0  0  -0.232646  0  3.622297  0  0  -0.345901  -0.198478  0  3.592954  0
N  N47  1  0.81768478  0.32780128  0.49264677  1  0  -0.300937  0  3.326643  0  0  -0.212333  0  3.605095  0  0  -0.23278  0  3.622413  0  0  -0.345944  -0.198607  0  3.593067  0
O  O48  1  0.26363458  0.04124459  0.28700514  1  0  -0.597596  0  1.947227  0  0  -0.549447  0  2.186974  0  0  -0.572194  0  2.177223  0  0  -0.309689  -0.533653  0  2.193247  0
O  O49  1  0.04124287  0.26363735  0.78700062  1  0  -0.597579  0  1.947182  0  0  -0.549471  0  2.186975  0  0  -0.572222  0  2.177226  0  0  -0.309701  -0.533677  0  2.19325  0
O  O50  1  0.73635437  0.95876426  0.71299827  1  0  -0.597583  0  1.947268  0  0  -0.549444  0  2.187035  0  0  -0.57219  0  2.177286  0  0  -0.309721  -0.533649  0  2.193311  0
O  O51  1  0.95876032  0.73636368  0.21299770  1  0  -0.597658  0  1.94717  0  0  -0.54953  0  2.186959  0  0  -0.572279  0  2.177209  0  0  -0.309743  -0.533734  0  2.193234  0
O  O52  1  0.00978467  0.17843586  0.17920947  1  0  -0.608487  0  2.092161  0  0  -0.551058  0  2.33642  0  0  -0.576938  0  2.322708  0  0  -0.325761  -0.532973  0  2.345278  0
O  O53  1  0.17843464  0.00978308  0.67920856  1  0  -0.608531  0  2.091955  0  0  -0.551066  0  2.336258  0  0  -0.576947  0  2.322549  0  0  -0.325754  -0.53298  0  2.345114  0
O  O54  1  0.99020799  0.82156684  0.82078939  1  0  -0.608541  0  2.092102  0  0  -0.551076  0  2.336404  0  0  -0.576959  0  2.322693  0  0  -0.32572  -0.532988  0  2.34526  0
O  O55  1  0.82156258  0.99021498  0.32078949  1  0  -0.608631  0  2.09192  0  0  -0.551183  0  2.336185  0  0  -0.577066  0  2.32248  0  0  -0.325784  -0.533095  0  2.345037  0
