# generated using pymatgen
data_Co3H50C76(N5O4)2
_symmetry_space_group_name_H-M   'P 1'
_cell_length_a   11.45439157
_cell_length_b   11.59942883
_cell_length_c   19.52462214
_cell_angle_alpha   79.70263764
_cell_angle_beta   74.74609374
_cell_angle_gamma   62.84470788
_symmetry_Int_Tables_number   1
_chemical_formula_structural   Co3H50C76(N5O4)2
_chemical_formula_sum   'Co3 H50 C76 N10 O8'
_cell_volume   2221.65639656
_cell_formula_units_Z   1
loop_
 _symmetry_equiv_pos_site_id
 _symmetry_equiv_pos_as_xyz
  1  'x, y, z'
loop_
 _atom_site_type_symbol
 _atom_site_label
 _atom_site_symmetry_multiplicity
 _atom_site_fract_x
 _atom_site_fract_y
 _atom_site_fract_z
 _atom_site_occupancy
 _atom_site_pbe_bader_charge
 _atom_site_pbe_bader_spin_density
 _atom_site_pbe_cm5_charge
 _atom_site_pbe_ddec_charge
 _atom_site_pbe_ddec_spin_density
 _atom_site_pbe_ddec_sum_bond_order
 _atom_site_pbe_magmom
Co  Co0  1  0.50000000  0.50000012  0.99999990  1  1.193696  0.124053  0.807276  0.670533  0.148566  3.381247  0.122
Co  Co1  1  0.00000073  0.50000064  0.99999986  1  1.172723  0.951654  0.65509  0.710744  1.103816  2.950403  0.946
Co  Co2  1  0.99999904  0.00000046  0.99999999  1  1.09323  0.88462  0.696882  0.547554  1.03033  3.14309  0.877
H  H3  1  0.31305250  0.82364873  0.03602731  1  0.117307  0.000173  0.137722  0.102144  -5.2e-05  0.975747  0.0
H  H4  1  0.41845387  0.60568920  0.13786642  1  0.13529  5.8e-05  0.123083  0.097811  -5.7e-05  0.994531  0.0
H  H5  1  0.38585450  0.52263274  0.26378894  1  0.059696  0.000182  0.107123  0.112915  -1.7e-05  1.004589  0.0
H  H6  1  0.47608995  0.15563633  0.18866456  1  0.057985  0.00039  0.102646  0.104661  0.000114  1.029377  0.0
H  H7  1  0.49378578  0.25790483  0.06676194  1  0.109539  0.0001  0.123426  0.095825  -1e-06  1.005762  0.0
H  H8  1  0.45261826  0.41296101  0.35544978  1  0.02572  0.000275  0.097836  0.093711  1.5e-05  1.014442  0.0
H  H9  1  0.41276428  0.33306573  0.47889375  1  0.041171  0.000256  0.097988  0.094745  2.3e-05  1.014828  0.0
H  H10  1  0.34673991  0.03322631  0.41496001  1  0.034595  0.000515  0.095646  0.090633  0.00017  1.023838  0.0
H  H11  1  0.38116616  0.11635343  0.29207843  1  0.015911  0.000262  0.095581  0.088741  2e-05  1.015273  0.0
H  H12  1  0.43342156  0.22904711  0.57369626  1  0.034325  0.00033  0.097891  0.093353  3.7e-05  1.013935  0.0
H  H13  1  0.36405748  0.17272996  0.69863231  1  0.053494  0.000209  0.097532  0.092828  1.7e-05  1.010886  0.0
H  H14  1  0.18088095  0.96060306  0.64104120  1  0.010972  0.000309  0.098362  0.094948  5.6e-05  1.007269  0.0
H  H15  1  0.24926922  0.01781615  0.51606217  1  0.021579  0.000444  0.096406  0.092463  6.8e-05  1.018503  0.0
H  H16  1  0.35709639  0.05307604  0.80100284  1  0.063308  0.000103  0.103537  0.105719  -6.2e-05  1.008089  0.0
H  H17  1  0.24625797  0.02705582  0.92624672  1  0.117952  -7.5e-05  0.120682  0.097858  -0.000241  1.002993  0.0
H  H18  1  0.03277686  0.03148370  0.73801488  1  0.071869  0.00014  0.103651  0.108438  -4.8e-05  1.008981  0.0
H  H19  1  0.93695097  0.00526659  0.86583646  1  0.12027  -0.000106  0.119704  0.098874  -0.000277  1.007695  0.0
H  H20  1  0.18474337  0.33720064  0.08933940  1  0.141706  -2e-05  0.124112  0.106118  -0.000207  0.997806  0.0
H  H21  1  0.20333870  0.33202674  0.21407775  1  0.080664  0.000142  0.099763  0.102643  9.8e-05  1.047039  0.0
H  H22  1  0.85779557  0.70348614  0.23196512  1  0.077914  4.8e-05  0.098693  0.101863  3.8e-05  1.063203  0.0
H  H23  1  0.85062014  0.69146303  0.10705405  1  0.100349  -4.2e-05  0.122545  0.100381  -0.000242  1.001295  0.0
H  H24  1  0.09158452  0.30535674  0.32791928  1  0.058152  0.000151  0.096786  0.093643  7.1e-05  1.01449  0.0
H  H25  1  0.07562637  0.29546270  0.45541794  1  0.061551  9.1e-05  0.096828  0.094245  4.3e-05  1.030573  0.0
H  H26  1  0.95068717  0.70964613  0.44199477  1  0.075984  0.000171  0.093424  0.089507  0.000105  1.049652  0.0
H  H27  1  0.96949402  0.71773365  0.31453324  1  0.061982  0.000157  0.094408  0.091922  9e-05  1.047101  0.0
H  H28  1  0.68694708  0.17635100  0.96397374  1  0.117301  0.000173  0.137727  0.10215  -5.2e-05  0.9757  0.0
H  H29  1  0.58154661  0.39431056  0.86213399  1  0.135288  5.8e-05  0.123087  0.097809  -5.7e-05  0.994532  0.0
H  H30  1  0.61414418  0.47736698  0.73621226  1  0.05971  0.000182  0.107136  0.11293  -1.7e-05  1.004581  0.0
H  H31  1  0.52391099  0.84436440  0.81133568  1  0.057984  0.00039  0.102641  0.104644  0.000114  1.029413  0.0
H  H32  1  0.50621471  0.74209691  0.93323777  1  0.109553  0.0001  0.123403  0.095807  -1e-06  1.005785  0.0
H  H33  1  0.54737998  0.58703970  0.64455088  1  0.02589  0.000275  0.09782  0.093719  1.5e-05  1.014455  0.0
H  H34  1  0.58723483  0.66693305  0.52110695  1  0.041157  0.000256  0.098008  0.094751  2.3e-05  1.014859  0.0
H  H35  1  0.65326143  0.96677153  0.58503992  1  0.034613  0.000515  0.09565  0.090661  0.00017  1.023854  0.0
H  H36  1  0.61883385  0.88364537  0.70792162  1  0.015924  0.000262  0.095579  0.088714  2e-05  1.015322  0.0
H  H37  1  0.56657933  0.77095176  0.42630262  1  0.03431  0.00033  0.097888  0.093348  3.7e-05  1.013934  0.0
H  H38  1  0.63594298  0.82726982  0.30136758  1  0.053493  0.000209  0.097534  0.092835  1.7e-05  1.010888  0.0
H  H39  1  0.81912129  0.03939479  0.35895859  1  0.010635  0.000309  0.098348  0.094898  5.6e-05  1.007314  0.0
H  H40  1  0.75073345  0.98218075  0.48393713  1  0.021595  0.000444  0.096427  0.092477  6.8e-05  1.018519  0.0
H  H41  1  0.64290317  0.94692377  0.19899667  1  0.063308  0.000103  0.103544  0.105726  -6.2e-05  1.008056  0.0
H  H42  1  0.75374210  0.97294686  0.07375347  1  0.117972  -7.5e-05  0.120689  0.097863  -0.000241  1.003034  0.0
H  H43  1  0.96722361  0.96851608  0.26198501  1  0.071865  0.00014  0.10365  0.108428  -4.8e-05  1.008995  0.0
H  H44  1  0.06305040  0.99473320  0.13416329  1  0.120246  -0.000106  0.119694  0.09884  -0.000277  1.007717  0.0
H  H45  1  0.81525711  0.66280112  0.91065980  1  0.141689  -2e-05  0.124108  0.106126  -0.000207  0.997756  0.0
H  H46  1  0.79666042  0.66797403  0.78592174  1  0.08065  0.000142  0.099767  0.102634  9.8e-05  1.047041  0.0
H  H47  1  0.14220264  0.29651463  0.76803451  1  0.077916  4.8e-05  0.098703  0.10188  3.8e-05  1.063186  0.0
H  H48  1  0.14937989  0.30853773  0.89294582  1  0.100359  -4.2e-05  0.122542  0.100368  -0.000242  1.001307  0.0
H  H49  1  0.90841414  0.69464306  0.67208037  1  0.058167  0.000151  0.096785  0.093653  7.1e-05  1.014509  0.0
H  H50  1  0.92437410  0.70453708  0.54458195  1  0.061562  9.2e-05  0.096826  0.094224  4.3e-05  1.030549  0.0
H  H51  1  0.04931463  0.29035271  0.55800449  1  0.075959  0.000171  0.093423  0.089519  0.000105  1.049635  0.0
H  H52  1  0.03050644  0.28226613  0.68546665  1  0.061977  0.000157  0.094397  0.091907  9e-05  1.047094  0.0
C  C53  1  0.28537434  0.48222733  0.97239979  1  1.555433  0.005724  0.20772  0.539786  0.004228  4.221235  0.005
C  C54  1  0.23434921  0.61504394  0.99291821  1  0.40805  -0.000909  0.071324  -0.0208  -0.001683  4.002959  -0.001
C  C55  1  0.11677326  0.72967494  0.99313844  1  0.394273  -0.000746  0.0758  -0.008821  -0.001702  3.974292  -0.001
C  C56  1  0.26612015  0.77170428  0.02109489  1  0.969329  -0.003027  0.136127  0.138794  -0.003641  3.941383  -0.002
C  C57  1  0.98349813  0.76742630  0.97873055  1  1.574007  -0.001086  0.209428  0.546858  -0.001699  4.219991  -0.001
C  C58  1  0.42956715  0.50669402  0.15212537  1  0.414724  0.005211  0.04194  0.081331  0.002554  3.944601  0.002
C  C59  1  0.41452698  0.45779071  0.22220922  1  -0.02123  0.006586  -0.088293  -0.181167  0.003558  3.963107  0.003
C  C60  1  0.43238719  0.32794607  0.23946410  1  -0.005195  0.016751  0.005233  0.104048  0.008945  3.994468  0.009
C  C61  1  0.46118340  0.25623179  0.18101617  1  -0.068964  0.006406  -0.091799  -0.187219  0.003403  3.986306  0.003
C  C62  1  0.47334190  0.31143303  0.11220929  1  0.505176  0.002874  0.041873  0.078443  0.001173  3.948732  0.0
C  C63  1  0.41764884  0.27362460  0.31292001  1  0.018854  0.013136  -0.020085  0.041903  0.006989  4.018105  0.007
C  C64  1  0.42745671  0.33049520  0.36812177  1  -0.003962  0.007591  -0.092547  -0.12278  0.00405  4.005335  0.004
C  C65  1  0.40681095  0.28344133  0.43841343  1  -0.024001  0.003543  -0.092745  -0.123944  0.001583  3.998312  0.001
C  C66  1  0.37426691  0.17661243  0.45860203  1  -0.024886  0.01936  -0.011175  0.057479  0.010411  3.99926  0.011
C  C67  1  0.36784371  0.11802289  0.40296982  1  -0.017344  0.005175  -0.093801  -0.127059  0.002617  4.008661  0.002
C  C68  1  0.38928391  0.16449656  0.33260722  1  -0.052721  0.00532  -0.092748  -0.123155  0.002749  4.01429  0.002
C  C69  1  0.34403626  0.13240513  0.53336556  1  -0.031907  0.01293  -0.011899  0.059359  0.00672  3.997548  0.006
C  C70  1  0.37679351  0.17100417  0.58768510  1  0.012585  0.008081  -0.092972  -0.125486  0.004286  3.994593  0.004
C  C71  1  0.33839025  0.13766041  0.65901072  1  -0.081353  0.001358  -0.092314  -0.126031  -9.1e-05  4.013882  -0.001
C  C72  1  0.26222644  0.06523920  0.68110068  1  -0.000582  0.023424  -0.021846  0.035834  0.012605  4.026248  0.014
C  C73  1  0.23448430  0.02152563  0.62676663  1  -0.0164  0.00381  -0.092525  -0.121175  0.001704  3.997468  0.001
C  C74  1  0.27477921  0.05318097  0.55553989  1  -0.031248  0.009537  -0.094216  -0.132193  0.005171  4.007947  0.005
C  C75  1  0.20700396  0.04319573  0.75600018  1  -0.012804  0.007412  -0.003073  0.088521  0.003691  4.017829  0.003
C  C76  1  0.26419349  0.04208302  0.81212381  1  -0.036992  0.009493  -0.091823  -0.187074  0.005067  3.990271  0.005
C  C77  1  0.20379941  0.02692458  0.88248426  1  0.433957  -0.003575  0.038387  0.071916  -0.004785  3.939382  -0.004
C  C78  1  0.08637609  0.02841871  0.77737419  1  -0.096653  0.010475  -0.094422  -0.189654  0.005644  3.985484  0.006
C  C79  1  0.03024887  0.01574071  0.84862141  1  0.463612  -0.001958  0.037152  0.072962  -0.003042  3.948493  -0.003
C  C80  1  0.11470848  0.41599930  0.12319907  1  0.463805  -0.007579  0.041733  0.087108  -0.008237  3.920211  -0.005
C  C81  1  0.12286410  0.41387557  0.19296853  1  -0.079917  0.001782  -0.091296  -0.180809  0.000593  3.971519  0.001
C  C82  1  0.03005192  0.51676215  0.23526822  1  0.010525  -0.009163  0.006751  0.108347  -0.009811  3.993811  -0.006
C  C83  1  0.93317512  0.62049988  0.20236253  1  -0.037415  0.001846  -0.089611  -0.178287  0.000609  3.949187  0.002
C  C84  1  0.92854899  0.61537244  0.13268148  1  0.491634  -0.007558  0.043918  0.088278  -0.008217  3.917667  -0.005
C  C85  1  0.02949111  0.51249970  0.31118192  1  0.009479  0.000666  -0.012836  0.056165  0.000135  4.00581  0.001
C  C86  1  0.06109206  0.39445141  0.35288444  1  -0.041637  -0.001358  -0.091903  -0.121806  -0.001483  4.00322  -0.001
C  C87  1  0.05033338  0.38956096  0.42577136  1  -0.028932  0.000347  -0.092074  -0.120733  0.000127  3.988036  0.0
C  C88  1  0.00803108  0.50227354  0.46092059  1  -0.047313  -0.001241  -0.006973  0.066433  -0.001352  3.980025  -0.001
C  C89  1  0.98182073  0.61939664  0.41825819  1  -0.043403  0.000276  -0.092764  -0.122057  9.1e-05  3.979595  0.0
C  C90  1  0.99175443  0.62474812  0.34532458  1  -0.033307  -0.00139  -0.092819  -0.122331  -0.001541  3.986789  -0.001
C  C91  1  0.71462479  0.51777339  0.02760073  1  1.554917  0.005726  0.207723  0.539802  0.004228  4.221201  0.005
C  C92  1  0.76565083  0.38495679  0.00708217  1  0.40803  -0.000909  0.071319  -0.020795  -0.001683  4.003027  -0.001
C  C93  1  0.88322634  0.27032676  0.00686192  1  0.394269  -0.000747  0.075763  -0.008853  -0.001702  3.974352  -0.001
C  C94  1  0.73387944  0.22829745  0.97890496  1  0.969331  -0.003027  0.136153  0.138849  -0.003642  3.941287  -0.002
C  C95  1  0.01650281  0.23257446  0.02126917  1  1.574021  -0.001086  0.209415  0.546842  -0.001698  4.219977  -0.001
C  C96  1  0.57043333  0.49330574  0.84787503  1  0.41472  0.005211  0.04192  0.081332  0.002554  3.944628  0.002
C  C97  1  0.58547350  0.54220905  0.77779118  1  -0.021239  0.006586  -0.08831  -0.181204  0.003558  3.963156  0.003
C  C98  1  0.56761463  0.67205273  0.76053618  1  -0.005186  0.016752  0.005209  0.104038  0.008945  3.994449  0.009
C  C99  1  0.53881845  0.74376895  0.81898393  1  -0.069005  0.006407  -0.091743  -0.187144  0.003403  3.98627  0.003
C  C100  1  0.52665948  0.68856676  0.88779046  1  0.505141  0.002874  0.04186  0.078445  0.001173  3.948728  0.0
C  C101  1  0.58235164  0.72637516  0.68708040  1  0.018731  0.013136  -0.020043  0.041968  0.006989  4.01809  0.007
C  C102  1  0.57254287  0.66950455  0.63187877  1  -0.004036  0.007591  -0.092554  -0.122853  0.00405  4.005399  0.004
C  C103  1  0.59318907  0.71655745  0.56158714  1  -0.023991  0.003543  -0.092746  -0.123907  0.001584  3.998334  0.001
C  C104  1  0.62573444  0.82338541  0.54139790  1  -0.024854  0.019361  -0.011161  0.057529  0.010411  3.999205  0.011
C  C105  1  0.63215720  0.88197592  0.59703009  1  -0.017337  0.005175  -0.093845  -0.127184  0.002617  4.008707  0.002
C  C106  1  0.61071609  0.83550224  0.66739283  1  -0.052727  0.00532  -0.092734  -0.123095  0.002749  4.01434  0.002
C  C107  1  0.65596553  0.86759174  0.46663439  1  -0.031455  0.01293  -0.011887  0.059352  0.00672  3.997493  0.006
C  C108  1  0.62320740  0.82899465  0.41231481  1  0.012129  0.008081  -0.092973  -0.125468  0.004286  3.994561  0.004
C  C109  1  0.66161022  0.86233937  0.34098917  1  -0.081348  0.001359  -0.092304  -0.126037  -9e-05  4.013807  -0.001
C  C110  1  0.73777492  0.93476062  0.31889855  1  -0.000636  0.023425  -0.021856  0.0358  0.012605  4.026181  0.014
C  C111  1  0.76551838  0.97847125  0.37323319  1  -0.015937  0.00381  -0.092517  -0.121093  0.001704  3.997463  0.001
C  C112  1  0.72522170  0.94681785  0.44446002  1  -0.031311  0.009538  -0.094215  -0.132196  0.005172  4.007933  0.005
C  C113  1  0.79299607  0.95680503  0.24399968  1  -0.012812  0.007413  -0.003096  0.088496  0.003692  4.017818  0.003
C  C114  1  0.73580654  0.95791774  0.18787606  1  -0.036986  0.009493  -0.091821  -0.187059  0.005068  3.990154  0.005
C  C115  1  0.79620153  0.97307615  0.11751598  1  0.433959  -0.003574  0.038379  0.071894  -0.004785  3.939448  -0.004
C  C116  1  0.91362394  0.97158205  0.22262567  1  -0.09665  0.010475  -0.094428  -0.189653  0.005645  3.985466  0.006
C  C117  1  0.96975206  0.98426006  0.15137832  1  0.463729  -0.001957  0.03716  0.073009  -0.003041  3.948455  -0.003
C  C118  1  0.88529201  0.58400243  0.87680064  1  0.464036  -0.007578  0.041766  0.087216  -0.008237  3.920151  -0.005
C  C119  1  0.87713503  0.58612516  0.80703199  1  -0.079539  0.001782  -0.091297  -0.180824  0.000593  3.97151  0.001
C  C120  1  0.96994630  0.48323859  0.76473193  1  0.010144  -0.009163  0.006757  0.108367  -0.00981  3.993736  -0.006
C  C121  1  0.06682354  0.37949992  0.79763712  1  -0.037407  0.001846  -0.089612  -0.17831  0.000609  3.949184  0.002
C  C122  1  0.07145104  0.38462831  0.86731839  1  0.491637  -0.007558  0.043949  0.088356  -0.008217  3.917587  -0.005
C  C123  1  0.97050664  0.48750009  0.68881787  1  0.009234  0.000665  -0.012833  0.056242  0.000135  4.005704  0.001
C  C124  1  0.93890660  0.60554839  0.64711521  1  -0.041504  -0.001358  -0.091913  -0.121888  -0.001483  4.00326  -0.001
C  C125  1  0.94966572  0.61043786  0.57422832  1  -0.028925  0.000347  -0.092066  -0.120678  0.000127  3.988083  0.0
C  C126  1  0.99196758  0.49772626  0.53907906  1  -0.09456  -0.001239  -0.006943  0.066506  -0.001351  3.980058  -0.001
C  C127  1  0.01817792  0.38060316  0.58174146  1  -0.043651  0.000276  -0.092754  -0.122068  9.1e-05  3.979499  0.0
C  C128  1  0.00824289  0.37525264  0.65467519  1  -0.033177  -0.00139  -0.09285  -0.122401  -0.001541  3.986716  -0.001
N  N129  1  0.32599458  0.64374031  0.01074606  1  -1.187118  0.001329  -0.361733  -0.275671  0.000585  3.675986  0.001
N  N130  1  0.13977714  0.82673229  0.01012656  1  -1.150529  -0.00173  -0.35689  -0.266208  -0.002308  3.663271  -0.001
N  N131  1  0.46038673  0.43457368  0.09711468  1  -1.178506  0.014735  -0.339102  -0.181805  0.00792  3.635782  0.012
N  N132  1  0.08708255  0.01471606  0.90167164  1  -1.16877  0.008984  -0.341999  -0.177864  0.00354  3.63517  0.009
N  N133  1  0.01714311  0.51399889  0.09326103  1  -1.201297  -0.008082  -0.34052  -0.193465  -0.007715  3.644205  -0.005
N  N134  1  0.67400546  0.35626041  0.98925432  1  -1.187106  0.001329  -0.361733  -0.275694  0.000585  3.675998  0.001
N  N135  1  0.86022289  0.17326846  0.98987330  1  -1.150464  -0.00173  -0.356875  -0.2662  -0.002308  3.663237  -0.001
N  N136  1  0.53961240  0.56542706  0.90288532  1  -1.178477  0.014735  -0.339101  -0.181846  0.00792  3.635818  0.012
N  N137  1  0.91291749  0.98528467  0.09832874  1  -1.168926  0.008984  -0.341984  -0.177857  0.00354  3.635188  0.009
N  N138  1  0.98285872  0.48600191  0.90673805  1  -1.201519  -0.008082  -0.340574  -0.193648  -0.007714  3.644253  -0.005
O  O139  1  0.41368759  0.41218125  0.97117647  1  -1.059601  0.009375  -0.29974  -0.49358  0.005105  2.33679  0.007
O  O140  1  0.21535220  0.43781889  0.95661472  1  -1.142773  0.038116  -0.288631  -0.497112  0.020706  2.324608  0.03
O  O141  1  0.94173856  0.68405492  0.97528427  1  -1.113417  0.000405  -0.298055  -0.500903  -0.000675  2.508653  -0.001
O  O142  1  0.91009939  0.88916751  0.97133090  1  -1.140624  0.050217  -0.30716  -0.524759  0.027608  2.266071  0.043
O  O143  1  0.58631153  0.58781752  0.02882423  1  -1.05909  0.009373  -0.299748  -0.493593  0.005105  2.336797  0.007
O  O144  1  0.78464783  0.56218184  0.04338566  1  -1.14281  0.038114  -0.288639  -0.49715  0.020706  2.324613  0.03
O  O145  1  0.05826463  0.31594483  0.02471623  1  -1.113455  0.000404  -0.298077  -0.500949  -0.000676  2.508601  -0.001
O  O146  1  0.08990063  0.11083327  0.02866846  1  -1.140604  0.050217  -0.307143  -0.52475  0.027609  2.266139  0.043
