# generated using pymatgen
data_Cu2H4C3S3Cl2
_symmetry_space_group_name_H-M   'P 1'
_cell_length_a   5.81823821
_cell_length_b   10.63912050
_cell_length_c   12.80861442
_cell_angle_alpha   89.99941053
_cell_angle_beta   90.00013731
_cell_angle_gamma   93.38841653
_symmetry_Int_Tables_number   1
_chemical_formula_structural   Cu2H4C3S3Cl2
_chemical_formula_sum   'Cu8 H16 C12 S12 Cl8'
_cell_volume   791.47915152
_cell_formula_units_Z   4
loop_
 _symmetry_equiv_pos_site_id
 _symmetry_equiv_pos_as_xyz
  1  'x, y, z'
loop_
 _atom_site_type_symbol
 _atom_site_label
 _atom_site_symmetry_multiplicity
 _atom_site_fract_x
 _atom_site_fract_y
 _atom_site_fract_z
 _atom_site_occupancy
 _atom_site_pbe_bader_spin_density
 _atom_site_pbe_cm5_charge
 _atom_site_pbe_ddec_charge
 _atom_site_pbe_ddec_spin_density
 _atom_site_pbe_ddec_sum_bond_order
 _atom_site_pbe_magmom
Cu  Cu0  1  0.13712690  0.77847011  0.26421833  1  0  0.326285  0.351345  0  2.628091  0
Cu  Cu1  1  0.36286622  0.22153046  0.76422255  1  0  0.326262  0.351298  0  2.628192  0
Cu  Cu2  1  0.86288191  0.22153330  0.73578192  1  0  0.326284  0.351289  0  2.628249  0
Cu  Cu3  1  0.63712654  0.77846728  0.23577848  1  0  0.326275  0.351302  0  2.62822  0
Cu  Cu4  1  0.48287600  0.45788410  0.33973002  1  0  0.339714  0.341606  0  2.681951  0
Cu  Cu5  1  0.01711552  0.54211549  0.83972876  1  0  0.339732  0.341656  0  2.681927  0
Cu  Cu6  1  0.51711733  0.54211929  0.66027336  1  0  0.339718  0.341628  0  2.68189  0
Cu  Cu7  1  0.98287752  0.45788507  0.16027384  1  0  0.33972  0.341639  0  2.681901  0
H  H8  1  0.44239502  0.80178526  0.68838691  1  0  0.087361  0.109404  0  1.038908  0
H  H9  1  0.05758613  0.19820121  0.18838964  1  0  0.087324  0.109261  0  1.038927  0
H  H10  1  0.55760214  0.19822190  0.31161725  1  0  0.087368  0.109368  0  1.038892  0
H  H11  1  0.94240701  0.80178335  0.81160750  1  0  0.08736  0.109415  0  1.038816  0
H  H12  1  0.55159487  0.95873420  0.65765626  1  0  0.090513  0.124014  0  1.035231  0
H  H13  1  0.94837495  0.04126073  0.15765852  1  0  0.090496  0.123974  0  1.035267  0
H  H14  1  0.44841890  0.04126734  0.34234088  1  0  0.090548  0.124015  0  1.035148  0
H  H15  1  0.05161026  0.95873041  0.84233159  1  0  0.090476  0.12398  0  1.03529  0
H  H16  1  0.86445058  0.87200653  0.54889021  1  0  0.08267  0.111467  0  1.044974  0
H  H17  1  0.63552680  0.12799829  0.04889128  1  0  0.082642  0.111444  0  1.045009  0
H  H18  1  0.13555718  0.12798653  0.45111707  1  0  0.082611  0.11134  0  1.044969  0
H  H19  1  0.36446319  0.87200603  0.95110351  1  0  0.082662  0.111477  0  1.044997  0
H  H20  1  0.86536953  0.78686648  0.66969675  1  0  0.093894  0.128659  0  1.021457  0
H  H21  1  0.63461999  0.21313586  0.16969635  1  0  0.093882  0.128757  0  1.021531  0
H  H22  1  0.13463364  0.21313221  0.33030819  1  0  0.093903  0.128781  0  1.021466  0
H  H23  1  0.36537783  0.78686095  0.83029922  1  0  0.093868  0.128705  0  1.021547  0
C  C24  1  0.47164029  0.72386168  0.46271101  1  0  0.00207  0.009108  0  3.957215  0
C  C25  1  0.02834963  0.27613538  0.96271271  1  0  0.002083  0.009155  0  3.957198  0
C  C26  1  0.52836641  0.27613797  0.53729159  1  0  0.00208  0.009078  0  3.957259  0
C  C27  1  0.97164342  0.72386518  0.03728364  1  0  0.002004  0.008972  0  3.957534  0
C  C28  1  0.53460111  0.86106479  0.63007286  1  0  -0.154989  -0.188038  0  3.884523  0
C  C29  1  0.96537555  0.13893051  0.13007201  1  0  -0.154928  -0.187802  0  3.884467  0
C  C30  1  0.46540636  0.13894239  0.36993520  1  0  -0.155055  -0.188008  0  3.884529  0
C  C31  1  0.03462055  0.86106630  0.86992122  1  0  -0.154963  -0.187992  0  3.884609  0
C  C32  1  0.76247835  0.80971038  0.60167595  1  0  -0.156632  -0.175504  0  3.869568  0
C  C33  1  0.73750800  0.19029660  0.10168370  1  0  -0.156616  -0.175598  0  3.869697  0
C  C34  1  0.23752759  0.19029868  0.39832196  1  0  -0.156581  -0.175469  0  3.869498  0
C  C35  1  0.26249020  0.80970398  0.89831421  1  0  -0.156595  -0.17552  0  3.869612  0
S  S36  1  0.38099460  0.65794398  0.34860207  1  0  -0.224719  -0.261474  0  3.771004  0
S  S37  1  0.11900735  0.34205646  0.84860571  1  0  -0.224738  -0.261502  0  3.771133  0
S  S38  1  0.61901057  0.34205755  0.65140288  1  0  -0.224688  -0.261353  0  3.770868  0
S  S39  1  0.88099276  0.65794599  0.15139220  1  0  -0.22467  -0.261373  0  3.771046  0
S  S40  1  0.35765316  0.85465051  0.51325840  1  0  0.093736  0.181119  0  2.910178  0
S  S41  1  0.14233342  0.14534388  0.01326091  1  0  0.09378  0.181136  0  2.9101  0
S  S42  1  0.64235717  0.14535103  0.48674108  1  0  0.093759  0.18114  0  2.910235  0
S  S43  1  0.85766096  0.85465292  0.98673154  1  0  0.093797  0.181173  0  2.910235  0
S  S44  1  0.69860543  0.66240102  0.53147219  1  0  0.024355  0.126339  0  3.247064  0
S  S45  1  0.80139092  0.33760500  0.03147103  1  0  0.024332  0.126249  0  3.247079  0
S  S46  1  0.30139802  0.33760050  0.46853587  1  0  0.024374  0.126301  0  3.247223  0
S  S47  1  0.19861273  0.66239841  0.96852923  1  0  0.024348  0.126303  0  3.246998  0
Cl  Cl48  1  0.38687587  0.91059830  0.16001234  1  0  -0.298268  -0.420707  0  1.661199  0
Cl  Cl49  1  0.11312738  0.08940364  0.66001725  1  0  -0.298228  -0.420654  0  1.661242  0
Cl  Cl50  1  0.61312787  0.08940605  0.83998792  1  0  -0.298255  -0.420696  0  1.661226  0
Cl  Cl51  1  0.88687225  0.91059411  0.33998301  1  0  -0.298252  -0.420697  0  1.661255  0
Cl  Cl52  1  0.85983180  0.41118469  0.33010885  1  0  -0.306018  -0.437346  0  1.781551  0
Cl  Cl53  1  0.64017365  0.58881750  0.83010662  1  0  -0.306033  -0.437392  0  1.781645  0
Cl  Cl54  1  0.14016669  0.58881871  0.66989452  1  0  -0.306035  -0.437392  0  1.781595  0
Cl  Cl55  1  0.35983095  0.41117838  0.16989520  1  0  -0.306021  -0.437381  0  1.781584  0
