# generated using pymatgen
data_HoH21(C9O2)3
_symmetry_space_group_name_H-M   'P 1'
_cell_length_a   7.86363161
_cell_length_b   11.27804413
_cell_length_c   13.07100000
_cell_angle_alpha   94.23370950
_cell_angle_beta   90.00000000
_cell_angle_gamma   90.00000000
_symmetry_Int_Tables_number   1
_chemical_formula_structural   HoH21(C9O2)3
_chemical_formula_sum   'Ho2 H42 C54 O12'
_cell_volume   1156.05646798
_cell_formula_units_Z   2
loop_
 _symmetry_equiv_pos_site_id
 _symmetry_equiv_pos_as_xyz
  1  'x, y, z'
loop_
 _atom_site_type_symbol
 _atom_site_label
 _atom_site_symmetry_multiplicity
 _atom_site_fract_x
 _atom_site_fract_y
 _atom_site_fract_z
 _atom_site_occupancy
 _atom_site_hle17_bader_spin_density
 _atom_site_hle17_ddec_charge
 _atom_site_hle17_ddec_spin_density
 _atom_site_hle17_ddec_sum_bond_order
 _atom_site_hle17_magmom
 _atom_site_hse06_10hf_bader_spin_density
 _atom_site_hse06_10hf_ddec_charge
 _atom_site_hse06_10hf_ddec_spin_density
 _atom_site_hse06_10hf_ddec_sum_bond_order
 _atom_site_hse06_10hf_magmom
 _atom_site_hse06_bader_spin_density
 _atom_site_hse06_ddec_charge
 _atom_site_hse06_ddec_spin_density
 _atom_site_hse06_ddec_sum_bond_order
 _atom_site_hse06_magmom
 _atom_site_pbe_bader_charge
 _atom_site_pbe_bader_spin_density
 _atom_site_pbe_cm5_charge
 _atom_site_pbe_ddec_charge
 _atom_site_pbe_ddec_spin_density
 _atom_site_pbe_ddec_sum_bond_order
 _atom_site_pbe_magmom
Ho  Ho0  1  0.51472274  0.54117049  0.47452751  1  0  2.255061  0  1.72973  0  0  2.122627  0  2.2039  0  0  2.244378  0  2.027148  0  2.165819  0  1.551711  2.083881  0  2.241066  0
Ho  Ho1  1  0.01472729  0.45882428  0.52547300  1  0  2.255087  0  1.729691  0  0  2.12266  0  2.203873  0  0  2.24442  0  2.027111  0  2.165755  0  1.551719  2.08401  0  2.240864  0
H  H2  1  0.68941556  0.12420971  0.60777118  1  0  0.114123  0  0.952989  0  0  0.125386  0  1.010319  0  0  0.129279  0  1.00922  0  0.054328  0  0.103411  0.122703  0  1.010954  0
H  H3  1  0.18939214  0.87578595  0.39223244  1  0  0.11416  0  0.952969  0  0  0.125478  0  1.010239  0  0  0.129372  0  1.009137  0  0.054348  0  0.103416  0.122796  0  1.010876  0
H  H4  1  0.35253559  0.26432551  0.60274560  1  0  0.101298  0  0.961853  0  0  0.107574  0  1.030295  0  0  0.110561  0  1.027804  0  0.106716  0  0.111562  0.105379  0  1.032202  0
H  H5  1  0.85251959  0.73566749  0.39727010  1  0  0.101272  0  0.961712  0  0  0.107548  0  1.030182  0  0  0.110536  0  1.027691  0  0.106065  0  0.111471  0.105354  0  1.032088  0
H  H6  1  0.55451097  0.95545685  0.59731270  1  0  0.089758  0  0.957366  0  0  0.101921  0  1.017036  0  0  0.104547  0  1.016132  0  0.048253  0  0.100585  0.100063  0  1.017654  0
H  H7  1  0.05451044  0.04453437  0.40269217  1  0  0.089801  0  0.957275  0  0  0.101925  0  1.016997  0  0  0.10455  0  1.016095  0  0.048244  0  0.100546  0.100067  0  1.017615  0
H  H8  1  0.39158371  0.77575278  0.62826276  1  0  0.090587  0  0.991  0  0  0.094847  0  1.063933  0  0  0.098162  0  1.062332  0  0.092321  0  0.100193  0.092184  0  1.065884  0
H  H9  1  0.89159314  0.22423755  0.37173670  1  0  0.09068  0  0.990916  0  0  0.094912  0  1.063884  0  0  0.098238  0  1.062265  0  0.092272  0  0.100192  0.09224  0  1.065857  0
H  H10  1  0.08239450  0.78819313  0.66649150  1  0  0.091082  0  0.979104  0  0  0.100922  0  1.041546  0  0  0.103045  0  1.041694  0  0.113417  0  0.098327  0.099505  0  1.041205  0
H  H11  1  0.58240902  0.21180964  0.33350875  1  0  0.091125  0  0.979161  0  0  0.100986  0  1.041578  0  0  0.103085  0  1.041756  0  0.113461  0  0.098308  0.099582  0  1.041226  0
H  H12  1  0.93397814  0.98415982  0.67033299  1  0  0.080182  0  0.953818  0  0  0.093612  0  1.010603  0  0  0.096271  0  1.009902  0  0.072071  0  0.096246  0.091721  0  1.011157  0
H  H13  1  0.43397760  0.01584562  0.32967356  1  0  0.08014  0  0.95388  0  0  0.093565  0  1.010672  0  0  0.096224  0  1.009971  0  0.072051  0  0.096246  0.091675  0  1.011225  0
H  H14  1  0.09801578  0.16683161  0.63798900  1  0  0.105771  0  0.956088  0  0  0.114528  0  1.020549  0  0  0.118214  0  1.017985  0  0.094689  0  0.108211  0.111825  0  1.022603  0
H  H15  1  0.59799851  0.83317205  0.36202279  1  0  0.10569  0  0.956318  0  0  0.11449  0  1.020728  0  0  0.118123  0  1.018232  0  0.094455  0  0.108147  0.111786  0  1.022781  0
H  H16  1  0.42210777  0.62701622  0.75893308  1  0  0.117166  0  0.958157  0  0  0.126204  0  1.020028  0  0  0.129827  0  1.019553  0  0.064057  0  0.106922  0.12373  0  1.020144  0
H  H17  1  0.92209432  0.37298211  0.24106612  1  0  0.117119  0  0.958261  0  0  0.126024  0  1.02025  0  0  0.129639  0  1.019788  0  0.064011  0  0.106831  0.123551  0  1.020365  0
H  H18  1  0.18930185  0.45228758  0.86402533  1  0  0.09868  0  0.948767  0  0  0.109326  0  1.010464  0  0  0.111847  0  1.008925  0  0.110425  0  0.108124  0.107552  0  1.011409  0
H  H19  1  0.68928712  0.54771430  0.13597334  1  0  0.098787  0  0.94867  0  0  0.109373  0  1.010416  0  0  0.111906  0  1.008868  0  0.110248  0  0.108174  0.107597  0  1.011363  0
H  H20  1  0.18988173  0.45375549  0.04292765  1  0  0.086398  0  0.980258  0  0  0.095736  0  1.04671  0  0  0.097478  0  1.048091  0  0.102065  0  0.096424  0.094463  0  1.045842  0
H  H21  1  0.68987337  0.54624550  0.95706561  1  0  0.086349  0  0.980203  0  0  0.095765  0  1.046575  0  0  0.097507  0  1.047956  0  0.101523  0  0.09642  0.094473  0  1.045727  0
H  H22  1  0.25344270  0.55009622  0.21653742  1  0  0.101467  0  0.948522  0  0  0.110977  0  1.007439  0  0  0.113477  0  1.007393  0  0.077614  0  0.105559  0.109316  0  1.007295  0
H  H23  1  0.75345086  0.44990834  0.78345912  1  0  0.101427  0  0.948447  0  0  0.110947  0  1.007374  0  0  0.113446  0  1.007328  0  0.077571  0  0.105568  0.109285  0  1.00723  0
H  H24  1  0.42213575  0.73630942  0.23345436  1  0  0.100032  0  0.957159  0  0  0.109459  0  1.018271  0  0  0.112571  0  1.016088  0  0.100805  0  0.105012  0.107375  0  1.019525  0
H  H25  1  0.92214391  0.26369780  0.76654923  1  0  0.100036  0  0.957144  0  0  0.109454  0  1.018248  0  0  0.112561  0  1.016077  0  0.100828  0  0.105035  0.107367  0  1.019509  0
H  H26  1  0.52667142  0.82749956  0.07683016  1  0  0.087107  0  0.978657  0  0  0.097377  0  1.040197  0  0  0.099276  0  1.04184  0  0.096272  0  0.096456  0.096015  0  1.039134  0
H  H27  1  0.02667597  0.17251033  0.92317591  1  0  0.08702  0  0.978657  0  0  0.097347  0  1.040151  0  0  0.09924  0  1.041802  0  0.096177  0  0.096423  0.095987  0  1.03908  0
H  H28  1  0.46393323  0.73284725  0.90506001  1  0  0.086842  0  0.959028  0  0  0.098926  0  1.01955  0  0  0.101144  0  1.019338  0  0.05471  0  0.098979  0.097322  0  1.019793  0
H  H29  1  0.96392613  0.26716353  0.09494764  1  0  0.086912  0  0.958975  0  0  0.098988  0  1.019485  0  0  0.101199  0  1.019282  0  0.054196  0  0.098986  0.097383  0  1.019728  0
H  H30  1  0.65489843  0.81824665  0.73850838  1  0  0.112758  0  0.965411  0  0  0.12178  0  1.028945  0  0  0.125672  0  1.027744  0  0.061881  0  0.102759  0.119121  0  1.029579  0
H  H31  1  0.15491061  0.18175435  0.26148870  1  0  0.112826  0  0.965623  0  0  0.121875  0  1.0291  0  0  0.125766  0  1.0279  0  0.061873  0  0.102821  0.119215  0  1.029733  0
H  H32  1  0.95168878  0.66955188  0.81509904  1  0  0.096916  0  0.939073  0  0  0.108105  0  1.000795  0  0  0.110564  0  0.998846  0  0.091808  0  0.108757  0.10639  0  1.001951  0
H  H33  1  0.45169207  0.33045178  0.18489821  1  0  0.096946  0  0.939157  0  0  0.108162  0  1.000851  0  0  0.110615  0  0.998902  0  0.091956  0  0.108797  0.10646  0  1.001965  0
H  H34  1  0.70654124  0.95991304  0.86261224  1  0  0.087437  0  0.957032  0  0  0.099389  0  1.016771  0  0  0.101988  0  1.015886  0  0.063034  0  0.099899  0.097529  0  1.017441  0
H  H35  1  0.20653562  0.04009329  0.13738671  1  0  0.087438  0  0.957034  0  0  0.099369  0  1.01679  0  0  0.101968  0  1.015906  0  0.063118  0  0.099929  0.09751  0  1.01746  0
H  H36  1  0.69712320  0.07454610  0.03024536  1  0  0.086995  0  0.971596  0  0  0.09663  0  1.033598  0  0  0.098447  0  1.034895  0  0.086419  0  0.09665  0.095277  0  1.03282  0
H  H37  1  0.19710867  0.92545846  0.96975577  1  0  0.087052  0  0.971545  0  0  0.096621  0  1.03361  0  0  0.098453  0  1.034892  0  0.086558  0  0.09662  0.095252  0  1.032848  0
H  H38  1  0.83677114  0.99673532  0.18262052  1  0  0.0792  0  0.998331  0  0  0.087019  0  1.064752  0  0  0.088251  0  1.066689  0  0.07981  0  0.093728  0.086093  0  1.063475  0
H  H39  1  0.33676679  0.00326301  0.81737639  1  0  0.079217  0  0.998366  0  0  0.087047  0  1.064775  0  0  0.088277  0  1.066711  0  0.079714  0  0.093711  0.086121  0  1.063498  0
H  H40  1  0.98892730  0.80190935  0.16526284  1  0  0.08952  0  0.956446  0  0  0.099263  0  1.016519  0  0  0.101103  0  1.017685  0  0.10501  0  0.098199  0.097922  0  1.015784  0
H  H41  1  0.48893186  0.19808987  0.83473490  1  0  0.089523  0  0.95634  0  0  0.099244  0  1.016446  0  0  0.101085  0  1.017615  0  0.104965  0  0.098204  0.097921  0  1.015689  0
H  H42  1  0.99982430  0.68662625  0.99629452  1  0  0.087862  0  0.975461  0  0  0.096265  0  1.041947  0  0  0.09788  0  1.043287  0  0.116457  0  0.097221  0.095075  0  1.041097  0
H  H43  1  0.49983267  0.31336852  0.00370063  1  0  0.087813  0  0.975486  0  0  0.096198  0  1.041986  0  0  0.097812  0  1.043326  0  0.116555  0  0.097212  0.095006  0  1.041141  0
C  C44  1  0.67938457  0.31409048  0.58999557  1  0  0.759283  0  3.870404  0  0  0.719265  0  4.151939  0  0  0.756824  0  4.144601  0  1.476256  0  0.226796  0.693938  0  4.159446  0
C  C45  1  0.17938150  0.68590519  0.41000653  1  0  0.759466  0  3.870011  0  0  0.719482  0  4.151502  0  0  0.757043  0  4.144152  0  1.477398  0  0.226911  0.694158  0  4.159005  0
C  C46  1  0.60111031  0.19812010  0.60324114  1  0  -0.266564  0  3.680724  0  0  -0.277539  0  3.930065  0  0  -0.291648  0  3.946157  0  0.030287  0  -0.10427  -0.267746  0  3.917823  0
C  C47  1  0.10109070  0.80188090  0.39676206  1  0  -0.266619  0  3.680695  0  0  -0.277657  0  3.930047  0  0  -0.291761  0  3.946135  0  0.029367  0  -0.104264  -0.267872  0  3.91781  0
C  C48  1  0.43057968  0.18469462  0.60704207  1  0  -0.007615  0  3.699309  0  0  -0.032323  0  3.944554  0  0  -0.025264  0  3.960055  0  -0.066657  0  -0.061219  -0.03655  0  3.933028  0
C  C49  1  0.93057386  0.81529571  0.39296657  1  0  -0.007595  0  3.699301  0  0  -0.032312  0  3.944561  0  0  -0.025257  0  3.960064  0  -0.066375  0  -0.061158  -0.036545  0  3.933025  0
C  C50  1  0.33861327  0.07495864  0.61898253  1  0  0.063084  0  3.826935  0  0  0.084955  0  4.055653  0  0  0.082081  0  4.080969  0  -0.065545  0  -0.014171  0.086769  0  4.03835  0
C  C51  1  0.83860744  0.92503435  0.38101481  1  0  0.063111  0  3.826827  0  0  0.085017  0  4.055535  0  0  0.08215  0  4.080836  0  -0.065528  0  -0.014256  0.086857  0  4.038186  0
C  C52  1  0.41943725  0.96311649  0.61550163  1  0  -0.109997  0  3.725628  0  0  -0.127551  0  3.966431  0  0  -0.129075  0  3.987201  0  -0.101972  0  -0.086279  -0.126235  0  3.95199  0
C  C53  1  0.91944033  0.03687206  0.38449466  1  0  -0.110118  0  3.725305  0  0  -0.127667  0  3.966131  0  0  -0.129194  0  3.986909  0  -0.102025  0  -0.086256  -0.126357  0  3.951675  0
C  C54  1  0.32743650  0.86144647  0.63290040  1  0  -0.074802  0  3.778437  0  0  -0.087745  0  4.030117  0  0  -0.090373  0  4.050476  0  -0.038458  0  -0.092891  -0.0858  0  4.015885  0
C  C55  1  0.82744466  0.13854652  0.36709693  1  0  -0.074783  0  3.778046  0  0  -0.087676  0  4.0297  0  0  -0.090311  0  4.050072  0  -0.038322  0  -0.092846  -0.085733  0  4.015466  0
C  C56  1  0.15296368  0.86875313  0.65355480  1  0  -0.061798  0  3.7421  0  0  -0.074997  0  3.985146  0  0  -0.076519  0  4.007898  0  -0.03621  0  -0.088249  -0.073618  0  3.969073  0
C  C57  1  0.65297184  0.13124786  0.34644458  1  0  -0.062011  0  3.742102  0  0  -0.075247  0  3.985174  0  0  -0.076756  0  4.007951  0  -0.050437  0  -0.088249  -0.073875  0  3.969086  0
C  C58  1  0.07032247  0.97853623  0.65518325  1  0  -0.073696  0  3.78922  0  0  -0.084934  0  4.036526  0  0  -0.088288  0  4.059958  0  -0.13952  0  -0.092774  -0.082625  0  4.02043  0
C  C59  1  0.57032173  0.02146299  0.34481678  1  0  -0.073459  0  3.789191  0  0  -0.084691  0  4.036514  0  0  -0.088038  0  4.059921  0  -0.12525  0  -0.092757  -0.082386  0  4.020422  0
C  C60  1  0.16189466  0.08086052  0.63729818  1  0  -0.103515  0  3.697571  0  0  -0.12231  0  3.939688  0  0  -0.124163  0  3.960419  0  0.007715  0  -0.078959  -0.120748  0  3.925337  0
C  C61  1  0.66188630  0.91913603  0.36270473  1  0  -0.103513  0  3.697883  0  0  -0.122346  0  3.939994  0  0  -0.124162  0  3.960743  0  0.007875  0  -0.078855  -0.120789  0  3.925631  0
C  C62  1  0.25735565  0.49806759  0.67591780  1  0  0.714581  0  3.898988  0  0  0.673338  0  4.182469  0  0  0.709198  0  4.180212  0  1.471159  0  0.198866  0.648202  0  4.1897  0
C  C63  1  0.75734219  0.50193075  0.32408753  1  0  0.714613  0  3.898902  0  0  0.673271  0  4.18244  0  0  0.709135  0  4.180193  0  1.471962  0  0.198886  0.64816  0  4.18962  0
C  C64  1  0.33209720  0.55538906  0.76921563  1  0  -0.241699  0  3.648583  0  0  -0.253132  0  3.896707  0  0  -0.267349  0  3.912658  0  -0.082422  0  -0.098379  -0.243165  0  3.884866  0
C  C65  1  0.83208628  0.44461816  0.23078338  1  0  -0.2416  0  3.648581  0  0  -0.252819  0  3.896608  0  0  -0.267033  0  3.91257  0  -0.082418  0  -0.098287  -0.242863  0  3.884759  0
C  C66  1  0.27917763  0.52633222  0.86265433  1  0  -0.004699  0  3.69026  0  0  -0.027271  0  3.931739  0  0  -0.018893  0  3.94649  0  0.005935  0  -0.056647  -0.032499  0  3.921006  0
C  C67  1  0.77916671  0.47367766  0.13734255  1  0  -0.004846  0  3.690265  0  0  -0.027411  0  3.931727  0  0  -0.019047  0  3.946473  0  0.005853  0  -0.056716  -0.032636  0  3.920997  0
C  C68  1  0.32371176  0.58507449  0.96175913  1  0  0.048873  0  3.844695  0  0  0.069537  0  4.075884  0  0  0.066034  0  4.100617  0  0.014138  0  -0.017584  0.071786  0  4.059077  0
C  C69  1  0.82369957  0.41493274  0.03824217  1  0  0.048836  0  3.844611  0  0  0.069505  0  4.075782  0  0  0.066001  0  4.100514  0  0.014454  0  -0.017634  0.071753  0  4.058974  0
C  C70  1  0.26421507  0.53559047  0.05110880  1  0  -0.110506  0  3.728265  0  0  -0.128501  0  3.971541  0  0  -0.130805  0  3.994545  0  -0.131115  0  -0.085653  -0.126752  0  3.955937  0
C  C71  1  0.76420925  0.46441053  0.94888675  1  0  -0.110458  0  3.72814  0  0  -0.128514  0  3.971391  0  0  -0.130817  0  3.994393  0  -0.130675  0  -0.085644  -0.12675  0  3.955793  0
C  C72  1  0.29894203  0.58981075  0.14809173  1  0  -0.067051  0  3.747345  0  0  -0.079754  0  3.998496  0  0  -0.082823  0  4.020359  0  -0.037368  0  -0.087332  -0.077606  0  3.983328  0
C  C73  1  0.79895019  0.41019470  0.85190716  1  0  -0.066902  0  3.747251  0  0  -0.079599  0  3.99838  0  0  -0.082669  0  4.020243  0  -0.037243  0  -0.087298  -0.07745  0  3.983206  0
C  C74  1  0.39347850  0.69501851  0.15752988  1  0  -0.043244  0  3.716365  0  0  -0.059589  0  3.965197  0  0  -0.059591  0  3.983997  0  -0.032036  0  -0.078905  -0.059301  0  3.951983  0
C  C75  1  0.89348794  0.30498960  0.84247224  1  0  -0.043348  0  3.716342  0  0  -0.059694  0  3.965211  0  0  -0.059693  0  3.984003  0  -0.032111  0  -0.078974  -0.059407  0  3.951997  0
C  C76  1  0.45306929  0.74546631  0.06963323  1  0  -0.077222  0  3.77883  0  0  -0.088419  0  4.024814  0  0  -0.091765  0  4.047444  0  -0.143141  0  -0.090527  -0.086133  0  4.009387  0
C  C77  1  0.95306601  0.25454180  0.93037348  1  0  -0.077127  0  3.778951  0  0  -0.088361  0  4.02491  0  0  -0.091704  0  4.047545  0  -0.143203  0  -0.090497  -0.086073  0  4.009481  0
C  C78  1  0.41852800  0.69144431  0.97274709  1  0  -0.104522  0  3.72834  0  0  -0.121015  0  3.968294  0  0  -0.122361  0  3.989427  0  -0.002859  0  -0.08468  -0.11989  0  3.953925  0
C  C79  1  0.91851454  0.30856024  0.02725634  1  0  -0.104569  0  3.72852  0  0  -0.121058  0  3.96847  0  0  -0.122399  0  3.989599  0  -0.002336  0  -0.084628  -0.119933  0  3.954103  0
C  C80  1  0.77233399  0.67345683  0.64392861  1  0  0.762121  0  3.877393  0  0  0.721995  0  4.160178  0  0  0.759662  0  4.152214  0  1.506213  0  0.230218  0.696488  0  4.168453  0
C  C81  1  0.27234236  0.32654150  0.35606830  1  0  0.76178  0  3.87774  0  0  0.721729  0  4.160446  0  0  0.759418  0  4.152451  0  1.507056  0  0.229967  0.696216  0  4.168715  0
C  C82  1  0.75679156  0.75259338  0.73819448  1  0  -0.273333  0  3.670164  0  0  -0.285271  0  3.920856  0  0  -0.299227  0  3.934727  0  -0.021678  0  -0.105614  -0.275544  0  3.910012  0
C  C83  1  0.25679865  0.24739339  0.26180705  1  0  -0.273268  0  3.669759  0  0  -0.285265  0  3.920461  0  0  -0.299229  0  3.934322  0  -0.021716  0  -0.10564  -0.275534  0  3.909614  0
C  C84  1  0.85779959  0.74145556  0.82065692  1  0  -0.007915  0  3.711718  0  0  -0.032168  0  3.95784  0  0  -0.023516  0  3.972319  0  -0.062143  0  -0.05949  -0.037534  0  3.947175  0
C  C85  1  0.35781051  0.25854544  0.17933480  1  0  -0.008021  0  3.711445  0  0  -0.03234  0  3.957602  0  0  -0.023681  0  3.972072  0  -0.062355  0  -0.059567  -0.037698  0  3.94694  0
C  C86  1  0.85179092  0.81359041  0.91761198  1  0  0.05507  0  3.830908  0  0  0.07623  0  4.06127  0  0  0.072611  0  4.086675  0  0.020305  0  -0.015702  0.078545  0  4.043991  0
C  C87  1  0.35178911  0.18641148  0.08238133  1  0  0.055029  0  3.831202  0  0  0.076266  0  4.061447  0  0  0.072647  0  4.086852  0  0.020361  0  -0.015671  0.078575  0  4.044174  0
C  C88  1  0.76743168  0.92411858  0.92867509  1  0  -0.10204  0  3.717301  0  0  -0.119651  0  3.956727  0  0  -0.121341  0  3.978142  0  -0.053285  0  -0.083629  -0.118322  0  3.942118  0
C  C89  1  0.26741970  0.07588954  0.07132245  1  0  -0.102007  0  3.717253  0  0  -0.119609  0  3.956606  0  0  -0.121297  0  3.978022  0  -0.053268  0  -0.08369  -0.118282  0  3.941993  0
C  C90  1  0.76288925  0.98929351  0.02319461  1  0  -0.071961  0  3.774004  0  0  -0.08257  0  4.019813  0  0  -0.08507  0  4.041212  0  -0.126846  0  -0.090096  -0.08087  0  4.005265  0
C  C91  1  0.26288108  0.01071282  0.97680128  1  0  -0.072057  0  3.773773  0  0  -0.082604  0  4.019546  0  0  -0.085117  0  4.04094  0  -0.126855  0  -0.090064  -0.080891  0  4.005009  0
C  C92  1  0.84206132  0.94562958  0.10866515  1  0  -0.060735  0  3.747185  0  0  -0.074028  0  3.991924  0  0  -0.074751  0  4.012726  0  -0.033193  0  -0.085634  -0.073353  0  3.977664  0
C  C93  1  0.34205697  0.05437142  0.89132887  1  0  -0.060731  0  3.747213  0  0  -0.074029  0  3.991904  0  0  -0.074753  0  4.012712  0  -0.03311  0  -0.085599  -0.073359  0  3.977646  0
C  C94  1  0.92720264  0.83655598  0.09894173  1  0  -0.067124  0  3.762548  0  0  -0.077427  0  4.006602  0  0  -0.080163  0  4.028034  0  -0.046476  0  -0.088492  -0.075577  0  3.992026  0
C  C95  1  0.42719829  0.16344324  0.90105371  1  0  -0.067032  0  3.762682  0  0  -0.077332  0  4.006759  0  0  -0.080069  0  4.02819  0  -0.046534  0  -0.088438  -0.075494  0  3.992173  0
C  C96  1  0.93304854  0.77158910  0.00405982  1  0  -0.103906  0  3.718761  0  0  -0.122039  0  3.961099  0  0  -0.123757  0  3.983092  0  -0.118753  0  -0.083279  -0.120723  0  3.946191  0
C  C97  1  0.43305055  0.22840923  0.99593403  1  0  -0.1039  0  3.718887  0  0  -0.122038  0  3.9612  0  0  -0.123752  0  3.983187  0  -0.119114  0  -0.083337  -0.120723  0  3.946304  0
O  O98  1  0.58461920  0.40594833  0.58457601  1  0  -0.793698  0  2.073882  0  0  -0.739691  0  2.332677  0  0  -0.778782  0  2.320542  0  -1.213284  0  -0.431079  -0.72038  0  2.339927  0
O  O99  1  0.08461612  0.59404377  0.41542892  1  0  -0.793826  0  2.073939  0  0  -0.739863  0  2.332821  0  0  -0.77896  0  2.320675  0  -1.213232  0  -0.431195  -0.720568  0  2.340065  0
O  O100  1  0.84180953  0.31844887  0.58480000  1  0  -0.738724  0  1.990116  0  0  -0.687313  0  2.246686  0  0  -0.72353  0  2.230913  0  -1.149472  0  -0.410785  -0.669273  0  2.255281  0
O  O101  1  0.34180391  0.68154857  0.41519761  1  0  -0.738782  0  1.989946  0  0  -0.687411  0  2.246564  0  0  -0.723621  0  2.230778  0  -1.149413  0  -0.410817  -0.669356  0  2.25516  0
O  O102  1  0.28616168  0.54379513  0.58820093  1  0  -0.86637  0  2.111232  0  0  -0.808428  0  2.382972  0  0  -0.853656  0  2.369068  0  -1.20876  0  -0.460574  -0.789506  0  2.392519  0
O  O103  1  0.78614441  0.45619520  0.41179929  1  0  -0.866344  0  2.111175  0  0  -0.808451  0  2.383074  0  0  -0.853628  0  2.369046  0  -1.209268  0  -0.46058  -0.789531  0  2.392598  0
O  O104  1  0.15354356  0.41183154  0.67711050  1  0  -0.680392  0  1.962036  0  0  -0.63254  0  2.203508  0  0  -0.665109  0  2.193061  0  -1.168819  0  -0.372201  -0.61554  0  2.210061  0
O  O105  1  0.65353011  0.58816501  0.32289318  1  0  -0.680529  0  1.962108  0  0  -0.632582  0  2.203557  0  0  -0.665156  0  2.19311  0  -1.168895  0  -0.372236  -0.615576  0  2.210097  0
O  O106  1  0.65268317  0.67724531  0.57740227  1  0  -0.768458  0  2.002556  0  0  -0.717371  0  2.263728  0  0  -0.755167  0  2.246433  0  -1.189883  0  -0.422188  -0.699395  0  2.273948  0
O  O107  1  0.15268772  0.32275302  0.42259387  1  0  -0.768339  0  2.002651  0  0  -0.717238  0  2.263731  0  0  -0.75505  0  2.246428  0  -1.190575  0  -0.422091  -0.699274  0  2.273945  0
O  O108  1  0.90058263  0.60464635  0.63163944  1  0  -0.767654  0  2.049252  0  0  -0.719614  0  2.314221  0  0  -0.75742  0  2.299192  0  -1.220068  0  -0.4135  -0.701523  0  2.322856  0
O  O109  1  0.40058464  0.39535909  0.36835410  1  0  -0.767487  0  2.049543  0  0  -0.719437  0  2.314376  0  0  -0.757244  0  2.299326  0  -1.220041  0  -0.413331  -0.701365  0  2.323107  0
