# generated using pymatgen
data_NiH24C32N6(Cl2O3)2
_symmetry_space_group_name_H-M   'P 1'
_cell_length_a   10.87666354
_cell_length_b   12.07956368
_cell_length_c   14.15236973
_cell_angle_alpha   106.53887641
_cell_angle_beta   89.99067909
_cell_angle_gamma   116.76121567
_symmetry_Int_Tables_number   1
_chemical_formula_structural   NiH24C32N6(Cl2O3)2
_chemical_formula_sum   'Ni2 H48 C64 N12 Cl8 O12'
_cell_volume   1573.66314180
_cell_formula_units_Z   2
loop_
 _symmetry_equiv_pos_site_id
 _symmetry_equiv_pos_as_xyz
  1  'x, y, z'
loop_
 _atom_site_type_symbol
 _atom_site_label
 _atom_site_symmetry_multiplicity
 _atom_site_fract_x
 _atom_site_fract_y
 _atom_site_fract_z
 _atom_site_occupancy
 _atom_site_pbe_bader_spin_density
 _atom_site_pbe_cm5_charge
 _atom_site_pbe_ddec_charge
 _atom_site_pbe_ddec_spin_density
 _atom_site_pbe_ddec_sum_bond_order
 _atom_site_pbe_magmom
Ni  Ni0  1  0.69853926  0.00002406  0.25006015  1  0  0.673014  0.412999  0  2.850022  0
Ni  Ni1  1  0.30146063  0.99997627  0.74994292  1  0  0.673049  0.413004  0  2.849961  0
H  H2  1  0.54566713  0.06349867  0.12516234  1  0  0.11848  0.089691  0  1.085308  0
H  H3  1  0.51796824  0.06352575  0.62527795  1  0  0.118387  0.089337  0  1.085034  0
H  H4  1  0.45433871  0.93650437  0.87483707  1  0  0.118507  0.089694  0  1.085329  0
H  H5  1  0.48202858  0.93646845  0.37471885  1  0  0.118391  0.089342  0  1.084962  0
H  H6  1  0.31951573  0.06502323  0.12007846  1  0  0.111306  0.125009  0  1.006959  0
H  H7  1  0.74566195  0.06517360  0.62025150  1  0  0.111379  0.125136  0  1.00753  0
H  H8  1  0.68049109  0.93498177  0.87992137  1  0  0.111276  0.124993  0  1.00709  0
H  H9  1  0.25433724  0.93482535  0.37974349  1  0  0.111409  0.125157  0  1.007491  0
H  H10  1  0.07310717  0.92575700  0.08831735  1  0  0.106062  0.121942  0  1.054565  0
H  H11  1  0.85253838  0.92568158  0.58844491  1  0  0.106269  0.122216  0  1.054319  0
H  H12  1  0.92688768  0.07424611  0.91168349  1  0  0.106105  0.12202  0  1.054491  0
H  H13  1  0.14746658  0.07432522  0.41155248  1  0  0.106291  0.122212  0  1.054343  0
H  H14  1  0.85051478  0.93767326  0.09527947  1  0  0.112696  0.091007  0  1.049168  0
H  H15  1  0.08702417  0.93756445  0.59531165  1  0  0.112756  0.090922  0  1.049226  0
H  H16  1  0.14947941  0.06232301  0.90471990  1  0  0.112675  0.090967  0  1.049238  0
H  H17  1  0.91297514  0.06243472  0.40468763  1  0  0.112737  0.090898  0  1.049224  0
H  H18  1  0.52233971  0.85470814  0.05794506  1  0  0.122112  0.098402  0  1.044269  0
H  H19  1  0.33245942  0.85460597  0.55777854  1  0  0.121716  0.097845  0  1.044633  0
H  H20  1  0.47765941  0.14529433  0.94206201  1  0  0.122117  0.098434  0  1.04428  0
H  H21  1  0.66753734  0.14539729  0.44222516  1  0  0.121717  0.097821  0  1.044561  0
H  H22  1  0.43591312  0.63613016  0.94026767  1  0  0.113603  0.126491  0  1.005736  0
H  H23  1  0.20023889  0.63597791  0.44014941  1  0  0.113594  0.126913  0  1.005959  0
H  H24  1  0.56408604  0.36387607  0.05973738  1  0  0.113614  0.12649  0  1.005768  0
H  H25  1  0.79975918  0.36402430  0.55985265  1  0  0.113582  0.126919  0  1.005964  0
H  H26  1  0.61894918  0.54242079  0.15898330  1  0  0.104987  0.11096  0  1.039201  0
H  H27  1  0.92352162  0.54252203  0.65902824  1  0  0.105258  0.111235  0  1.038107  0
H  H28  1  0.38103911  0.45757472  0.84102014  1  0  0.104966  0.110997  0  1.039191  0
H  H29  1  0.07647143  0.45748300  0.34097231  1  0  0.105252  0.111214  0  1.038126  0
H  H30  1  0.69471987  0.76599797  0.27014237  1  0  0.123095  0.10219  0  0.996105  0
H  H31  1  0.07163749  0.76602211  0.77017885  1  0  0.123061  0.101759  0  0.996619  0
H  H32  1  0.30527080  0.23399678  0.72986515  1  0  0.123109  0.102229  0  0.996021  0
H  H33  1  0.92835788  0.23398205  0.22982364  1  0  0.123033  0.10173  0  0.996612  0
H  H34  1  0.65624760  0.31035981  0.20128121  1  0  0.099527  0.118892  0  1.050149  0
H  H35  1  0.65312417  0.30982954  0.70119019  1  0  0.099466  0.118766  0  1.050957  0
H  H36  1  0.34375641  0.68964692  0.79871475  1  0  0.099566  0.118957  0  1.050076  0
H  H37  1  0.34687489  0.69015258  0.29881602  1  0  0.099441  0.118807  0  1.050993  0
H  H38  1  0.50175968  0.25632937  0.33132911  1  0  0.095106  0.094503  0  1.037376  0
H  H39  1  0.75429834  0.25611358  0.83105297  1  0  0.094432  0.093586  0  1.038878  0
H  H40  1  0.49824879  0.74366972  0.66866874  1  0  0.095127  0.094517  0  1.037388  0
H  H41  1  0.24569409  0.74387369  0.16895930  1  0  0.094444  0.093574  0  1.038798  0
H  H42  1  0.55123751  0.42095701  0.49506505  1  0  0.09442  0.098306  0  1.0587  0
H  H43  1  0.87001800  0.42100961  0.99457465  1  0  0.094776  0.09914  0  1.057057  0
H  H44  1  0.44877146  0.57904310  0.50493373  1  0  0.09441  0.098295  0  1.058668  0
H  H45  1  0.12998045  0.57898417  0.00543267  1  0  0.094759  0.099146  0  1.057009  0
H  H46  1  0.74805490  0.64844640  0.52977679  1  0  0.102878  0.122971  0  1.00393  0
H  H47  1  0.90076211  0.64847318  0.02916714  1  0  0.102577  0.123061  0  1.003429  0
H  H48  1  0.25194486  0.35155736  0.47021783  1  0  0.102873  0.122957  0  1.003994  0
H  H49  1  0.09924627  0.35152392  0.97082958  1  0  0.102602  0.123042  0  1.003379  0
C  C50  1  0.47714157  0.03363532  0.17946306  1  0  0.047338  0.079476  0  3.890155  0
C  C51  1  0.55657148  0.03366496  0.67959511  1  0  0.047801  0.080545  0  3.889436  0
C  C52  1  0.52286424  0.96636580  0.82053664  1  0  0.047356  0.079536  0  3.890064  0
C  C53  1  0.44342458  0.96633323  0.32040396  1  0  0.047825  0.080576  0  3.889312  0
C  C54  1  0.35009475  0.03482173  0.17769054  1  0  -0.072846  -0.146389  0  3.895631  0
C  C55  1  0.68478504  0.03484607  0.67780962  1  0  -0.073714  -0.147939  0  3.897796  0
C  C56  1  0.64990824  0.96517928  0.82230702  1  0  -0.072771  -0.146356  0  3.895673  0
C  C57  1  0.31521513  0.96515298  0.32218751  1  0  -0.073754  -0.147942  0  3.897793  0
C  C58  1  0.26553075  0.99999176  0.24994161  1  0  0.019561  0.108683  0  3.95752  0
C  C59  1  0.73446981  0.00000624  0.75005388  1  0  0.019598  0.10881  0  3.957383  0
C  C60  1  0.13004400  0.00001453  0.24991992  1  0  0.01635  0.113426  0  3.947399  0
C  C61  1  0.86995668  0.99998554  0.75007815  1  0  0.016279  0.113376  0  3.947513  0
C  C62  1  0.04444828  0.96182056  0.16029156  1  0  -0.081081  -0.161741  0  3.917399  0
C  C63  1  0.91728786  0.96178583  0.66041071  1  0  -0.081734  -0.162158  0  3.918076  0
C  C64  1  0.95554921  0.03818048  0.83970671  1  0  -0.081088  -0.161802  0  3.917335  0
C  C65  1  0.08271568  0.03821812  0.33958748  1  0  -0.081813  -0.162111  0  3.918053  0
C  C66  1  0.91808254  0.96390730  0.16316934  1  0  0.042812  0.073512  0  3.921751  0
C  C67  1  0.04569766  0.96378812  0.66322170  1  0  0.043017  0.073627  0  3.921678  0
C  C68  1  0.08191626  0.03609086  0.83682902  1  0  0.042803  0.07351  0  3.921678  0
C  C69  1  0.95430257  0.03621104  0.33677758  1  0  0.043081  0.073665  0  3.921632  0
C  C70  1  0.54237995  0.78330386  0.07794340  1  0  0.053418  0.091553  0  3.891263  0
C  C71  1  0.24108708  0.78321143  0.57785033  1  0  0.05402  0.091789  0  3.891952  0
C  C72  1  0.45762408  0.21669741  0.92205917  1  0  0.053468  0.091583  0  3.891413  0
C  C73  1  0.75890870  0.21679172  0.42215123  1  0  0.054101  0.091939  0  3.891779  0
C  C74  1  0.49512815  0.65836621  0.01103936  1  0  -0.069662  -0.143934  0  3.90621  0
C  C75  1  0.16334648  0.65827077  0.51097231  1  0  -0.069362  -0.144063  0  3.906479  0
C  C76  1  0.50487078  0.34163220  0.98896400  1  0  -0.069649  -0.143928  0  3.906289  0
C  C77  1  0.83664927  0.34173230  0.48902781  1  0  -0.069386  -0.144163  0  3.906428  0
C  C78  1  0.52274286  0.56634856  0.03554396  1  0  0.017622  0.104852  0  3.9357  0
C  C79  1  0.04369041  0.56632765  0.53554327  1  0  0.017617  0.104606  0  3.93746  0
C  C80  1  0.47725220  0.43364580  0.96445570  1  0  0.017574  0.104866  0  3.935711  0
C  C81  1  0.95630830  0.43367952  0.46446127  1  0  0.017594  0.104699  0  3.937187  0
C  C82  1  0.59522023  0.60723544  0.13172101  1  0  -0.075867  -0.154383  0  3.923818  0
C  C83  1  0.01209014  0.60728671  0.63172758  1  0  -0.075561  -0.15367  0  3.92378  0
C  C84  1  0.40477725  0.39276376  0.86827899  1  0  -0.075862  -0.154512  0  3.92391  0
C  C85  1  0.98790658  0.39271648  0.36827469  1  0  -0.075588  -0.153742  0  3.923665  0
C  C86  1  0.63866244  0.73296385  0.19555169  1  0  0.047494  0.082284  0  3.894635  0
C  C87  1  0.09456585  0.73296994  0.69555102  1  0  0.046713  0.081167  0  3.894675  0
C  C88  1  0.36132913  0.26703271  0.80445339  1  0  0.047525  0.082334  0  3.894484  0
C  C89  1  0.90543089  0.26703513  0.30445024  1  0  0.046781  0.081343  0  3.894497  0
C  C90  1  0.81052447  0.60473307  0.38557493  1  0  -0.000569  0.06985  0  4.053574  0
C  C91  1  0.79380723  0.60447573  0.88521343  1  0  -0.000246  0.069587  0  4.052715  0
C  C92  1  0.18947756  0.39526786  0.61442120  1  0  -0.000595  0.069799  0  4.053339  0
C  C93  1  0.20619466  0.39551573  0.11478631  1  0  -0.000274  0.069557  0  4.052701  0
C  C94  1  0.78531602  0.50894936  0.29340339  1  0  -0.002672  0.06226  0  4.075758  0
C  C95  1  0.72286322  0.50853204  0.79317784  1  0  -0.002836  0.062745  0  4.075535  0
C  C96  1  0.21469043  0.49106041  0.70659535  1  0  -0.002681  0.062203  0  4.075584  0
C  C97  1  0.27713401  0.49145562  0.20682321  1  0  -0.002844  0.062641  0  4.075562  0
C  C98  1  0.67319728  0.38345043  0.27319362  1  0  -0.107272  -0.161935  0  4.004811  0
C  C99  1  0.70946201  0.38301608  0.77301970  1  0  -0.107237  -0.162927  0  4.004951  0
C  C100  1  0.32681412  0.61655821  0.72680205  1  0  -0.107375  -0.162114  0  4.004757  0
C  C101  1  0.29053247  0.61696793  0.22698551  1  0  -0.107183  -0.162917  0  4.005044  0
C  C102  1  0.58887854  0.35385623  0.34592732  1  0  -0.096738  -0.064688  0  4.004276  0
C  C103  1  0.76470781  0.35362899  0.84560262  1  0  -0.095802  -0.06291  0  4.004484  0
C  C104  1  0.41112995  0.64614658  0.65406781  1  0  -0.096713  -0.064553  0  4.004085  0
C  C105  1  0.23529460  0.64636168  0.15440049  1  0  -0.095816  -0.062912  0  4.004459  0
C  C106  1  0.61617186  0.44791105  0.43859269  1  0  -0.095758  -0.075255  0  3.993309  0
C  C107  1  0.83171500  0.44780775  0.93816636  1  0  -0.096497  -0.076317  0  3.993962  0
C  C108  1  0.38383523  0.55208899  0.56140466  1  0  -0.095765  -0.075303  0  3.993181  0
C  C109  1  0.16828074  0.55218610  0.06184238  1  0  -0.096538  -0.076328  0  3.993843  0
C  C110  1  0.72651153  0.57352751  0.45843902  1  0  -0.09734  -0.132982  0  3.996665  0
C  C111  1  0.84705356  0.57342329  0.95794918  1  0  -0.097196  -0.13297  0  3.993927  0
C  C112  1  0.27349325  0.42647339  0.54155640  1  0  -0.097304  -0.132906  0  3.996446  0
C  C113  1  0.15295445  0.42657305  0.04205162  1  0  -0.097157  -0.132836  0  3.993491  0
N  N114  1  0.75827153  0.15741075  0.03973250  1  0  0.090645  0.713755  0  4.449011  0
N  N115  1  0.39900739  0.15731762  0.53985011  1  0  0.089971  0.713527  0  4.451887  0
N  N116  1  0.24173316  0.84260286  0.96026566  1  0  0.090626  0.713851  0  4.449032  0
N  N117  1  0.60099147  0.84267880  0.46015212  1  0  0.090029  0.71359  0  4.451863  0
N  N118  1  0.52324092  0.00003304  0.24996988  1  0  -0.334693  -0.155645  0  3.650021  0
N  N119  1  0.47675848  0.99997000  0.75002953  1  0  -0.334711  -0.155686  0  3.649974  0
N  N120  1  0.87317719  0.00007885  0.25000017  1  0  -0.340225  -0.160933  0  3.678932  0
N  N121  1  0.12681976  0.99991746  0.74999991  1  0  -0.340142  -0.160778  0  3.678842  0
N  N122  1  0.61484604  0.82147334  0.16856266  1  0  -0.335988  -0.15883  0  3.653629  0
N  N123  1  0.20684491  0.82145267  0.66848826  1  0  -0.336464  -0.157859  0  3.652418  0
N  N124  1  0.38515111  0.17852518  0.83144284  1  0  -0.336059  -0.158898  0  3.653589  0
N  N125  1  0.79315173  0.17854853  0.33151288  1  0  -0.336507  -0.157997  0  3.652398  0
Cl  Cl126  1  0.94562272  0.76132294  0.40912057  1  0  0.012085  -0.059675  0  1.670191  0
Cl  Cl127  1  0.81547161  0.76109649  0.90875590  1  0  0.011861  -0.059792  0  1.669829  0
Cl  Cl128  1  0.05437018  0.23868179  0.59087425  1  0  0.012088  -0.059673  0  1.670184  0
Cl  Cl129  1  0.18454010  0.23889438  0.09123240  1  0  0.011858  -0.059824  0  1.669916  0
Cl  Cl130  1  0.89531055  0.54286812  0.20580579  1  0  0.014754  -0.051185  0  1.660261  0
Cl  Cl131  1  0.64635021  0.54228724  0.70576528  1  0  0.015207  -0.050632  0  1.662838  0
Cl  Cl132  1  0.10468837  0.45713763  0.79418997  1  0  0.014811  -0.05109  0  1.660226  0
Cl  Cl133  1  0.35365882  0.45770012  0.29423004  1  0  0.015208  -0.050619  0  1.662766  0
O  O134  1  0.74324976  0.05995613  0.06656074  1  0  -0.219411  -0.516903  0  2.002516  0
O  O135  1  0.31655883  0.05966833  0.56646666  1  0  -0.218473  -0.516038  0  2.002307  0
O  O136  1  0.25674201  0.94004636  0.93342795  1  0  -0.21938  -0.516921  0  2.002528  0
O  O137  1  0.68342727  0.94032464  0.43352493  1  0  -0.218498  -0.516021  0  2.002186  0
O  O138  1  0.66570706  0.19490510  0.05127617  1  0  -0.20179  -0.461183  0  1.987017  0
O  O139  1  0.52911634  0.19500581  0.55154108  1  0  -0.201475  -0.460512  0  1.986977  0
O  O140  1  0.33429467  0.80510256  0.94871929  1  0  -0.201792  -0.461188  0  1.986859  0
O  O141  1  0.47088108  0.80499327  0.44847515  1  0  -0.201499  -0.460542  0  1.987022  0
O  O142  1  0.86339858  0.21476232  0.00132692  1  0  -0.190468  -0.44854  0  2.006837  0
O  O143  1  0.35120992  0.21468972  0.50151515  1  0  -0.190362  -0.448781  0  2.010393  0
O  O144  1  0.13661271  0.78526817  0.99867983  1  0  -0.19047  -0.448603  0  2.00703  0
O  O145  1  0.64880258  0.78531009  0.49847791  1  0  -0.190348  -0.448779  0  2.010389  0
