# generated using pymatgen
data_CdH12C6N2O9
_symmetry_space_group_name_H-M   'P 1'
_cell_length_a   5.15769854
_cell_length_b   5.15768901
_cell_length_c   23.29939102
_cell_angle_alpha   98.22894514
_cell_angle_beta   98.22865867
_cell_angle_gamma   83.64881561
_symmetry_Int_Tables_number   1
_chemical_formula_structural   CdH12C6N2O9
_chemical_formula_sum   'Cd2 H24 C12 N4 O18'
_cell_volume   604.53303522
_cell_formula_units_Z   2
loop_
 _symmetry_equiv_pos_site_id
 _symmetry_equiv_pos_as_xyz
  1  'x, y, z'
loop_
 _atom_site_type_symbol
 _atom_site_label
 _atom_site_symmetry_multiplicity
 _atom_site_fract_x
 _atom_site_fract_y
 _atom_site_fract_z
 _atom_site_occupancy
 _atom_site_hle17_bader_spin_density
 _atom_site_hle17_ddec_charge
 _atom_site_hle17_ddec_spin_density
 _atom_site_hle17_ddec_sum_bond_order
 _atom_site_hle17_magmom
 _atom_site_hse06_10hf_bader_spin_density
 _atom_site_hse06_10hf_ddec_charge
 _atom_site_hse06_10hf_ddec_spin_density
 _atom_site_hse06_10hf_ddec_sum_bond_order
 _atom_site_hse06_10hf_magmom
 _atom_site_hse06_bader_spin_density
 _atom_site_hse06_ddec_charge
 _atom_site_hse06_ddec_spin_density
 _atom_site_hse06_ddec_sum_bond_order
 _atom_site_hse06_magmom
 _atom_site_pbe_bader_spin_density
 _atom_site_pbe_cm5_charge
 _atom_site_pbe_ddec_charge
 _atom_site_pbe_ddec_spin_density
 _atom_site_pbe_ddec_sum_bond_order
 _atom_site_pbe_magmom
Cd  Cd0  1  0.08205221  0.91785660  0.75000154  1  0  1.323131  0  1.517711  0  0  1.145496  0  1.959911  0  0  1.20081  0  1.898908  0  0  0.791295  1.105631  0  2.002322  0
Cd  Cd1  1  0.91786126  0.08209745  0.25000398  1  0  1.323075  0  1.517779  0  0  1.145518  0  1.960005  0  0  1.200835  0  1.898994  0  0  0.791305  1.105659  0  2.002416  0
H  H2  1  0.74982816  0.04108451  0.93135593  1  0  0.104462  0  0.931912  0  0  0.114382  0  0.997667  0  0  0.115763  0  0.996844  0  0  0.113638  0.113342  0  0.99831  0
H  H3  1  0.95893474  0.25018398  0.56862383  1  0  0.104375  0  0.931942  0  0  0.114312  0  0.997711  0  0  0.115695  0  0.996892  0  0  0.113583  0.113269  0  0.998354  0
H  H4  1  0.25015147  0.95890839  0.06861694  1  0  0.104378  0  0.931913  0  0  0.114387  0  0.997569  0  0  0.115775  0  0.996748  0  0  0.113595  0.113337  0  0.998222  0
H  H5  1  0.04114590  0.74977440  0.43137691  1  0  0.10447  0  0.931914  0  0  0.114408  0  0.9976  0  0  0.115794  0  0.996779  0  0  0.113631  0.113363  0  0.998244  0
H  H6  1  0.50558850  0.84904492  0.89032581  1  0  0.109418  0  0.914792  0  0  0.124793  0  0.97231  0  0  0.127099  0  0.970431  0  0  0.122981  0.123066  0  0.973823  0
H  H7  1  0.15097843  0.49435138  0.60966836  1  0  0.109363  0  0.914878  0  0  0.124808  0  0.972348  0  0  0.127119  0  0.970463  0  0  0.12304  0.123082  0  0.973865  0
H  H8  1  0.49429078  0.15096940  0.10966638  1  0  0.109258  0  0.91492  0  0  0.124786  0  0.972245  0  0  0.127095  0  0.970359  0  0  0.12307  0.12306  0  0.973758  0
H  H9  1  0.84902662  0.50563333  0.39031946  1  0  0.109455  0  0.914748  0  0  0.124803  0  0.972254  0  0  0.127118  0  0.970364  0  0  0.123039  0.123077  0  0.973766  0
H  H10  1  0.61060193  0.57905343  0.96026350  1  0  0.297824  0  0.907506  0  0  0.275793  0  0.979723  0  0  0.284191  0  0.972786  0  0  0.310899  0.269849  0  0.98466  0
H  H11  1  0.42094465  0.38938853  0.53974084  1  0  0.297657  0  0.907789  0  0  0.275731  0  0.979846  0  0  0.284127  0  0.972911  0  0  0.310905  0.269788  0  0.984776  0
H  H12  1  0.38940358  0.42097502  0.03975353  1  0  0.297788  0  0.907419  0  0  0.275837  0  0.979546  0  0  0.28424  0  0.972609  0  0  0.310915  0.269887  0  0.984474  0
H  H13  1  0.57907196  0.61057351  0.46024722  1  0  0.297771  0  0.907511  0  0  0.27584  0  0.979618  0  0  0.284243  0  0.972689  0  0  0.310924  0.269886  0  0.984558  0
H  H14  1  0.54837995  0.13324022  0.82120474  1  0  0.439693  0  0.864711  0  0  0.402937  0  0.935815  0  0  0.414878  0  0.918905  0  0  0.292961  0.394502  0  0.947727  0
H  H15  1  0.86678893  0.45156072  0.67879736  1  0  0.439808  0  0.864636  0  0  0.402982  0  0.935876  0  0  0.414935  0  0.918947  0  0  0.292942  0.394547  0  0.94779  0
H  H16  1  0.45158753  0.86681856  0.17880784  1  0  0.439877  0  0.86451  0  0  0.403051  0  0.935758  0  0  0.415  0  0.918835  0  0  0.292944  0.394616  0  0.947672  0
H  H17  1  0.13325628  0.54838234  0.32120336  1  0  0.43981  0  0.864549  0  0  0.403064  0  0.935663  0  0  0.415006  0  0.918747  0  0  0.292994  0.394627  0  0.947576  0
H  H18  1  0.40050303  0.43780772  0.76905090  1  0  0.436093  0  0.869084  0  0  0.405419  0  0.930577  0  0  0.416733  0  0.914231  0  0  0.288873  0.397414  0  0.942116  0
H  H19  1  0.56221908  0.59948981  0.73096866  1  0  0.436087  0  0.869121  0  0  0.405405  0  0.930614  0  0  0.41672  0  0.914274  0  0  0.288871  0.397399  0  0.942152  0
H  H20  1  0.59945111  0.56225685  0.23096284  1  0  0.436111  0  0.869075  0  0  0.405435  0  0.930559  0  0  0.41675  0  0.914214  0  0  0.288827  0.397428  0  0.942098  0
H  H21  1  0.43784047  0.40048163  0.26904788  1  0  0.436026  0  0.86921  0  0  0.405348  0  0.930697  0  0  0.416659  0  0.914365  0  0  0.288856  0.397346  0  0.942231  0
H  H22  1  0.27298215  0.32420928  0.83700421  1  0  0.456579  0  0.823203  0  0  0.427037  0  0.881665  0  0  0.437396  0  0.866599  0  0  0.313496  0.41967  0  0.892368  0
H  H23  1  0.67582880  0.72693691  0.66298928  1  0  0.456598  0  0.823271  0  0  0.427042  0  0.881742  0  0  0.437401  0  0.866676  0  0  0.313484  0.419675  0  0.892447  0
H  H24  1  0.72693792  0.67583670  0.16299268  1  0  0.456612  0  0.823257  0  0  0.427074  0  0.881699  0  0  0.437429  0  0.866638  0  0  0.313503  0.419711  0  0.892398  0
H  H25  1  0.32424311  0.27300421  0.33700885  1  0  0.456614  0  0.823223  0  0  0.427071  0  0.881679  0  0  0.437427  0  0.866617  0  0  0.313498  0.419706  0  0.892379  0
C  C26  1  0.87443068  0.79764888  0.85610971  1  0  0.682834  0  3.868168  0  0  0.631207  0  4.17549  0  0  0.664185  0  4.168418  0  0  0.211358  0.60865  0  4.179711  0
C  C27  1  0.20234876  0.12552967  0.64388589  1  0  0.682493  0  3.867597  0  0  0.630948  0  4.174865  0  0  0.663936  0  4.16779  0  0  0.211291  0.608393  0  4.179081  0
C  C28  1  0.12552130  0.20236693  0.14388334  1  0  0.682479  0  3.867603  0  0  0.630955  0  4.174816  0  0  0.663941  0  4.167734  0  0  0.211226  0.608396  0  4.17904  0
C  C29  1  0.79769723  0.87446818  0.35612268  1  0  0.682661  0  3.867485  0  0  0.630946  0  4.174976  0  0  0.663936  0  4.167892  0  0  0.211307  0.60839  0  4.179185  0
C  C30  1  0.71542998  0.84457934  0.90775612  1  0  -0.095993  0  3.651806  0  0  -0.151437  0  3.90442  0  0  -0.150743  0  3.910932  0  0  -0.055281  -0.151807  0  3.899936  0
C  C31  1  0.15542054  0.28451903  0.59224028  1  0  -0.095513  0  3.651805  0  0  -0.151077  0  3.904304  0  0  -0.150401  0  3.910829  0  0  -0.055135  -0.151446  0  3.899818  0
C  C32  1  0.28446462  0.15540211  0.09223619  1  0  -0.095616  0  3.652051  0  0  -0.151178  0  3.904409  0  0  -0.150495  0  3.91093  0  0  -0.055171  -0.15154  0  3.899911  0
C  C33  1  0.84463816  0.71545706  0.40776555  1  0  -0.096093  0  3.652081  0  0  -0.151369  0  3.904448  0  0  -0.150698  0  3.910972  0  0  -0.055302  -0.151738  0  3.89995  0
C  C34  1  0.00352840  0.59915941  0.97841623  1  0  0.43746  0  3.863353  0  0  0.394592  0  4.153281  0  0  0.420221  0  4.151467  0  0  0.239854  0.377319  0  4.154046  0
C  C35  1  0.40088834  0.99644350  0.52157386  1  0  0.438227  0  3.862621  0  0  0.394859  0  4.152945  0  0  0.420474  0  4.151134  0  0  0.239758  0.377591  0  4.153713  0
C  C36  1  0.99642227  0.40088196  0.02157076  1  0  0.438038  0  3.862637  0  0  0.394799  0  4.152957  0  0  0.420398  0  4.151179  0  0  0.239775  0.377524  0  4.153723  0
C  C37  1  0.59917138  0.00354460  0.47842056  1  0  0.437375  0  3.863535  0  0  0.394726  0  4.153168  0  0  0.420355  0  4.151343  0  0  0.239806  0.377448  0  4.153933  0
N  N38  1  0.76807163  0.65013702  0.94762524  1  0  -0.356559  0  3.374503  0  0  -0.301509  0  3.619196  0  0  -0.321643  0  3.628873  0  0  -0.40899  -0.287791  0  3.612271  0
N  N39  1  0.34989714  0.23190023  0.55238022  1  0  -0.356733  0  3.374157  0  0  -0.30158  0  3.618874  0  0  -0.321708  0  3.62855  0  0  -0.408976  -0.287873  0  3.611967  0
N  N40  1  0.23187563  0.34988062  0.05237206  1  0  -0.356609  0  3.373737  0  0  -0.301558  0  3.618515  0  0  -0.321693  0  3.628205  0  0  -0.408928  -0.287821  0  3.611577  0
N  N41  1  0.65013552  0.76808973  0.44762282  1  0  -0.356377  0  3.374582  0  0  -0.301549  0  3.619122  0  0  -0.32169  0  3.628799  0  0  -0.408928  -0.287818  0  3.612191  0
O  O42  1  0.36183294  0.20625359  0.80715795  1  0  -0.869965  0  1.93081  0  0  -0.793409  0  2.130656  0  0  -0.819095  0  2.095051  0  0  -0.566432  -0.775183  0  2.155264  0
O  O43  1  0.79373884  0.63810144  0.69282759  1  0  -0.870219  0  1.930736  0  0  -0.793592  0  2.130641  0  0  -0.819274  0  2.094995  0  0  -0.566555  -0.775356  0  2.155228  0
O  O44  1  0.63812249  0.79373251  0.19283463  1  0  -0.870253  0  1.930749  0  0  -0.793644  0  2.130653  0  0  -0.819331  0  2.095019  0  0  -0.566523  -0.77542  0  2.155271  0
O  O45  1  0.20629768  0.36182604  0.30716323  1  0  -0.870256  0  1.930768  0  0  -0.793643  0  2.130515  0  0  -0.819349  0  2.094967  0  0  -0.566553  -0.775429  0  2.155155  0
O  O46  1  0.40119621  0.59891043  0.75002377  1  0  -0.907413  0  1.90763  0  0  -0.837772  0  2.126192  0  0  -0.861944  0  2.088909  0  0  -0.616846  -0.820736  0  2.15206  0
O  O47  1  0.59890411  0.40120671  0.25001452  1  0  -0.907297  0  1.907556  0  0  -0.837663  0  2.12612  0  0  -0.86183  0  2.088846  0  0  -0.616795  -0.820621  0  2.151988  0
O  O48  1  0.83176903  0.98971164  0.82417288  1  0  -0.700165  0  2.058173  0  0  -0.620512  0  2.307744  0  0  -0.652572  0  2.29451  0  0  -0.334957  -0.59793  0  2.316109  0
O  O49  1  0.01028747  0.16825766  0.67584339  1  0  -0.70011  0  2.057459  0  0  -0.620567  0  2.307118  0  0  -0.652642  0  2.293878  0  0  -0.335028  -0.597993  0  2.315503  0
O  O50  1  0.16825345  0.01031439  0.17584913  1  0  -0.700142  0  2.056974  0  0  -0.620655  0  2.306678  0  0  -0.652728  0  2.293435  0  0  -0.335148  -0.598077  0  2.315065  0
O  O51  1  0.98975763  0.83173547  0.32416207  1  0  -0.700189  0  2.057106  0  0  -0.620692  0  2.306861  0  0  -0.65275  0  2.293619  0  0  -0.33512  -0.598115  0  2.315244  0
O  O52  1  0.02723286  0.59820646  0.84590039  1  0  -0.615665  0  1.979313  0  0  -0.567993  0  2.211232  0  0  -0.592126  0  2.201245  0  0  -0.314291  -0.551167  0  2.217702  0
O  O53  1  0.40176656  0.97268925  0.65410349  1  0  -0.615583  0  1.979196  0  0  -0.567882  0  2.210982  0  0  -0.592012  0  2.200995  0  0  -0.314209  -0.551062  0  2.217452  0
O  O54  1  0.97274472  0.40182630  0.15410718  1  0  -0.615507  0  1.979336  0  0  -0.567882  0  2.211182  0  0  -0.591998  0  2.20117  0  0  -0.314107  -0.551062  0  2.217657  0
O  O55  1  0.59823644  0.02724812  0.34590071  1  0  -0.615438  0  1.979222  0  0  -0.567716  0  2.211139  0  0  -0.59184  0  2.201149  0  0  -0.314142  -0.55089  0  2.217604  0
O  O56  1  0.20993534  0.69644225  0.97435264  1  0  -0.533952  0  1.947094  0  0  -0.495139  0  2.167182  0  0  -0.513695  0  2.15995  0  0  -0.301284  -0.48236  0  2.171865  0
O  O57  1  0.30363203  0.79001883  0.52561817  1  0  -0.534119  0  1.947084  0  0  -0.495259  0  2.167449  0  0  -0.513808  0  2.160224  0  0  -0.301247  -0.482468  0  2.1721  0
O  O58  1  0.78998017  0.30364908  0.02562513  1  0  -0.534132  0  1.947111  0  0  -0.49526  0  2.167417  0  0  -0.513808  0  2.160198  0  0  -0.301247  -0.482473  0  2.172088  0
O  O59  1  0.69647507  0.20995028  0.47436382  1  0  -0.534  0  1.947276  0  0  -0.495254  0  2.167249  0  0  -0.513812  0  2.160015  0  0  -0.30125  -0.48247  0  2.171929  0
