# generated using pymatgen
data_CdH8C6SO7
_symmetry_space_group_name_H-M   'P 1'
_cell_length_a   7.53077982
_cell_length_b   10.50774026
_cell_length_c   7.59136829
_cell_angle_alpha   89.99915703
_cell_angle_beta   90.00099523
_cell_angle_gamma   108.28935288
_symmetry_Int_Tables_number   1
_chemical_formula_structural   CdH8C6SO7
_chemical_formula_sum   'Cd2 H16 C12 S2 O14'
_cell_volume   570.37030162
_cell_formula_units_Z   2
loop_
 _symmetry_equiv_pos_site_id
 _symmetry_equiv_pos_as_xyz
  1  'x, y, z'
loop_
 _atom_site_type_symbol
 _atom_site_label
 _atom_site_symmetry_multiplicity
 _atom_site_fract_x
 _atom_site_fract_y
 _atom_site_fract_z
 _atom_site_occupancy
 _atom_site_hle17_bader_spin_density
 _atom_site_hle17_ddec_charge
 _atom_site_hle17_ddec_spin_density
 _atom_site_hle17_ddec_sum_bond_order
 _atom_site_hle17_magmom
 _atom_site_hse06_10hf_bader_spin_density
 _atom_site_hse06_10hf_ddec_charge
 _atom_site_hse06_10hf_ddec_spin_density
 _atom_site_hse06_10hf_ddec_sum_bond_order
 _atom_site_hse06_10hf_magmom
 _atom_site_hse06_bader_spin_density
 _atom_site_hse06_ddec_charge
 _atom_site_hse06_ddec_spin_density
 _atom_site_hse06_ddec_sum_bond_order
 _atom_site_hse06_magmom
 _atom_site_pbe_bader_spin_density
 _atom_site_pbe_cm5_charge
 _atom_site_pbe_ddec_charge
 _atom_site_pbe_ddec_spin_density
 _atom_site_pbe_ddec_sum_bond_order
 _atom_site_pbe_magmom
Cd  Cd0  1  0.74989631  0.50000360  0.23773689  1  0  1.267286  0  1.5365  0  0  1.094229  0  1.967081  0  0  1.151809  0  1.906666  0  0  0.775332  1.052994  0  2.008888  0
Cd  Cd1  1  0.24989395  0.50000471  0.76225976  1  0  1.267279  0  1.536482  0  0  1.09418  0  1.967161  0  0  1.151763  0  1.90674  0  0  0.775279  1.052942  0  2.00897  0
H  H2  1  0.37930667  0.11735297  0.80884470  1  0  0.104096  0  0.953626  0  0  0.117318  0  1.011421  0  0  0.120509  0  1.009371  0  0  0.109036  0.115026  0  1.012957  0
H  H3  1  0.12060257  0.88268556  0.80883983  1  0  0.10418  0  0.953841  0  0  0.117225  0  1.011814  0  0  0.120432  0  1.009735  0  0  0.108996  0.11495  0  1.013348  0
H  H4  1  0.62061663  0.88267077  0.19116117  1  0  0.104059  0  0.953905  0  0  0.11717  0  1.011824  0  0  0.120374  0  1.00975  0  0  0.108964  0.114886  0  1.013361  0
H  H5  1  0.87931410  0.11733821  0.19116077  1  0  0.104242  0  0.953675  0  0  0.117404  0  1.011505  0  0  0.120607  0  1.009436  0  0  0.109059  0.115113  0  1.013037  0
H  H6  1  0.50623056  0.65423672  0.14514273  1  0  0.43852  0  0.866872  0  0  0.400084  0  0.941048  0  0  0.412821  0  0.922914  0  0  0.288473  0.391032  0  0.953905  0
H  H7  1  0.99374375  0.34585084  0.14511676  1  0  0.438226  0  0.867319  0  0  0.399889  0  0.941334  0  0  0.412583  0  0.923264  0  0  0.28837  0.390856  0  0.954175  0
H  H8  1  0.49375186  0.34585404  0.85490135  1  0  0.438229  0  0.867292  0  0  0.399919  0  0.94126  0  0  0.41261  0  0.923197  0  0  0.288402  0.390887  0  0.9541  0
H  H9  1  0.00624668  0.65425193  0.85482588  1  0  0.438402  0  0.867066  0  0  0.39991  0  0.941311  0  0  0.412651  0  0.923176  0  0  0.288367  0.390863  0  0.954162  0
H  H10  1  0.62952914  0.70292826  0.32551801  1  0  0.435107  0  0.815845  0  0  0.411112  0  0.877619  0  0  0.419898  0  0.867956  0  0  0.320213  0.404863  0  0.884468  0
H  H11  1  0.87063107  0.29728929  0.32566060  1  0  0.434842  0  0.815539  0  0  0.410803  0  0.877448  0  0  0.419594  0  0.867775  0  0  0.320096  0.40456  0  0.884288  0
H  H12  1  0.37064663  0.29730119  0.67435219  1  0  0.434939  0  0.815395  0  0  0.410879  0  0.877371  0  0  0.419671  0  0.867689  0  0  0.32013  0.404635  0  0.884214  0
H  H13  1  0.12955842  0.70294411  0.67446514  1  0  0.435178  0  0.815708  0  0  0.411206  0  0.877439  0  0  0.419992  0  0.86778  0  0  0.320228  0.404958  0  0.88429  0
H  H14  1  0.64420125  0.44775609  0.60653157  1  0  0.440884  0  0.856355  0  0  0.412071  0  0.913607  0  0  0.423037  0  0.89768  0  0  0.288928  0.404308  0  0.924859  0
H  H15  1  0.85582534  0.55216916  0.60644168  1  0  0.441647  0  0.855191  0  0  0.412612  0  0.91288  0  0  0.42358  0  0.896946  0  0  0.289099  0.404847  0  0.924135  0
H  H16  1  0.35582389  0.55215366  0.39354280  1  0  0.441692  0  0.855114  0  0  0.412674  0  0.91277  0  0  0.423642  0  0.896837  0  0  0.289166  0.404908  0  0.924026  0
H  H17  1  0.14419626  0.44773860  0.39347726  1  0  0.440971  0  0.856291  0  0  0.412124  0  0.913598  0  0  0.423093  0  0.897665  0  0  0.288961  0.404361  0  0.924851  0
C  C18  1  0.31683302  0.06434678  0.92769010  1  0  -0.075747  0  3.749244  0  0  -0.109531  0  4.018885  0  0  -0.110119  0  4.039623  0  0  -0.09738  -0.108857  0  4.004468  0
C  C19  1  0.18312528  0.93566027  0.92767491  1  0  -0.076304  0  3.749313  0  0  -0.110002  0  4.019053  0  0  -0.110595  0  4.039757  0  0  -0.09733  -0.109356  0  4.004668  0
C  C20  1  0.68313744  0.93565765  0.07232631  1  0  -0.076063  0  3.749316  0  0  -0.10983  0  4.019031  0  0  -0.110421  0  4.039741  0  0  -0.097314  -0.109173  0  4.004631  0
C  C21  1  0.81683678  0.06434320  0.07232175  1  0  -0.076001  0  3.749372  0  0  -0.109788  0  4.01903  0  0  -0.110384  0  4.039747  0  0  -0.097372  -0.109112  0  4.004608  0
C  C22  1  0.36624529  0.11321518  0.09645790  1  0  -0.144234  0  3.723712  0  0  -0.125402  0  3.991924  0  0  -0.132053  0  4.012822  0  0  -0.024005  -0.120929  0  3.977747  0
C  C23  1  0.13371896  0.88676251  0.09645187  1  0  -0.144025  0  3.723667  0  0  -0.125104  0  3.991711  0  0  -0.131751  0  4.01261  0  0  -0.024047  -0.12063  0  3.977534  0
C  C24  1  0.63371842  0.88676819  0.90355193  1  0  -0.144071  0  3.72368  0  0  -0.125118  0  3.991694  0  0  -0.131765  0  4.012585  0  0  -0.023998  -0.120642  0  3.977514  0
C  C25  1  0.86624080  0.11322389  0.90355137  1  0  -0.144034  0  3.723696  0  0  -0.125065  0  3.991688  0  0  -0.131707  0  4.012575  0  0  -0.023976  -0.120594  0  3.977509  0
C  C26  1  0.49967075  0.24162261  0.15564627  1  0  0.6454  0  3.969121  0  0  0.594835  0  4.263663  0  0  0.629168  0  4.257499  0  0  0.191104  0.571435  0  4.267104  0
C  C27  1  0.00026724  0.75834159  0.15558605  1  0  0.645635  0  3.969954  0  0  0.595067  0  4.264439  0  0  0.629399  0  4.258271  0  0  0.191264  0.571668  0  4.267885  0
C  C28  1  0.50027573  0.75836084  0.84438595  1  0  0.645641  0  3.969914  0  0  0.595072  0  4.264366  0  0  0.629409  0  4.258191  0  0  0.191223  0.571669  0  4.267818  0
C  C29  1  0.99967259  0.24163587  0.84437109  1  0  0.645569  0  3.969492  0  0  0.594976  0  4.263997  0  0  0.629306  0  4.257839  0  0  0.191174  0.571576  0  4.267439  0
S  S30  1  0.25000170  0.99996897  0.25419162  1  0  0.186888  0  2.571481  0  0  0.182837  0  2.86746  0  0  0.183453  0  2.874102  0  0  0.109529  0.182043  0  2.86317  0
S  S31  1  0.74999214  0.99998723  0.74581364  1  0  0.186823  0  2.571565  0  0  0.182717  0  2.867484  0  0  0.18333  0  2.874125  0  0  0.10947  0.18192  0  2.863194  0
O  O32  1  0.56825159  0.33596601  0.04064045  1  0  -0.666161  0  2.004133  0  0  -0.590481  0  2.236486  0  0  -0.621355  0  2.223816  0  0  -0.326606  -0.568781  0  2.244741  0
O  O33  1  0.93168156  0.66403032  0.04056581  1  0  -0.666341  0  2.004767  0  0  -0.590556  0  2.237082  0  0  -0.621467  0  2.224457  0  0  -0.326742  -0.568836  0  2.24527  0
O  O34  1  0.43169323  0.66403453  0.95941152  1  0  -0.666306  0  2.004473  0  0  -0.590563  0  2.236815  0  0  -0.621456  0  2.224135  0  0  -0.326629  -0.568839  0  2.245018  0
O  O35  1  0.06825580  0.33598030  0.95938474  1  0  -0.666353  0  2.004193  0  0  -0.590669  0  2.236572  0  0  -0.621548  0  2.223902  0  0  -0.326705  -0.568969  0  2.244826  0
O  O36  1  0.54386675  0.25701155  0.31618412  1  0  -0.625958  0  1.906104  0  0  -0.575502  0  2.125919  0  0  -0.60002  0  2.115177  0  0  -0.330908  -0.558311  0  2.132692  0
O  O37  1  0.95607848  0.74293290  0.31614940  1  0  -0.62647  0  1.906037  0  0  -0.575983  0  2.125782  0  0  -0.600527  0  2.115074  0  0  -0.331105  -0.558778  0  2.132532  0
O  O38  1  0.45607481  0.74296088  0.68384151  1  0  -0.626417  0  1.906179  0  0  -0.57593  0  2.125899  0  0  -0.600478  0  2.115209  0  0  -0.331115  -0.55873  0  2.132652  0
O  O39  1  0.04386342  0.25701943  0.68383540  1  0  -0.626069  0  1.906494  0  0  -0.575586  0  2.126301  0  0  -0.600111  0  2.115569  0  0  -0.330865  -0.558382  0  2.133044  0
O  O40  1  0.54238330  0.62608411  0.26609118  1  0  -0.837349  0  1.910785  0  0  -0.765087  0  2.105655  0  0  -0.789731  0  2.074317  0  0  -0.554039  -0.747701  0  2.12739  0
O  O41  1  0.95764029  0.37408845  0.26601403  1  0  -0.836492  0  1.911071  0  0  -0.76429  0  2.105705  0  0  -0.788916  0  2.074445  0  0  -0.553718  -0.746922  0  2.127377  0
O  O42  1  0.45765617  0.37409878  0.73400163  1  0  -0.83659  0  1.910929  0  0  -0.764414  0  2.105559  0  0  -0.789039  0  2.074297  0  0  -0.553772  -0.747044  0  2.127234  0
O  O43  1  0.04239611  0.62609948  0.73388250  1  0  -0.837234  0  1.910738  0  0  -0.764939  0  2.105712  0  0  -0.789587  0  2.074354  0  0  -0.553911  -0.747559  0  2.127446  0
O  O44  1  0.75019834  0.49964520  0.53196186  1  0  -0.883716  0  1.86247  0  0  -0.816174  0  2.057687  0  0  -0.839788  0  2.02159  0  0  -0.614619  -0.799518  0  2.08266  0
O  O45  1  0.25021411  0.49961485  0.46804008  1  0  -0.883801  0  1.8624  0  0  -0.816297  0  2.057749  0  0  -0.839914  0  2.021646  0  0  -0.614705  -0.799639  0  2.082726  0
