# generated using pymatgen
data_FeH13C20N2O9
_symmetry_space_group_name_H-M   'P 1'
_cell_length_a   9.10361708
_cell_length_b   9.78652170
_cell_length_c   10.42968275
_cell_angle_alpha   79.76186281
_cell_angle_beta   86.82560005
_cell_angle_gamma   75.18990848
_symmetry_Int_Tables_number   1
_chemical_formula_structural   FeH13C20N2O9
_chemical_formula_sum   'Fe2 H26 C40 N4 O18'
_cell_volume   883.98718493
_cell_formula_units_Z   2
loop_
 _symmetry_equiv_pos_site_id
 _symmetry_equiv_pos_as_xyz
  1  'x, y, z'
loop_
 _atom_site_type_symbol
 _atom_site_label
 _atom_site_symmetry_multiplicity
 _atom_site_fract_x
 _atom_site_fract_y
 _atom_site_fract_z
 _atom_site_occupancy
 _atom_site_hle17_ddec_charge
 _atom_site_hle17_ddec_spin_density
 _atom_site_hle17_ddec_sum_bond_order
 _atom_site_hle17_magmom
 _atom_site_hse06_10hf_ddec_charge
 _atom_site_hse06_10hf_ddec_spin_density
 _atom_site_hse06_10hf_ddec_sum_bond_order
 _atom_site_hse06_10hf_magmom
 _atom_site_hse06_ddec_charge
 _atom_site_hse06_ddec_spin_density
 _atom_site_hse06_ddec_sum_bond_order
 _atom_site_hse06_magmom
 _atom_site_pbe_cm5_charge
 _atom_site_pbe_ddec_charge
 _atom_site_pbe_ddec_spin_density
 _atom_site_pbe_ddec_sum_bond_order
 _atom_site_pbe_magmom
Fe  Fe0  1  0.70288332  0.26347471  0.17533818  1  0.899641  -1.24438  2.883232  -1.154  0.922106  -1.062435  3.318663  -0.99  1.025036  -1.077197  3.236722  -1.015  0.831188  0.860797  -1.048814  3.370825  -0.963
Fe  Fe1  1  0.29711757  0.73651198  0.82465519  1  0.899164  -1.24437  2.883318  -1.154  0.922145  -1.062427  3.31855  -0.99  1.025084  -1.077197  3.236593  -1.015  0.831129  0.860851  -1.048865  3.370671  -0.963
H  H2  1  0.75167424  0.39349378  0.94678850  1  0.425796  -0.000291  0.875462  -0.002  0.397512  -0.000167  0.938895  -0.002  0.411104  -2e-05  0.919782  -0.002  0.300598  0.388174  -0.000248  0.95192  -0.002
H  H3  1  0.24831700  0.60651331  0.05320488  1  0.425788  -0.000292  0.875475  -0.002  0.397492  -0.000167  0.938917  -0.002  0.411081  -2e-05  0.919807  -0.002  0.300569  0.388152  -0.000249  0.951941  -0.002
H  H4  1  0.84307793  0.42813029  0.06816577  1  0.416212  0.000978  0.886921  0.001  0.389916  0.000599  0.949296  0.0  0.403345  0.000477  0.930501  0.0  0.299144  0.380447  0.000621  0.962455  0.0
H  H5  1  0.15691579  0.57187572  0.93182576  1  0.416202  0.000978  0.886929  0.001  0.389877  0.000599  0.949371  0.0  0.403306  0.000477  0.930574  0.0  0.299114  0.380409  0.000621  0.962529  0.0
H  H6  1  0.30958008  0.05127193  0.48072078  1  0.408615  -1.7e-05  0.875086  0.0  0.37568  2.2e-05  0.956681  0.0  0.390017  9e-06  0.940137  0.0  0.302259  0.365637  2.7e-05  0.96765  0.0
H  H7  1  0.69042163  0.94873722  0.51927273  1  0.408573  -1.5e-05  0.875095  0.0  0.375658  2.2e-05  0.956668  0.0  0.389996  9e-06  0.940162  0.0  0.302231  0.365604  2.7e-05  0.967652  0.0
H  H8  1  0.36843449  0.70707520  0.34292370  1  0.102467  0.000125  0.980577  0.0  0.106897  8.5e-05  1.051231  0.0  0.109993  5.8e-05  1.050541  0.0  0.10697  0.104828  8e-05  1.051622  0.0
H  H9  1  0.63156474  0.29293069  0.65708197  1  0.102555  0.000122  0.980455  0.0  0.106972  8.5e-05  1.05111  0.0  0.110067  5.8e-05  1.050423  0.0  0.106986  0.104906  8e-05  1.051502  0.0
H  H10  1  0.76895415  0.65129607  0.38532969  1  0.107773  2.9e-05  0.950959  0.0  0.115173  2.3e-05  1.017507  0.0  0.118191  2e-05  1.016689  0.0  0.10842  0.113376  1.6e-05  1.017285  0.0
H  H11  1  0.23104149  0.34871093  0.61467597  1  0.10777  2.3e-05  0.950857  0.0  0.115162  2.3e-05  1.017429  0.0  0.118179  2e-05  1.016611  0.0  0.108424  0.113366  1.6e-05  1.017216  0.0
H  H12  1  0.96037379  0.09679244  0.34536236  1  0.096741  0.000931  0.952679  0.001  0.105462  0.000502  1.012001  0.0  0.107774  0.000468  1.009426  0.0  0.126375  0.102698  0.000495  1.015482  0.0
H  H13  1  0.03962627  0.90319749  0.65462764  1  0.096729  0.000931  0.952523  0.001  0.10544  0.000503  1.01187  0.0  0.107749  0.000469  1.009299  0.0  0.126322  0.102662  0.000496  1.015368  0.0
H  H14  1  0.12290397  0.84456413  0.37062964  1  0.112774  0.000429  0.9444  0.0  0.12338  0.000191  1.001389  0.0  0.12633  0.000147  1.001425  0.0  0.111865  0.120518  0.000207  1.002534  0.0
H  H15  1  0.87711069  0.15542882  0.62937453  1  0.112756  0.000434  0.944495  0.0  0.123378  0.000191  1.001456  0.0  0.126326  0.000147  1.001494  0.0  0.111869  0.120517  0.000207  1.002599  0.0
H  H16  1  0.08516570  0.68709979  0.21550706  1  0.11811  0.000451  0.970505  0.0  0.126226  0.000158  1.031569  0.0  0.130165  0.000142  1.027892  0.0  0.114328  0.122967  0.000146  1.034779  0.0
H  H17  1  0.91485667  0.31288025  0.78450075  1  0.118156  0.00045  0.970553  0.0  0.126245  0.000158  1.031654  0.0  0.130184  0.000142  1.027975  0.0  0.114359  0.122993  0.000146  1.034865  0.0
H  H18  1  0.89677437  0.78839363  0.03813753  1  0.130254  0.000316  0.92617  0.0  0.140919  0.000236  0.981982  0.0  0.144608  0.000253  0.980139  0.0  0.119931  0.137692  0.000199  0.983836  0.0
H  H19  1  0.10324856  0.21158855  0.96186895  1  0.130247  0.000315  0.926054  0.0  0.140842  0.000236  0.981945  0.0  0.144528  0.000253  0.980107  0.0  0.119915  0.13762  0.000199  0.983794  0.0
H  H20  1  0.74247322  0.91722182  0.87298908  1  0.129184  0.000559  0.948671  0.001  0.137656  0.000248  1.008994  0.0  0.141694  0.000236  1.006791  0.0  0.115633  0.1344  0.000265  1.011064  0.0
H  H21  1  0.25752546  0.08276919  0.12700176  1  0.129155  0.000556  0.948755  0.001  0.137647  0.000249  1.009047  0.0  0.141683  0.000236  1.006843  0.0  0.115645  0.134392  0.000265  1.011112  0.0
H  H22  1  0.51021771  0.04738981  0.74649540  1  0.125733  9e-06  0.922563  0.0  0.134821  7.3e-05  0.979141  0.0  0.139308  4.5e-05  0.974532  0.0  0.117538  0.131335  7.1e-05  0.982617  0.0
H  H23  1  0.48978290  0.95259800  0.25348916  1  0.125707  9e-06  0.922933  0.0  0.134933  7.3e-05  0.979284  0.0  0.139418  4.5e-05  0.974675  0.0  0.11759  0.131398  7.1e-05  0.982832  0.0
H  H24  1  0.34230491  0.27028870  0.81943236  1  0.106609  0.00056  0.958551  0.001  0.114663  0.000107  1.022126  0.0  0.117482  0.000105  1.022497  0.0  0.108435  0.112143  0.000109  1.022584  0.0
H  H25  1  0.65769598  0.72970231  0.18055358  1  0.106628  0.00057  0.958496  0.001  0.114677  0.000107  1.022084  0.0  0.117495  0.000105  1.022456  0.0  0.108436  0.112155  0.000109  1.02253  0.0
H  H26  1  0.42275323  0.35668629  0.00834794  1  0.108484  0.000433  0.947874  0.0  0.114899  0.000433  1.007781  0.0  0.119205  0.000408  1.003005  0.0  0.130338  0.111047  0.000432  1.012356  0.0
H  H27  1  0.57725455  0.64329931  0.99164144  1  0.108433  0.000434  0.947757  0.0  0.11483  0.000433  1.007687  0.0  0.119142  0.000408  1.002914  0.0  0.130282  0.110963  0.000433  1.012279  0.0
C  C28  1  0.43602349  0.48401413  0.23427482  1  0.661835  -0.000288  3.836559  -0.002  0.614737  -5.2e-05  4.14012  -0.001  0.652779  0.000385  4.130333  0.0  0.232292  0.587849  -8.3e-05  4.147086  -0.001
C  C29  1  0.56395617  0.51599516  0.76572451  1  0.661734  -0.000295  3.836242  -0.002  0.614667  -5.2e-05  4.139809  -0.001  0.652711  0.000383  4.130017  0.0  0.232212  0.587784  -8.4e-05  4.146752  -0.001
C  C30  1  0.47258042  0.48139199  0.37318190  1  -0.056564  -4e-06  3.700868  -0.001  -0.046574  -0.00032  3.941721  -0.001  -0.051491  -0.000201  3.961786  0.0  -0.002791  -0.0433  -0.000948  3.928018  -0.002
C  C31  1  0.52739951  0.51861619  0.62682430  1  -0.056601  3.7e-05  3.701081  0.0  -0.046591  -0.000321  3.941933  -0.001  -0.051507  -0.000204  3.962001  0.0  -0.002772  -0.043314  -0.000947  3.928229  -0.002
C  C32  1  0.42613937  0.61553347  0.41284676  1  -0.076213  0.000101  3.693709  0.0  -0.110508  -0.00025  3.950475  0.0  -0.111339  -0.000197  3.97065  0.0  -0.073287  -0.108836  -0.000218  3.935084  0.0
C  C33  1  0.57385159  0.38447459  0.58716565  1  -0.076303  6.4e-05  3.693494  0.0  -0.110604  -0.00025  3.950275  0.0  -0.111437  -0.000194  3.970442  0.0  -0.073332  -0.108938  -0.000218  3.934897  0.0
C  C34  1  0.54805353  0.36161978  0.46261953  1  -0.052618  0.000727  3.699393  0.0  -0.045017  -0.000296  3.941146  -0.001  -0.048692  -0.000259  3.959794  0.0  -0.004359  -0.043804  -0.000304  3.928687  -0.001
C  C35  1  0.45193660  0.63839151  0.53739048  1  -0.052466  0.000676  3.699869  0.0  -0.04496  -0.000296  3.941687  -0.001  -0.048646  -0.000257  3.960346  0.0  -0.004349  -0.04375  -0.000304  3.929232  -0.001
C  C36  1  0.59564480  0.20881666  0.43838692  1  0.660094  -0.000813  3.801712  -0.003  0.616507  -8.9e-05  4.104778  0.0  0.654409  0.000214  4.095998  0.0  0.231435  0.590201  -0.000374  4.109564  0.0
C  C37  1  0.40436076  0.79118173  0.56161391  1  0.659842  -0.000807  3.801523  -0.003  0.61638  -8.9e-05  4.104419  0.0  0.654288  0.000212  4.095639  0.0  0.231476  0.590077  -0.000375  4.109215  0.0
C  C38  1  0.88588192  0.42771523  0.27282640  1  0.664098  0.002974  3.838838  0.001  0.615484  0.001292  4.147971  0.0  0.654274  0.000767  4.135606  0.0  0.228051  0.588454  0.002216  4.155708  0.001
C  C39  1  0.11411401  0.57229079  0.72716022  1  0.664171  0.002986  3.838076  0.001  0.615558  0.001293  4.147162  0.0  0.654359  0.000766  4.134789  0.0  0.228065  0.588523  0.002218  4.154896  0.001
C  C40  1  0.95075147  0.46007719  0.39003974  1  -0.036268  0.004773  3.699657  0.003  -0.025743  0.001699  3.938776  0.001  -0.0291  0.001567  3.956308  0.001  0.002929  -0.023918  0.001805  3.926806  0.001
C  C41  1  0.04924968  0.53992975  0.60996662  1  -0.036164  0.004658  3.69984  0.003  -0.025598  0.001695  3.939091  0.001  -0.028969  0.001557  3.956636  0.001  0.00289  -0.023774  0.001805  3.927122  0.001
C  C42  1  0.87107855  0.58455949  0.43523787  1  -0.08024  0.000574  3.703252  0.0  -0.11682  0.000112  3.963414  0.0  -0.117867  0.000135  3.984105  0.0  -0.075705  -0.115591  0.000318  3.948031  0.0
C  C43  1  0.12891654  0.41544965  0.56476746  1  -0.080292  0.00066  3.703051  0.0  -0.116949  0.000113  3.963127  0.0  -0.117991  0.000141  3.983819  0.0  -0.075753  -0.115723  0.000318  3.94776  0.0
C  C44  1  0.08199807  0.37374274  0.45551359  1  -0.061238  0.000796  3.719227  0.0  -0.053611  0.000479  3.960923  0.0  -0.058106  0.00037  3.980787  0.0  -0.006141  -0.050188  0.000589  3.947503  0.0
C  C45  1  0.91799977  0.62626423  0.54449196  1  -0.061267  0.00089  3.719166  0.001  -0.053969  0.000482  3.961285  0.0  -0.058465  0.000377  3.981159  0.0  -0.006279  -0.050539  0.000589  3.947848  0.0
C  C46  1  0.17224977  0.23957523  0.41038804  1  0.644366  9.4e-05  3.829693  0.0  0.598292  5.9e-05  4.129979  0.0  0.630862  2.4e-05  4.120836  0.0  0.228729  0.57566  9.3e-05  4.136479  0.0
C  C47  1  0.82775276  0.76043924  0.58960937  1  0.64435  0.000101  3.829785  0.0  0.598442  5.9e-05  4.129978  0.0  0.631012  2.4e-05  4.120839  0.0  0.228807  0.575808  9.3e-05  4.136465  0.0
C  C48  1  0.95084960  0.02412456  0.28065001  1  0.155762  -9e-06  3.633813  -0.002  0.121994  -0.000985  3.890833  -0.002  0.134845  -0.001607  3.904217  -0.003  0.061303  0.112754  -0.000894  3.884832  -0.002
C  C49  1  0.04915431  0.97587169  0.71935220  1  0.155729  -4.3e-05  3.634066  -0.002  0.121986  -0.000982  3.891063  -0.002  0.134834  -0.001606  3.904454  -0.003  0.061314  0.112759  -0.00089  3.885062  -0.002
C  C50  1  0.03974213  0.88417044  0.29296865  1  -0.106368  0.008447  3.694739  0.006  -0.118784  0.003519  3.948476  0.002  -0.126828  0.004166  3.96731  0.003  -0.073821  -0.114439  0.003402  3.938254  0.002
C  C51  1  0.96027088  0.11582468  0.70703140  1  -0.10636  0.008506  3.695023  0.006  -0.118796  0.003517  3.948757  0.002  -0.126839  0.004168  3.967592  0.003  -0.073789  -0.114443  0.003398  3.938526  0.002
C  C52  1  0.01935000  0.79779953  0.20600977  1  0.013877  -0.004478  3.678612  -0.006  -0.009561  -0.00304  3.935591  -0.004  -0.002612  -0.003162  3.948979  -0.004  -0.06066  -0.01514  -0.003132  3.928104  -0.004
C  C53  1  0.98066438  0.20219449  0.79399519  1  0.013843  -0.004501  3.678976  -0.006  -0.009602  -0.003036  3.935948  -0.004  -0.002658  -0.003159  3.949337  -0.004  -0.060718  -0.015185  -0.003125  3.928473  -0.004
C  C54  1  0.91371568  0.85464244  0.10671023  1  -0.125588  0.008227  3.668691  0.006  -0.149131  0.003486  3.925623  0.002  -0.155334  0.004178  3.943177  0.003  -0.07009  -0.144516  0.003014  3.91497  0.002
C  C55  1  0.08629182  0.14534844  0.89328981  1  -0.125523  0.008292  3.668795  0.006  -0.148997  0.003482  3.925747  0.002  -0.155203  0.004178  3.943311  0.003  -0.07005  -0.144381  0.003009  3.915089  0.002
C  C56  1  0.82748248  0.99576784  0.09933838  1  0.171232  -0.002164  3.746514  -0.005  0.166611  -0.001238  3.992407  -0.003  0.174084  -0.001355  4.012913  -0.003  0.124424  0.160247  -0.000586  3.980758  -0.002
C  C57  1  0.17251180  0.00421886  0.90066296  1  0.171193  -0.002184  3.746807  -0.005  0.166551  -0.001235  3.992732  -0.003  0.174027  -0.001354  4.013235  -0.003  0.124448  0.160194  -0.000581  3.981063  -0.002
C  C58  1  0.70228566  0.06562383  0.01034472  1  0.164452  0.010349  3.754984  0.007  0.16217  0.003643  3.998664  0.002  0.171794  0.002035  4.017647  0.001  0.121533  0.154413  0.006186  3.987522  0.004
C  C59  1  0.29772266  0.93435956  0.98965650  1  0.16448  0.010372  3.754818  0.007  0.162169  0.00364  3.998587  0.002  0.1718  0.002036  4.017562  0.001  0.121574  0.154418  0.006179  3.987418  0.004
C  C60  1  0.66833699  0.01330234  0.90229609  1  -0.136229  -0.001717  3.68601  -0.003  -0.157229  0.000311  3.936905  0.0  -0.16499  0.000343  3.955336  0.0  -0.071676  -0.151088  3.5e-05  3.92513  -0.001
C  C61  1  0.33167271  0.98668854  0.09770193  1  -0.136057  -0.001722  3.685815  -0.003  -0.157082  0.000313  3.936744  0.0  -0.164843  0.000345  3.955177  0.0  -0.071606  -0.150928  3.7e-05  3.924925  -0.001
C  C62  1  0.53839540  0.08626978  0.83118723  1  0.013965  0.009884  3.671985  0.006  -0.0066  0.002419  3.927311  0.001  0.002791  0.000507  3.937276  0.0  -0.060179  -0.014922  0.005551  3.922311  0.003
C  C63  1  0.46160989  0.91372542  0.16880934  1  0.013797  0.009897  3.672326  0.006  -0.006864  0.002414  3.927652  0.001  0.00252  0.000503  3.937621  0.0  -0.060283  -0.015147  0.005542  3.922647  0.003
C  C64  1  0.44630653  0.20990750  0.87029701  1  -0.117136  -0.002026  3.714416  -0.004  -0.130995  -0.00034  3.970976  -0.001  -0.139355  -0.000205  3.989505  -0.001  -0.078761  -0.125633  -0.0002  3.960596  -0.001
C  C65  1  0.55369077  0.79008887  0.12969304  1  -0.117013  -0.00205  3.714244  -0.004  -0.130886  -0.000338  3.970826  -0.001  -0.139247  -0.000203  3.989359  -0.001  -0.078726  -0.125512  -0.000198  3.960395  -0.001
C  C66  1  0.48774464  0.25872524  0.97674993  1  0.139617  0.012178  3.635344  0.008  0.109816  0.003519  3.889516  0.002  0.122753  0.001651  3.900943  0.001  0.05439  0.099355  0.005657  3.885223  0.003
C  C67  1  0.51226396  0.74126566  0.02324718  1  0.13956  0.012181  3.635248  0.008  0.10979  0.003513  3.889407  0.002  0.122709  0.001647  3.900847  0.001  0.054372  0.099338  0.005647  3.8851  0.003
N  N68  1  0.84696694  0.07776151  0.18657481  1  -0.262223  0.043795  3.317356  0.039  -0.223027  0.019903  3.59075  0.019  -0.251235  0.022595  3.610261  0.021  -0.335035  -0.206609  0.018045  3.580097  0.017
N  N69  1  0.15301630  0.92225094  0.81342766  1  -0.262186  0.043854  3.31775  0.039  -0.223042  0.019899  3.591142  0.019  -0.251253  0.022596  3.610655  0.021  -0.335038  -0.206626  0.018042  3.580468  0.017
N  N70  1  0.61408322  0.18906986  0.04483468  1  -0.267577  0.032217  3.307076  0.024  -0.228951  0.016356  3.57784  0.012  -0.255938  0.017495  3.593723  0.014  -0.334123  -0.213381  0.016151  3.569832  0.012
N  N71  1  0.38592399  0.81092631  0.95517698  1  -0.267457  0.032221  3.307215  0.024  -0.228891  0.016361  3.577958  0.012  -0.255881  0.0175  3.593841  0.014  -0.334069  -0.213333  0.016155  3.569933  0.012
O  O72  1  0.80936499  0.35010482  0.03168702  1  -0.738077  0.018597  2.020831  0.015  -0.711595  -0.000104  2.242  -0.004  -0.750644  0.005303  2.210696  0.003  -0.545525  -0.682583  -0.006015  2.262028  -0.012
O  O73  1  0.19062211  0.64990120  0.96831152  1  -0.737978  0.018609  2.020728  0.015  -0.711635  -0.000102  2.242081  -0.004  -0.750678  0.005304  2.210775  0.003  -0.545551  -0.682616  -0.006002  2.262069  -0.012
O  O74  1  0.53767601  0.43069424  0.15353508  1  -0.555257  0.028329  2.189096  0.025  -0.534979  0.003686  2.473113  0.003  -0.575791  0.005672  2.463615  0.006  -0.30387  -0.506993  0.001112  2.479267  0.0
O  O75  1  0.46231494  0.56931386  0.84646966  1  -0.555103  0.028327  2.189286  0.025  -0.53491  0.003683  2.473327  0.003  -0.575721  0.005674  2.463812  0.006  -0.303811  -0.506929  0.001104  2.479472  0.0
O  O76  1  0.30517519  0.55338853  0.19638256  1  -0.567197  0.003392  1.994944  0.001  -0.518869  -0.002611  2.213942  -0.007  -0.545563  -0.00165  2.205072  -0.005  -0.28242  -0.498613  -0.003673  2.218896  -0.008
O  O77  1  0.69481191  0.44661314  0.80363012  1  -0.567195  0.003395  1.994328  0.001  -0.518931  -0.002615  2.213352  -0.007  -0.545627  -0.001653  2.20448  -0.005  -0.282502  -0.498673  -0.00368  2.218299  -0.008
O  O78  1  0.60156200  0.17779374  0.32170488  1  -0.54608  0.024449  2.073781  0.017  -0.53201  -0.000266  2.345503  -0.005  -0.574526  0.004881  2.337963  0.002  -0.310442  -0.500029  -0.006184  2.347759  -0.014
O  O79  1  0.39842151  0.82221759  0.67830640  1  -0.545937  0.024447  2.073662  0.017  -0.532004  -0.000267  2.345365  -0.005  -0.574521  0.004882  2.33782  0.002  -0.310482  -0.500034  -0.006173  2.347634  -0.014
O  O80  1  0.62449810  0.11096065  0.53616166  1  -0.558489  0.012781  1.969145  0.01  -0.513766  0.000546  2.191982  -0.002  -0.541648  0.000986  2.183492  -0.001  -0.275693  -0.492694  -0.000823  2.195775  -0.005
O  O81  1  0.37551518  0.88905914  0.46382479  1  -0.558481  0.012771  1.96889  0.01  -0.513773  0.000544  2.191619  -0.002  -0.541654  0.000984  2.183123  -0.001  -0.275755  -0.492696  -0.000824  2.1954  -0.005
O  O82  1  0.81749379  0.32528543  0.29726558  1  -0.572111  0.028422  2.159423  0.024  -0.548814  0.009177  2.433754  0.008  -0.58932  0.011002  2.425877  0.01  -0.299433  -0.519845  0.006451  2.437718  0.005
O  O83  1  0.18251040  0.67471835  0.70272773  1  -0.572097  0.028411  2.159299  0.024  -0.548761  0.00918  2.433569  0.008  -0.589266  0.011006  2.42568  0.01  -0.299441  -0.519782  0.006443  2.437506  0.005
O  O84  1  0.89232158  0.50738582  0.16486550  1  -0.565897  -8.1e-05  1.931914  -0.001  -0.5171  -0.000702  2.135924  -0.002  -0.539726  -0.000795  2.124238  -0.002  -0.292604  -0.50057  -0.000829  2.144114  -0.002
O  O85  1  0.10767654  0.49261148  0.83514928  1  -0.56603  -8.3e-05  1.930914  -0.001  -0.517205  -0.000702  2.134898  -0.002  -0.539824  -0.000795  2.123197  -0.002  -0.292562  -0.50067  -0.000831  2.143087  -0.002
O  O86  1  0.16407766  0.21636592  0.29899600  1  -0.539462  0.00034  1.906404  0.0  -0.503886  7.7e-05  2.114789  0.0  -0.522856  3.4e-05  2.106421  0.0  -0.289018  -0.490427  7.9e-05  2.120765  0.0
O  O87  1  0.83592707  0.78365710  0.70099896  1  -0.539466  0.000336  1.906458  0.0  -0.503946  7.2e-05  2.11483  0.0  -0.522911  3.4e-05  2.106451  0.0  -0.289042  -0.490485  8e-05  2.120804  0.0
O  O88  1  0.25891074  0.15035018  0.50459422  1  -0.556769  -7.3e-05  2.104533  0.0  -0.507131  -6.4e-05  2.325934  0.0  -0.529659  -3.7e-05  2.31085  0.0  -0.33233  -0.49167  -1.5e-05  2.335609  0.0
O  O89  1  0.74108435  0.84965471  0.49540413  1  -0.556674  -7.4e-05  2.104535  0.0  -0.507058  -6.2e-05  2.325856  0.0  -0.529583  -3.6e-05  2.310795  0.0  -0.332264  -0.491615  -1.5e-05  2.335574  0.0
