# generated using pymatgen
data_SmH12C14(NO4)2
_symmetry_space_group_name_H-M   'P 1'
_cell_length_a   11.09636338
_cell_length_b   11.19044435
_cell_length_c   16.11296192
_cell_angle_alpha   73.98565433
_cell_angle_beta   82.98624659
_cell_angle_gamma   74.33715278
_symmetry_Int_Tables_number   1
_chemical_formula_structural   SmH12C14(NO4)2
_chemical_formula_sum   'Sm4 H48 C56 N8 O32'
_cell_volume   1849.28699419
_cell_formula_units_Z   4
loop_
 _symmetry_equiv_pos_site_id
 _symmetry_equiv_pos_as_xyz
  1  'x, y, z'
loop_
 _atom_site_type_symbol
 _atom_site_label
 _atom_site_symmetry_multiplicity
 _atom_site_fract_x
 _atom_site_fract_y
 _atom_site_fract_z
 _atom_site_occupancy
 _atom_site_hle17_bader_spin_density
 _atom_site_hle17_ddec_charge
 _atom_site_hle17_ddec_spin_density
 _atom_site_hle17_ddec_sum_bond_order
 _atom_site_hle17_magmom
 _atom_site_hse06_10hf_bader_spin_density
 _atom_site_hse06_10hf_ddec_charge
 _atom_site_hse06_10hf_ddec_spin_density
 _atom_site_hse06_10hf_ddec_sum_bond_order
 _atom_site_hse06_10hf_magmom
 _atom_site_hse06_bader_spin_density
 _atom_site_hse06_ddec_charge
 _atom_site_hse06_ddec_spin_density
 _atom_site_hse06_ddec_sum_bond_order
 _atom_site_hse06_magmom
 _atom_site_pbe_bader_spin_density
 _atom_site_pbe_cm5_charge
 _atom_site_pbe_ddec_charge
 _atom_site_pbe_ddec_spin_density
 _atom_site_pbe_ddec_sum_bond_order
 _atom_site_pbe_magmom
Sm  Sm0  1  0.59910872  0.84132007  0.38279518  1  0  2.3207  0  1.651324  0  0  2.23033  0  2.009197  0  0  2.271731  0  1.966033  0  0  1.50966  2.138778  0  2.15276  0
Sm  Sm1  1  0.40088749  0.15868205  0.61720521  1  0  2.320704  0  1.651354  0  0  2.230345  0  2.009234  0  0  2.271751  0  1.966066  0  0  1.509661  2.138888  0  2.15265  0
Sm  Sm2  1  0.79587302  0.99788657  0.13175609  1  0  2.363992  0  1.643679  0  0  2.268964  0  2.010817  0  0  2.315668  0  1.962252  0  0  1.533429  2.235298  0  2.044914  0
Sm  Sm3  1  0.20412500  0.00211556  0.86824291  1  0  2.363917  0  1.643795  0  0  2.268876  0  2.010944  0  0  2.315585  0  1.962377  0  0  1.53341  2.235213  0  2.045039  0
H  H4  1  0.65729139  0.96028981  0.93742044  1  0  0.125519  0  0.928462  0  0  0.13262  0  0.992586  0  0  0.137171  0  0.988727  0  0  0.121948  0.129319  0  0.995325  0
H  H5  1  0.34270707  0.03971045  0.06257638  1  0  0.125495  0  0.928448  0  0  0.132573  0  0.992599  0  0  0.13712  0  0.988737  0  0  0.121945  0.129271  0  0.995337  0
H  H6  1  0.21638926  0.82736211  0.57448758  1  0  0.12311  0  0.942022  0  0  0.129554  0  1.007949  0  0  0.133486  0  1.005042  0  0  0.114376  0.126524  0  1.010509  0
H  H7  1  0.78361260  0.17263526  0.42550887  1  0  0.123136  0  0.942066  0  0  0.129594  0  1.007967  0  0  0.133525  0  1.00506  0  0  0.1144  0.126561  0  1.010527  0
H  H8  1  0.16950145  0.83734101  0.31003656  1  0  0.113262  0  0.936566  0  0  0.121675  0  1.001401  0  0  0.125498  0  0.998896  0  0  0.112369  0.118722  0  1.003445  0
H  H9  1  0.83049565  0.16265732  0.68996135  1  0  0.113311  0  0.936564  0  0  0.121686  0  1.001439  0  0  0.125508  0  0.998935  0  0  0.112399  0.118736  0  1.003481  0
H  H10  1  0.70417932  0.38081867  0.78274531  1  0  0.098605  0  0.946924  0  0  0.122205  0  1.00421  0  0  0.122035  0  1.005204  0  0  0.108802  0.122201  0  1.003582  0
H  H11  1  0.29581986  0.61918625  0.21725742  1  0  0.098674  0  0.946884  0  0  0.12228  0  1.004163  0  0  0.12211  0  1.005155  0  0  0.108837  0.122276  0  1.003534  0
H  H12  1  0.53874181  0.43656698  0.79503045  1  0  0.102609  0  0.934092  0  0  0.122674  0  0.997138  0  0  0.123281  0  0.997251  0  0  0.106101  0.122087  0  0.997226  0
H  H13  1  0.46125577  0.56343701  0.20497134  1  0  0.102561  0  0.93425  0  0  0.122664  0  0.997245  0  0  0.123272  0  0.997358  0  0  0.1061  0.122076  0  0.997332  0
H  H14  1  0.60481847  0.28674205  0.76863067  1  0  0.118196  0  0.94219  0  0  0.136716  0  1.0062  0  0  0.138172  0  1.005242  0  0  0.105905  0.135462  0  1.007112  0
H  H15  1  0.39518251  0.71326292  0.23136880  1  0  0.11825  0  0.942162  0  0  0.136721  0  1.006236  0  0  0.138173  0  1.005286  0  0  0.105937  0.135465  0  1.007148  0
H  H16  1  0.71743881  0.81615798  0.56723291  1  0  0.417318  0  0.86546  0  0  0.380294  0  0.949819  0  0  0.391675  0  0.932238  0  0  0.299004  0.371649  0  0.962975  0
H  H17  1  0.28255739  0.18384416  0.43276624  1  0  0.417359  0  0.865529  0  0  0.380334  0  0.94979  0  0  0.391714  0  0.932211  0  0  0.299032  0.371689  0  0.962948  0
H  H18  1  0.56947019  0.85831327  0.56820611  1  0  0.432799  0  0.869072  0  0  0.405157  0  0.927702  0  0  0.416461  0  0.911136  0  0  0.29714  0.396903  0  0.939521  0
H  H19  1  0.43052556  0.14168695  0.43179406  1  0  0.432793  0  0.869093  0  0  0.405137  0  0.927746  0  0  0.41644  0  0.911182  0  0  0.297133  0.396883  0  0.939563  0
H  H20  1  0.59699738  0.13197366  0.35217929  1  0  0.440705  0  0.865078  0  0  0.407568  0  0.930628  0  0  0.420716  0  0.911964  0  0  0.293162  0.398135  0  0.943904  0
H  H21  1  0.40300337  0.86802845  0.64782010  1  0  0.440681  0  0.865102  0  0  0.407549  0  0.930648  0  0  0.420696  0  0.911983  0  0  0.293161  0.398117  0  0.943922  0
H  H22  1  0.60767881  0.06473751  0.45313542  1  0  0.437114  0  0.8672  0  0  0.407635  0  0.929233  0  0  0.418489  0  0.913352  0  0  0.303905  0.39993  0  0.940173  0
H  H23  1  0.39231853  0.93526749  0.54686373  1  0  0.437097  0  0.867207  0  0  0.407612  0  0.929257  0  0  0.418469  0  0.913371  0  0  0.303911  0.399921  0  0.940186  0
H  H24  1  0.63957845  0.56337583  0.51611126  1  0  0.453952  0  0.794195  0  0  0.442065  0  0.827675  0  0  0.449488  0  0.817168  0  0  0.346914  0.436234  0  0.835809  0
H  H25  1  0.36042776  0.43662241  0.48388839  1  0  0.453976  0  0.7942  0  0  0.442087  0  0.827655  0  0  0.44951  0  0.817149  0  0  0.346919  0.436258  0  0.835788  0
H  H26  1  0.63790053  0.57092059  0.41617413  1  0  0.449954  0  0.819507  0  0  0.424696  0  0.873906  0  0  0.435151  0  0.858386  0  0  0.325034  0.417112  0  0.884976  0
H  H27  1  0.36209839  0.42907771  0.58382550  1  0  0.449973  0  0.819505  0  0  0.424717  0  0.873882  0  0  0.435171  0  0.858364  0  0  0.325054  0.417134  0  0.88495  0
H  H28  1  0.85317178  0.85604997  0.49144843  1  0  0.09647  0  1.001119  0  0  0.10407  0  1.072814  0  0  0.107792  0  1.068626  0  0  0.112162  0.101618  0  1.075021  0
H  H29  1  0.14683054  0.14393011  0.50855366  1  0  0.096448  0  1.001143  0  0  0.104059  0  1.072849  0  0  0.107782  0  1.068662  0  0  0.112103  0.101624  0  1.075035  0
H  H30  1  0.86306549  0.27933571  0.09507161  1  0  0.1198  0  0.972706  0  0  0.122434  0  1.046755  0  0  0.126879  0  1.043052  0  0  0.116265  0.119177  0  1.049538  0
H  H31  1  0.13694120  0.72066819  0.90493191  1  0  0.119755  0  0.97286  0  0  0.122426  0  1.046857  0  0  0.126861  0  1.043172  0  0  0.116286  0.119168  0  1.049639  0
H  H32  1  0.66309891  0.46610449  0.28933410  1  0  0.102705  0  0.953738  0  0  0.109428  0  1.021149  0  0  0.114342  0  1.016135  0  0  0.105577  0.105631  0  1.025199  0
H  H33  1  0.33690800  0.53389847  0.71066834  1  0  0.102726  0  0.953579  0  0  0.109434  0  1.021014  0  0  0.114348  0  1.015999  0  0  0.105609  0.105638  0  1.025063  0
H  H34  1  0.63417494  0.89525157  0.68951244  1  0  0.104793  0  0.964386  0  0  0.113177  0  1.032681  0  0  0.116857  0  1.029324  0  0  0.115623  0.110987  0  1.033907  0
H  H35  1  0.36582374  0.10475158  0.31048259  1  0  0.104885  0  0.964281  0  0  0.113265  0  1.032552  0  0  0.116946  0  1.0292  0  0  0.115664  0.111075  0  1.033778  0
H  H36  1  0.88797657  0.66019950  0.08714245  1  0  0.124342  0  0.954969  0  0  0.125993  0  1.028347  0  0  0.130347  0  1.024392  0  0  0.115797  0.122814  0  1.031241  0
H  H37  1  0.11202875  0.33980635  0.91285959  1  0  0.124363  0  0.955013  0  0  0.126006  0  1.028387  0  0  0.130359  0  1.024433  0  0  0.115797  0.122826  0  1.031281  0
H  H38  1  0.99420082  0.86594439  0.77913608  1  0  0.12312  0  0.957701  0  0  0.122675  0  1.036667  0  0  0.126952  0  1.032611  0  0  0.116673  0.1195  0  1.039765  0
H  H39  1  0.00579764  0.13405200  0.22086332  1  0  0.12313  0  0.957692  0  0  0.122671  0  1.036679  0  0  0.126948  0  1.032622  0  0  0.116667  0.119494  0  1.03978  0
H  H40  1  0.86564601  0.21825199  0.83715976  1  0  0.141233  0  0.948384  0  0  0.158449  0  1.01102  0  0  0.161592  0  1.00938  0  0  0.103361  0.156199  0  1.012211  0
H  H41  1  0.13435382  0.78174247  0.16284050  1  0  0.141177  0  0.948517  0  0  0.158394  0  1.011144  0  0  0.161537  0  1.009503  0  0  0.103335  0.156143  0  1.012335  0
H  H42  1  0.92272013  0.19782511  0.94029755  1  0  0.151256  0  0.96847  0  0  0.164081  0  1.036638  0  0  0.16776  0  1.034215  0  0  0.111999  0.161393  0  1.038424  0
H  H43  1  0.07727925  0.80216358  0.05970505  1  0  0.151278  0  0.968502  0  0  0.164034  0  1.036717  0  0  0.167695  0  1.034347  0  0  0.111991  0.161349  0  1.038501  0
H  H44  1  0.85516638  0.35418946  0.87726214  1  0  0.137788  0  0.926829  0  0  0.15658  0  0.985691  0  0  0.159441  0  0.983884  0  0  0.103825  0.154665  0  0.986793  0
H  H45  1  0.14483755  0.64580302  0.12274000  1  0  0.137716  0  0.926814  0  0  0.156516  0  0.985682  0  0  0.159378  0  0.983872  0  0  0.103791  0.1546  0  0.986784  0
H  H46  1  0.43279611  0.36730360  0.93408476  1  0  0.092021  0  0.934233  0  0  0.111771  0  0.997152  0  0  0.111378  0  0.998709  0  0  0.099998  0.112007  0  0.996011  0
H  H47  1  0.56720168  0.63269949  0.06591408  1  0  0.092034  0  0.934197  0  0  0.111772  0  0.997134  0  0  0.111372  0  0.998697  0  0  0.100028  0.112007  0  0.995994  0
H  H48  1  0.51212304  0.22337927  0.00913217  1  0  0.127471  0  0.964438  0  0  0.143081  0  1.0283  0  0  0.145492  0  1.0263  0  0  0.113821  0.14123  0  1.029833  0
H  H49  1  0.48787203  0.77662384  0.99086690  1  0  0.127468  0  0.964484  0  0  0.143067  0  1.028355  0  0  0.145478  0  1.026355  0  0  0.113836  0.141216  0  1.029885  0
H  H50  1  0.46093564  0.21442113  0.91101845  1  0  0.106775  0  0.924761  0  0  0.1288  0  0.983009  0  0  0.128739  0  0.984015  0  0  0.108514  0.12871  0  0.982432  0
H  H51  1  0.53906102  0.78558292  0.08898093  1  0  0.106686  0  0.924761  0  0  0.128727  0  0.983  0  0  0.128666  0  0.984007  0  0  0.108474  0.128635  0  0.982427  0
C  C52  1  0.70735669  0.24578197  0.24023888  1  0  0.704684  0  3.87196  0  0  0.656624  0  4.16418  0  0  0.691389  0  4.154595  0  0  0.230122  0.633198  0  4.170011  0
C  C53  1  0.29264839  0.75422489  0.75975989  1  0  0.704683  0  3.872034  0  0  0.656683  0  4.164126  0  0  0.69145  0  4.154538  0  0  0.230161  0.633257  0  4.169958  0
C  C54  1  0.75823622  0.36039598  0.19746876  1  0  -0.079105  0  3.772839  0  0  -0.054723  0  4.010924  0  0  -0.064988  0  4.035313  0  0  -0.017396  -0.048204  0  3.994388  0
C  C55  1  0.24176932  0.63960893  0.80253219  1  0  -0.079416  0  3.772984  0  0  -0.055039  0  4.01105  0  0  -0.065305  0  4.035437  0  0  -0.017528  -0.048521  0  3.994514  0
C  C56  1  0.90924880  0.91969997  0.93452595  1  0  0.74086  0  3.839751  0  0  0.6975  0  4.123846  0  0  0.732511  0  4.113458  0  0  0.245259  0.673873  0  4.130152  0
C  C57  1  0.09074603  0.08030025  0.06547429  1  0  0.740799  0  3.839648  0  0  0.697363  0  4.123858  0  0  0.732374  0  4.113476  0  0  0.245242  0.673738  0  4.130164  0
C  C58  1  0.49079165  0.97776462  0.82029171  1  0  0.698549  0  3.885858  0  0  0.651513  0  4.180607  0  0  0.686704  0  4.169318  0  0  0.228885  0.627483  0  4.185726  0
C  C59  1  0.50920750  0.02223653  0.17970799  1  0  0.698978  0  3.885348  0  0  0.651839  0  4.180261  0  0  0.687029  0  4.16897  0  0  0.229019  0.627808  0  4.185385  0
C  C60  1  0.63070748  0.93385447  0.81379259  1  0  -0.06068  0  3.749797  0  0  -0.030897  0  3.977439  0  0  -0.040767  0  4.001084  0  0  -0.009688  -0.024877  0  3.961923  0
C  C61  1  0.36929008  0.06614961  0.18620422  1  0  -0.060959  0  3.749886  0  0  -0.03118  0  3.977592  0  0  -0.041051  0  4.001235  0  0  -0.009762  -0.02516  0  3.962076  0
C  C62  1  0.70285103  0.93557536  0.87840106  1  0  -0.036485  0  3.635057  0  0  -0.073593  0  3.874928  0  0  -0.070219  0  3.893675  0  0  -0.056008  -0.075646  0  3.862501  0
C  C63  1  0.29714629  0.06442586  0.12159568  1  0  -0.036369  0  3.634993  0  0  -0.073421  0  3.874821  0  0  -0.07004  0  3.893562  0  0  -0.055981  -0.075475  0  3.862395  0
C  C64  1  0.83396397  0.91013288  0.86601251  1  0  -0.070058  0  3.723632  0  0  -0.04336  0  3.953226  0  0  -0.054447  0  3.978107  0  0  -0.008329  -0.036492  0  3.936922  0
C  C65  1  0.16603358  0.08986735  0.13398625  1  0  -0.070058  0  3.723697  0  0  -0.043342  0  3.953285  0  0  -0.05443  0  3.978165  0  0  -0.008316  -0.036476  0  3.936982  0
C  C66  1  0.34009524  0.83531352  0.41574746  1  0  0.648922  0  3.93676  0  0  0.599901  0  4.23693  0  0  0.63362  0  4.229349  0  0  0.197921  0.578368  0  4.234315  0
C  C67  1  0.65990413  0.16468288  0.58425062  1  0  0.648989  0  3.936847  0  0  0.600034  0  4.236929  0  0  0.633745  0  4.229351  0  0  0.198009  0.5785  0  4.234327  0
C  C68  1  0.20735567  0.82929996  0.44014280  1  0  -0.063848  0  3.754302  0  0  -0.038519  0  3.991794  0  0  -0.048192  0  4.015676  0  0  -0.018175  -0.033334  0  3.97702  0
C  C69  1  0.79264528  0.17069741  0.55985372  1  0  -0.063763  0  3.754472  0  0  -0.038443  0  3.991899  0  0  -0.048117  0  4.01579  0  0  -0.018155  -0.033257  0  3.977123  0
C  C70  1  0.15742637  0.82977701  0.52434072  1  0  -0.095909  0  3.622013  0  0  -0.130609  0  3.869451  0  0  -0.129302  0  3.887944  0  0  -0.062554  -0.131584  0  3.858008  0
C  C71  1  0.84257368  0.17021652  0.47565784  1  0  -0.096131  0  3.622263  0  0  -0.130832  0  3.869662  0  0  -0.129527  0  3.88816  0  0  -0.062623  -0.131803  0  3.858216  0
C  C72  1  0.13064395  0.83409290  0.37582457  1  0  -0.045282  0  3.657021  0  0  -0.085208  0  3.905849  0  0  -0.082258  0  3.924968  0  0  -0.065003  -0.08655  0  3.89334  0
C  C73  1  0.86935405  0.16590160  0.62417397  1  0  -0.045253  0  3.657109  0  0  -0.085132  0  3.905912  0  0  -0.082181  0  3.925032  0  0  -0.064998  -0.086475  0  3.893404  0
C  C74  1  0.61754716  0.35079474  0.80607417  1  0  -0.172631  0  3.659698  0  0  -0.271545  0  3.903163  0  0  -0.268329  0  3.914714  0  0  -0.131985  -0.273419  0  3.895479  0
C  C75  1  0.38245155  0.64920831  0.19392646  1  0  -0.172767  0  3.659798  0  0  -0.271704  0  3.903327  0  0  -0.268488  0  3.914878  0  0  -0.132076  -0.273575  0  3.895641  0
C  C76  1  0.77351112  0.57455961  0.19283724  1  0  -0.076497  0  3.767442  0  0  -0.049808  0  3.998879  0  0  -0.060673  0  4.023858  0  0  -0.017014  -0.043293  0  3.982749  0
C  C77  1  0.22649308  0.42544331  0.80716854  1  0  -0.076221  0  3.767005  0  0  -0.049563  0  3.998434  0  0  -0.060445  0  4.023438  0  0  -0.016952  -0.043051  0  3.982306  0
C  C78  1  0.73631507  0.69103761  0.22761658  1  0  0.735213  0  3.849165  0  0  0.690337  0  4.13881  0  0  0.725923  0  4.127373  0  0  0.238698  0.666304  0  4.143186  0
C  C79  1  0.26368318  0.30896355  0.77238320  1  0  0.734981  0  3.849254  0  0  0.690174  0  4.138802  0  0  0.725768  0  4.127359  0  0  0.238708  0.666145  0  4.143173  0
C  C80  1  0.95342747  0.84313694  0.47901615  1  0  -0.102312  0  3.678364  0  0  -0.138113  0  3.918409  0  0  -0.136629  0  3.938462  0  0  -0.068483  -0.138952  0  3.905313  0
C  C81  1  0.04657416  0.15685371  0.52098280  1  0  -0.102329  0  3.678332  0  0  -0.13817  0  3.91843  0  0  -0.136691  0  3.938484  0  0  -0.068413  -0.139019  0  3.905312  0
C  C82  1  0.83779293  0.36132353  0.12317873  1  0  -0.090164  0  3.637327  0  0  -0.126203  0  3.884093  0  0  -0.124918  0  3.902909  0  0  -0.059976  -0.126971  0  3.871805  0
C  C83  1  0.16221216  0.63867943  0.87682448  1  0  -0.090064  0  3.637437  0  0  -0.126047  0  3.884246  0  0  -0.124777  0  3.903055  0  0  -0.059984  -0.126813  0  3.871955  0
C  C84  1  0.72655211  0.46693433  0.23219699  1  0  -0.061122  0  3.707657  0  0  -0.102362  0  3.962064  0  0  -0.099452  0  3.981221  0  0  -0.072563  -0.103778  0  3.949236  0
C  C85  1  0.27345458  0.53306959  0.76780529  1  0  -0.061046  0  3.707376  0  0  -0.102269  0  3.961787  0  0  -0.099351  0  3.980947  0  0  -0.072528  -0.103684  0  3.948957  0
C  C86  1  0.00273353  0.84262787  0.39529905  1  0  -0.057581  0  3.737671  0  0  -0.030929  0  3.967742  0  0  -0.040888  0  3.991287  0  0  -0.009732  -0.025041  0  3.952927  0
C  C87  1  0.99726607  0.15736373  0.60470052  1  0  -0.057657  0  3.737536  0  0  -0.031027  0  3.967637  0  0  -0.040985  0  3.991178  0  0  -0.009725  -0.025138  0  3.952824  0
C  C88  1  0.82092228  0.87150094  0.72700468  1  0  0.141331  0  3.80529  0  0  0.151299  0  4.057772  0  0  0.147685  0  4.083649  0  0  0.083685  0.153368  0  4.040681  0
C  C89  1  0.17907846  0.12849736  0.27299356  1  0  0.141392  0  3.805478  0  0  0.151381  0  4.057937  0  0  0.147763  0  4.083816  0  0  0.083751  0.153448  0  4.040845  0
C  C90  1  0.91316958  0.85995329  0.32760195  1  0  0.732553  0  3.849328  0  0  0.689593  0  4.135196  0  0  0.725104  0  4.123415  0  0  0.240414  0.665152  0  4.141722  0
C  C91  1  0.08682776  0.14003635  0.67240190  1  0  0.732758  0  3.84909  0  0  0.689827  0  4.134927  0  0  0.725346  0  4.12312  0  0  0.240411  0.665382  0  4.141466  0
C  C92  1  0.02973487  0.83514751  0.54440832  1  0  0.144237  0  3.820393  0  0  0.152327  0  4.075958  0  0  0.149523  0  4.101382  0  0  0.083412  0.15401  0  4.059046  0
C  C93  1  0.97026587  0.16484312  0.45559195  1  0  0.144372  0  3.820498  0  0  0.152467  0  4.076033  0  0  0.149669  0  4.101445  0  0  0.083423  0.15415  0  4.059124  0
C  C94  1  0.69024752  0.89811669  0.73950554  1  0  -0.098698  0  3.662297  0  0  -0.136651  0  3.907296  0  0  -0.135178  0  3.926887  0  0  -0.062409  -0.136741  0  3.893151  0
C  C95  1  0.30975048  0.10188548  0.26049159  1  0  -0.098707  0  3.662375  0  0  -0.136643  0  3.907379  0  0  -0.135177  0  3.926974  0  0  -0.062425  -0.136734  0  3.893233  0
C  C96  1  0.88690845  0.46774930  0.08485358  1  0  0.142425  0  3.820045  0  0  0.152622  0  4.071613  0  0  0.149656  0  4.09624  0  0  0.083839  0.154388  0  4.055178  0
C  C97  1  0.11309984  0.53225553  0.91515025  1  0  0.142572  0  3.820085  0  0  0.15251  0  4.071996  0  0  0.149601  0  4.096549  0  0  0.083818  0.154277  0  4.055556  0
C  C98  1  0.85353883  0.57553374  0.11890826  1  0  -0.096802  0  3.645538  0  0  -0.130555  0  3.886778  0  0  -0.128127  0  3.904743  0  0  -0.064249  -0.132032  0  3.874867  0
C  C99  1  0.14646787  0.42447015  0.88109589  1  0  -0.096999  0  3.645638  0  0  -0.130671  0  3.886963  0  0  -0.128257  0  3.904922  0  0  -0.064289  -0.132147  0  3.875052  0
C  C100  1  0.89314738  0.88045674  0.79004231  1  0  -0.086317  0  3.627518  0  0  -0.123744  0  3.878622  0  0  -0.121115  0  3.897543  0  0  -0.058356  -0.1252  0  3.866338  0
C  C101  1  0.10684949  0.11954254  0.20995607  1  0  -0.086356  0  3.627527  0  0  -0.123801  0  3.87866  0  0  -0.12117  0  3.897578  0  0  -0.058383  -0.125257  0  3.866378  0
C  C102  1  0.84908429  0.25366315  0.89569923  1  0  -0.449723  0  3.66142  0  0  -0.527787  0  3.900228  0  0  -0.534212  0  3.901389  0  0  -0.234132  -0.523231  0  3.899238  0
C  C103  1  0.15091531  0.74633227  0.10430087  1  0  -0.449581  0  3.661525  0  0  -0.527592  0  3.9004  0  0  -0.534024  0  3.90155  0  0  -0.234076  -0.523041  0  3.899409  0
C  C104  1  0.72511405  0.24165604  0.94238850  1  0  0.606225  0  3.743292  0  0  0.568031  0  4.024804  0  0  0.597349  0  4.025276  0  0  0.256587  0.548286  0  4.023833  0
C  C105  1  0.27488646  0.75833938  0.05761091  1  0  0.606146  0  3.743341  0  0  0.567927  0  4.024859  0  0  0.597245  0  4.02533  0  0  0.256577  0.548181  0  4.023884  0
C  C106  1  0.49910030  0.27270764  0.94099146  1  0  -0.167375  0  3.632808  0  0  -0.264539  0  3.878085  0  0  -0.260858  0  3.887672  0  0  -0.133867  -0.266729  0  3.871461  0
C  C107  1  0.50089477  0.72729546  0.05900823  1  0  -0.167302  0  3.632915  0  0  -0.264476  0  3.878197  0  0  -0.260787  0  3.887784  0  0  -0.133864  -0.266666  0  3.87157  0
N  N108  1  0.96778737  0.45881395  0.01072982  1  0  -0.143061  0  2.994271  0  0  -0.120434  0  3.270939  0  0  -0.119822  0  3.279304  0  0  -0.143152  -0.120796  0  3.265405  0
N  N109  1  0.03222113  0.54118996  0.98927231  1  0  -0.142936  0  2.994229  0  0  -0.120212  0  3.270948  0  0  -0.119612  0  3.279294  0  0  -0.142981  -0.120574  0  3.265414  0
N  N110  1  0.98417629  0.84480148  0.62894054  1  0  -0.129638  0  2.979554  0  0  -0.108748  0  3.258202  0  0  -0.107621  0  3.267915  0  0  -0.13909  -0.109399  0  3.251758  0
N  N111  1  0.01582514  0.15519007  0.37106136  1  0  -0.129714  0  2.979702  0  0  -0.10882  0  3.258349  0  0  -0.107694  0  3.268061  0  0  -0.139138  -0.109472  0  3.251905  0
N  N112  1  0.86911939  0.84683513  0.64593820  1  0  -0.168642  0  3.021573  0  0  -0.136173  0  3.295248  0  0  -0.136906  0  3.303719  0  0  -0.141272  -0.135973  0  3.290085  0
N  N113  1  0.13087976  0.15316223  0.35406034  1  0  -0.168567  0  3.02178  0  0  -0.136101  0  3.295436  0  0  -0.136829  0  3.303906  0  0  -0.141232  -0.1359  0  3.290274  0
N  N114  1  0.61982955  0.28813705  0.89832343  1  0  -0.134676  0  3.426856  0  0  -0.03506  0  3.658341  0  0  -0.056179  0  3.682592  0  0  -0.273129  -0.021011  0  3.641552  0
N  N115  1  0.38017143  0.71186407  0.10167737  1  0  -0.134593  0  3.426922  0  0  -0.034914  0  3.658354  0  0  -0.056031  0  3.682606  0  0  -0.273115  -0.020867  0  3.641562  0
O  O116  1  0.75010506  0.14511651  0.21282826  1  0  -0.76888  0  2.077153  0  0  -0.725326  0  2.34194  0  0  -0.750135  0  2.3273  0  0  -0.432457  -0.708137  0  2.351079  0
O  O117  1  0.24988932  0.85489333  0.78716838  1  0  -0.76889  0  2.077109  0  0  -0.725343  0  2.341832  0  0  -0.750158  0  2.327206  0  0  -0.432513  -0.708145  0  2.350958  0
O  O118  1  0.85433656  0.91977149  0.00868280  1  0  -0.760957  0  2.039979  0  0  -0.719707  0  2.297753  0  0  -0.744303  0  2.283413  0  0  -0.411437  -0.702506  0  2.307227  0
O  O119  1  0.14565827  0.08022492  0.99131691  1  0  -0.760947  0  2.039877  0  0  -0.719673  0  2.297688  0  0  -0.744271  0  2.283349  0  0  -0.411503  -0.70247  0  2.307157  0
O  O120  1  0.02174507  0.92588541  0.91533709  1  0  -0.74678  0  2.090606  0  0  -0.704227  0  2.352902  0  0  -0.728389  0  2.338825  0  0  -0.395129  -0.687264  0  2.361844  0
O  O121  1  0.97824797  0.07412244  0.08466500  1  0  -0.746825  0  2.09073  0  0  -0.704224  0  2.353033  0  0  -0.728394  0  2.338962  0  0  -0.395115  -0.687245  0  2.361936  0
O  O122  1  0.43424377  0.01459045  0.74925749  1  0  -0.817165  0  2.155716  0  0  -0.775608  0  2.428834  0  0  -0.800526  0  2.414414  0  0  -0.436606  -0.748274  0  2.43959  0
O  O123  1  0.56575178  0.98541833  0.25074484  1  0  -0.817345  0  2.155477  0  0  -0.775738  0  2.42863  0  0  -0.800655  0  2.414193  0  0  -0.436688  -0.748379  0  2.439374  0
O  O124  1  0.43174344  0.97776444  0.89241309  1  0  -0.671427  0  1.968298  0  0  -0.634561  0  2.20809  0  0  -0.657088  0  2.196539  0  0  -0.346512  -0.619198  0  2.216069  0
O  O125  1  0.56825665  0.02223666  0.10758965  1  0  -0.671575  0  1.968247  0  0  -0.634685  0  2.208121  0  0  -0.657209  0  2.196567  0  0  -0.346543  -0.619311  0  2.216078  0
O  O126  1  0.39456711  0.88244936  0.46096279  1  0  -0.738414  0  2.053644  0  0  -0.681636  0  2.29443  0  0  -0.708461  0  2.284224  0  0  -0.388863  -0.655831  0  2.30038  0
O  O127  1  0.60543021  0.11754801  0.53903591  1  0  -0.738416  0  2.053734  0  0  -0.681703  0  2.294534  0  0  -0.708505  0  2.284315  0  0  -0.388897  -0.655906  0  2.300481  0
O  O128  1  0.39760085  0.79882386  0.35071190  1  0  -0.671573  0  1.960082  0  0  -0.634119  0  2.193576  0  0  -0.657237  0  2.185991  0  0  -0.355217  -0.611702  0  2.197778  0
O  O129  1  0.60240079  0.20117059  0.64928759  1  0  -0.671675  0  1.960135  0  0  -0.634247  0  2.193623  0  0  -0.657368  0  2.186041  0  0  -0.355294  -0.611839  0  2.197827  0
O  O130  1  0.94660146  0.89273958  0.24848780  1  0  -0.694601  0  1.982947  0  0  -0.653176  0  2.222533  0  0  -0.678127  0  2.21258  0  0  -0.35729  -0.636116  0  2.229492  0
O  O131  1  0.05339315  0.10725775  0.75151424  1  0  -0.694598  0  1.983069  0  0  -0.65318  0  2.22264  0  0  -0.678135  0  2.212678  0  0  -0.35725  -0.63612  0  2.229603  0
O  O132  1  0.64566221  0.81065217  0.53960502  1  0  -0.902432  0  1.815503  0  0  -0.861753  0  1.999254  0  0  -0.877579  0  1.963307  0  0  -0.627351  -0.842523  0  2.028665  0
O  O133  1  0.35433285  0.18935095  0.46039342  1  0  -0.902461  0  1.815552  0  0  -0.861769  0  1.999217  0  0  -0.877596  0  1.963275  0  0  -0.627365  -0.84255  0  2.028629  0
O  O134  1  0.57401640  0.05644209  0.40086854  1  0  -0.94953  0  1.911893  0  0  -0.900116  0  2.110598  0  0  -0.921863  0  2.075681  0  0  -0.639694  -0.876184  0  2.13706  0
O  O135  1  0.42598344  0.94356002  0.59913092  1  0  -0.94951  0  1.91199  0  0  -0.900094  0  2.110649  0  0  -0.921868  0  2.075787  0  0  -0.639706  -0.876176  0  2.13703  0
O  O136  1  0.67037623  0.68476921  0.29896129  1  0  -0.759046  0  2.021283  0  0  -0.710476  0  2.263953  0  0  -0.736411  0  2.250935  0  0  -0.39516  -0.684436  0  2.273086  0
O  O137  1  0.32961495  0.31523877  0.70103411  1  0  -0.75902  0  2.021275  0  0  -0.710477  0  2.263921  0  0  -0.736414  0  2.250901  0  0  -0.395245  -0.684452  0  2.27305  0
O  O138  1  0.60080918  0.61335945  0.46231411  1  0  -0.876599  0  1.823378  0  0  -0.841006  0  1.972832  0  0  -0.856721  0  1.942262  0  0  -0.608185  -0.822361  0  1.999728  0
O  O139  1  0.39919726  0.38664165  0.53768560  1  0  -0.876645  0  1.82338  0  0  -0.84105  0  1.972786  0  0  -0.856766  0  1.942217  0  0  -0.608209  -0.822418  0  1.999671  0
O  O140  1  0.77182199  0.78910519  0.18389074  1  0  -0.758244  0  2.112053  0  0  -0.717484  0  2.371723  0  0  -0.741756  0  2.357761  0  0  -0.403304  -0.700097  0  2.379224  0
O  O141  1  0.22817717  0.21089980  0.81610826  1  0  -0.758168  0  2.112245  0  0  -0.717421  0  2.371866  0  0  -0.741694  0  2.357903  0  0  -0.403257  -0.700034  0  2.379365  0
O  O142  1  0.62610069  0.25477825  0.30218192  1  0  -0.607792  0  1.929675  0  0  -0.554595  0  2.135089  0  0  -0.579258  0  2.123261  0  0  -0.315644  -0.537957  0  2.14322  0
O  O143  1  0.37390576  0.74522279  0.69782091  1  0  -0.607708  0  1.929833  0  0  -0.554541  0  2.135211  0  0  -0.579196  0  2.123382  0  0  -0.315592  -0.537907  0  2.14334  0
O  O144  1  0.80498581  0.84289435  0.35636472  1  0  -0.803105  0  2.10264  0  0  -0.762098  0  2.365777  0  0  -0.786241  0  2.34986  0  0  -0.438226  -0.734581  0  2.379159  0
O  O145  1  0.19501448  0.15709817  0.64363648  1  0  -0.803282  0  2.102532  0  0  -0.762276  0  2.365663  0  0  -0.786422  0  2.349734  0  0  -0.438286  -0.734779  0  2.379052  0
O  O146  1  0.72041708  0.18933252  0.02259411  1  0  -0.707449  0  2.072572  0  0  -0.66698  0  2.324431  0  0  -0.690855  0  2.315512  0  0  -0.392581  -0.65032  0  2.330126  0
O  O147  1  0.27957980  0.81066675  0.97740552  1  0  -0.707422  0  2.072706  0  0  -0.666942  0  2.324558  0  0  -0.690813  0  2.315633  0  0  -0.39256  -0.650282  0  2.330251  0
