# generated using pymatgen
data_ZnH6C9N3O2
_symmetry_space_group_name_H-M   'P 1'
_cell_length_a   11.11034593
_cell_length_b   13.34164440
_cell_length_c   13.74617412
_cell_angle_alpha   89.99998251
_cell_angle_beta   90.00005514
_cell_angle_gamma   90.00003579
_symmetry_Int_Tables_number   1
_chemical_formula_structural   ZnH6C9N3O2
_chemical_formula_sum   'Zn8 H48 C72 N24 O16'
_cell_volume   2037.59930087
_cell_formula_units_Z   8
loop_
 _symmetry_equiv_pos_site_id
 _symmetry_equiv_pos_as_xyz
  1  'x, y, z'
loop_
 _atom_site_type_symbol
 _atom_site_label
 _atom_site_symmetry_multiplicity
 _atom_site_fract_x
 _atom_site_fract_y
 _atom_site_fract_z
 _atom_site_occupancy
 _atom_site_pbe_bader_charge
 _atom_site_pbe_bader_spin_density
 _atom_site_pbe_cm5_charge
 _atom_site_pbe_ddec_charge
 _atom_site_pbe_ddec_spin_density
 _atom_site_pbe_ddec_sum_bond_order
 _atom_site_pbe_magmom
Zn  Zn0  1  0.28942616  0.04998856  0.68740956  1  1.218384  0  0.715589  0.666316  0  2.524366  0
Zn  Zn1  1  0.78942691  0.95001049  0.31259114  1  1.218306  0  0.715585  0.666313  0  2.524325  0
Zn  Zn2  1  0.78942965  0.45001209  0.68740823  1  1.218282  0  0.71557  0.66628  0  2.524391  0
Zn  Zn3  1  0.28942972  0.54998995  0.31259101  1  1.218285  0  0.715546  0.666251  0  2.524404  0
Zn  Zn4  1  0.42409660  0.95050349  0.89009860  1  1.218474  0  0.721688  0.663728  0  2.541395  0
Zn  Zn5  1  0.92409732  0.04949787  0.10990002  1  1.218477  0  0.721665  0.6637  0  2.541412  0
Zn  Zn6  1  0.92409528  0.54949533  0.89010031  1  1.218469  0  0.721694  0.663734  0  2.541413  0
Zn  Zn7  1  0.42409684  0.45050303  0.10989977  1  1.218484  0  0.721696  0.663755  0  2.541392  0
H  H8  1  0.21701121  0.79627206  0.94822817  1  0.114781  0  0.122597  0.114444  0  1.002061  0
H  H9  1  0.71701019  0.20372919  0.05177174  1  0.114814  0  0.122586  0.114418  0  1.00209  0
H  H10  1  0.71701001  0.70372888  0.94822765  1  0.114798  0  0.122597  0.114443  0  1.002063  0
H  H11  1  0.21701139  0.29627312  0.05177154  1  0.114784  0  0.122596  0.114428  0  1.002071  0
H  H12  1  0.09563950  0.86655277  0.65661898  1  0.116204  0  0.116294  0.105333  0  1.00205  0
H  H13  1  0.59564328  0.13344392  0.34338157  1  0.116208  0  0.116307  0.105357  0  1.002076  0
H  H14  1  0.59564545  0.63344371  0.65661847  1  0.116217  0  0.116297  0.105336  0  1.002136  0
H  H15  1  0.09564453  0.36655748  0.34338135  1  0.116228  0  0.11629  0.10533  0  1.002123  0
H  H16  1  0.62632313  0.12407318  0.91525707  1  0.1054  0  0.120039  0.107461  0  1.010898  0
H  H17  1  0.12632228  0.87592953  0.08474132  1  0.105382  0  0.120056  0.107486  0  1.010843  0
H  H18  1  0.12632079  0.37593031  0.91525975  1  0.105351  0  0.120067  0.10749  0  1.010865  0
H  H19  1  0.62632192  0.62407015  0.08473937  1  0.105333  0  0.120056  0.107462  0  1.01088  0
H  H20  1  0.50100645  0.20024521  0.62611474  1  0.092489  0  0.118624  0.109278  0  0.992226  0
H  H21  1  0.00100679  0.79975668  0.37388501  1  0.092511  0  0.118634  0.109281  0  0.992226  0
H  H22  1  0.00101126  0.29975530  0.62611526  1  0.092459  0  0.11861  0.109238  0  0.992231  0
H  H23  1  0.50101189  0.70024434  0.37388376  1  0.092477  0  0.118595  0.109242  0  0.992286  0
H  H24  1  0.48188364  0.83930520  0.06615520  1  0.144857  0  0.124977  0.105558  0  0.9944  0
H  H25  1  0.98187824  0.16069694  0.93384492  1  0.144887  0  0.125014  0.105625  0  0.994441  0
H  H26  1  0.98187880  0.66069616  0.06615396  1  0.144899  0  0.124987  0.105596  0  0.994385  0
H  H27  1  0.48187947  0.33930448  0.93384470  1  0.144904  0  0.125004  0.105617  0  0.99437  0
H  H28  1  0.44192910  0.85016514  0.24354781  1  0.103911  0  0.110225  0.116752  0  1.034039  0
H  H29  1  0.94192618  0.14983473  0.75645155  1  0.10391  0  0.110215  0.116758  0  1.033986  0
H  H30  1  0.94192696  0.64983240  0.24354585  1  0.103966  0  0.110248  0.116776  0  1.034015  0
H  H31  1  0.44192652  0.35016822  0.75645351  1  0.103957  0  0.110236  0.116766  0  1.034029  0
H  H32  1  0.28285275  0.14197130  0.19232342  1  0.104809  0  0.111482  0.120014  0  1.022521  0
H  H33  1  0.78285672  0.85802549  0.80767655  1  0.10478  0  0.111485  0.120078  0  1.022526  0
H  H34  1  0.78285256  0.35802651  0.19232213  1  0.104782  0  0.111478  0.12001  0  1.022555  0
H  H35  1  0.28285240  0.64197328  0.80767857  1  0.104784  0  0.111478  0.120026  0  1.022532  0
H  H36  1  0.32062823  0.11517554  0.01524871  1  0.124675  0  0.127297  0.107955  0  0.98148  0
H  H37  1  0.82063064  0.88482352  0.98475201  1  0.124659  0  0.127266  0.107916  0  0.981524  0
H  H38  1  0.82062807  0.38482459  0.01524741  1  0.124638  0  0.127295  0.107918  0  0.981482  0
H  H39  1  0.32062900  0.61517522  0.98475331  1  0.124652  0  0.127283  0.107907  0  0.98153  0
H  H40  1  0.45404685  0.93652027  0.55921600  1  0.148308  0  0.123537  0.100371  0  0.99767  0
H  H41  1  0.95404349  0.06347886  0.44078482  1  0.14836  0  0.123545  0.100416  0  0.997613  0
H  H42  1  0.95404825  0.56348093  0.55921334  1  0.14832  0  0.123563  0.100397  0  0.997683  0
H  H43  1  0.45404660  0.43652195  0.44078603  1  0.148335  0  0.123562  0.100413  0  0.997641  0
H  H44  1  0.49417780  0.91835388  0.38011455  1  0.127569  0  0.109076  0.119202  0  1.039584  0
H  H45  1  0.99417737  0.08164452  0.61988631  1  0.12761  0  0.109092  0.119224  0  1.039567  0
H  H46  1  0.99417831  0.58164589  0.38011115  1  0.127569  0  0.109092  0.119184  0  1.039578  0
H  H47  1  0.49417596  0.41835476  0.61988679  1  0.127638  0  0.10909  0.119203  0  1.039588  0
H  H48  1  0.17684441  0.10145375  0.32949173  1  0.136275  0  0.112937  0.132698  0  1.024333  0
H  H49  1  0.67684285  0.89854523  0.67051106  1  0.136223  0  0.112914  0.132666  0  1.024334  0
H  H50  1  0.67684336  0.39854620  0.32949188  1  0.13628  0  0.112935  0.132708  0  1.02432  0
H  H51  1  0.17684211  0.60145503  0.67050800  1  0.136236  0  0.112927  0.132681  0  1.024345  0
H  H52  1  0.15982616  0.11947849  0.50909079  1  0.114232  0  0.121799  0.096105  0  0.999151  0
H  H53  1  0.65982526  0.88051749  0.49091127  1  0.114163  0  0.121752  0.096093  0  0.999108  0
H  H54  1  0.65982779  0.38052290  0.50909094  1  0.114259  0  0.121772  0.09608  0  0.999247  0
H  H55  1  0.15982543  0.61947907  0.49090893  1  0.114197  0  0.121782  0.096093  0  0.999143  0
C  C56  1  0.23049539  0.07370154  0.47658941  1  0.437353  0  0.052977  0.096866  0  3.925399  0
C  C57  1  0.73049367  0.92629597  0.52341269  1  0.437404  0  0.052999  0.096895  0  3.925197  0
C  C58  1  0.73049435  0.42629914  0.47658810  1  0.437322  0  0.05301  0.096902  0  3.925387  0
C  C59  1  0.23049380  0.57370287  0.52341182  1  0.437358  0  0.053  0.096911  0  3.925264  0
C  C60  1  0.41687601  0.96146698  0.40572891  1  0.000809  0  -0.077736  -0.174015  0  3.925271  0
C  C61  1  0.91687461  0.03853063  0.59427261  1  0.000941  0  -0.077765  -0.174069  0  3.925341  0
C  C62  1  0.91687559  0.53853199  0.40572626  1  0.000923  0  -0.077788  -0.174035  0  3.925257  0
C  C63  1  0.41687414  0.46146787  0.59427236  1  0.000889  0  -0.077747  -0.174009  0  3.925428  0
C  C64  1  0.24300799  0.06505645  0.37643574  1  0.036861  0  -0.070262  -0.15373  0  3.884644  0
C  C65  1  0.74300639  0.93494182  0.62356711  1  0.046375  0  -0.070251  -0.153712  0  3.884656  0
C  C66  1  0.74300966  0.43494277  0.37643515  1  0.036834  0  -0.070257  -0.15376  0  3.884661  0
C  C67  1  0.24300742  0.56505775  0.62356479  1  0.046398  0  -0.070263  -0.153726  0  3.884735  0
C  C68  1  0.33890505  0.00830186  0.33916068  1  -0.052329  0  0.023447  0.120773  0  3.946004  0
C  C69  1  0.83890624  0.99169271  0.66084078  1  -0.061935  0  0.023438  0.120787  0  3.945971  0
C  C70  1  0.83890676  0.49169443  0.33915935  1  -0.052361  0  0.023415  0.120786  0  3.945973  0
C  C71  1  0.33890543  0.50830614  0.66083993  1  -0.061919  0  0.023471  0.120789  0  3.946097  0
C  C72  1  0.19968409  0.82887900  0.87712619  1  0.42063  0  0.015814  -0.015364  0  3.96476  0
C  C73  1  0.69968492  0.17112150  0.12287371  1  0.420613  0  0.015816  -0.015356  0  3.964645  0
C  C74  1  0.69968196  0.67112121  0.87712568  1  0.420598  0  0.015787  -0.015406  0  3.96481  0
C  C75  1  0.19968525  0.32888078  0.12287349  1  0.420679  0  0.015807  -0.015325  0  3.964699  0
C  C76  1  0.12042367  0.79629305  0.80418224  1  0.003014  0  -0.051954  -0.159976  0  4.083607  0
C  C77  1  0.62042282  0.20370815  0.19581833  1  0.002742  0  -0.051914  -0.159886  0  4.083484  0
C  C78  1  0.62042067  0.70370489  0.80418317  1  0.003043  0  -0.051927  -0.159919  0  4.083654  0
C  C79  1  0.12042312  0.29629256  0.19581813  1  0.003047  0  -0.051934  -0.159957  0  4.08348  0
C  C80  1  0.13900993  0.86371879  0.72729175  1  0.382379  0  0.015368  -0.011653  0  3.976405  0
C  C81  1  0.63900912  0.13628168  0.27270956  1  0.382266  0  0.015358  -0.01171  0  3.976315  0
C  C82  1  0.63900958  0.63628219  0.72729052  1  0.382329  0  0.015315  -0.011723  0  3.97646  0
C  C83  1  0.13901037  0.36371978  0.27270861  1  0.382296  0  0.015411  -0.011574  0  3.97633  0
C  C84  1  0.04112098  0.70780918  0.80699900  1  1.56647  0  0.18528  0.573292  0  4.285592  0
C  C85  1  0.54111929  0.29219048  0.19300078  1  1.566669  0  0.185247  0.573241  0  4.285508  0
C  C86  1  0.54111804  0.79219097  0.80700064  1  1.566376  0  0.185301  0.573228  0  4.285612  0
C  C87  1  0.04112403  0.20780795  0.19300060  1  1.566126  0  0.185273  0.573255  0  4.285516  0
C  C88  1  0.58193383  0.12930567  0.84513136  1  0.433206  0  0.022308  -0.001848  0  3.953014  0
C  C89  1  0.08193396  0.87069627  0.15486772  1  0.433282  0  0.022239  -0.001959  0  3.95298  0
C  C90  1  0.08193329  0.37069632  0.84513477  1  0.433252  0  0.022192  -0.002034  0  3.953027  0
C  C91  1  0.58193540  0.62930336  0.15486504  1  0.433231  0  0.022174  -0.001986  0  3.952987  0
C  C92  1  0.60103313  0.19717963  0.76862061  1  -0.010374  0  -0.05089  -0.159286  0  4.072611  0
C  C93  1  0.10103510  0.80282082  0.23137848  1  -0.010511  0  -0.050852  -0.159199  0  4.072567  0
C  C94  1  0.10103433  0.30282015  0.76862332  1  -0.010462  0  -0.05085  -0.159169  0  4.072572  0
C  C95  1  0.60103659  0.69717805  0.23137651  1  -0.01055  0  -0.050802  -0.159144  0  4.072632  0
C  C96  1  0.51830838  0.16740068  0.69701303  1  0.432265  0  0.012643  -0.019764  0  3.988039  0
C  C97  1  0.01830955  0.83260122  0.30298674  1  0.432386  0  0.012613  -0.019835  0  3.987984  0
C  C98  1  0.01831140  0.33260132  0.69701499  1  0.432431  0  0.012645  -0.019784  0  3.988066  0
C  C99  1  0.51831193  0.66739833  0.30298477  1  0.432495  0  0.012625  -0.019832  0  3.988053  0
C  C100  1  0.68123768  0.28501890  0.76647967  1  1.554252  0  0.186642  0.576307  0  4.273785  0
C  C101  1  0.18123779  0.71498384  0.23352021  1  1.554217  0  0.186586  0.576237  0  4.273915  0
C  C102  1  0.18123612  0.21498242  0.76648095  1  1.554229  0  0.186634  0.576263  0  4.273792  0
C  C103  1  0.68123575  0.78501582  0.23352185  1  1.554216  0  0.186539  0.576166  0  4.273994  0
C  C104  1  0.43712900  0.90440960  0.09765775  1  0.440174  0  0.058837  0.112211  0  3.88766  0
C  C105  1  0.93712441  0.09559252  0.90234160  1  0.439419  0  0.05878  0.112101  0  3.887703  0
C  C106  1  0.93712502  0.59559023  0.09765654  1  0.440191  0  0.058782  0.112105  0  3.887741  0
C  C107  1  0.43712570  0.40441039  0.90234355  1  0.440183  0  0.05878  0.112129  0  3.887664  0
C  C108  1  0.41579129  0.91203608  0.19665111  1  0.048004  0  -0.070433  -0.145898  0  3.910801  0
C  C109  1  0.91578838  0.08796303  0.80334823  1  0.048747  0  -0.070397  -0.145865  0  3.910756  0
C  C110  1  0.91579000  0.58796221  0.19665062  1  0.047969  0  -0.070412  -0.145852  0  3.910813  0
C  C111  1  0.41579057  0.41203765  0.80334872  1  0.047987  0  -0.070418  -0.145898  0  3.910655  0
C  C112  1  0.35946637  0.99783957  0.23367956  1  0.000823  0  0.017215  0.098719  0  3.970585  0
C  C113  1  0.85946875  0.00215951  0.76632119  1  0.000759  0  0.017234  0.098761  0  3.970557  0
C  C114  1  0.85946592  0.50215868  0.23367764  1  0.000698  0  0.017289  0.098752  0  3.970484  0
C  C115  1  0.35946740  0.49784190  0.76632093  1  0.000786  0  0.017209  0.098734  0  3.970496  0
C  C116  1  0.32498371  0.07279318  0.16772024  1  -0.037193  0  -0.069593  -0.147175  0  3.90898  0
C  C117  1  0.82498596  0.92720438  0.83228049  1  -0.03713  0  -0.069589  -0.147293  0  3.909017  0
C  C118  1  0.82498357  0.42720540  0.16771820  1  -0.037097  0  -0.069659  -0.147241  0  3.909066  0
C  C119  1  0.32498339  0.57279441  0.83228108  1  -0.037179  0  -0.069626  -0.147238  0  3.909076  0
C  C120  1  0.34756980  0.05949574  0.06925940  1  0.509071  0  0.057354  0.096207  0  3.911609  0
C  C121  1  0.84757218  0.94050258  0.93074207  1  0.50948  0  0.057376  0.096232  0  3.91171  0
C  C122  1  0.84756877  0.44050288  0.06925881  1  0.509437  0  0.057426  0.096323  0  3.91171  0
C  C123  1  0.34757050  0.55949694  0.93074048  1  0.509038  0  0.057387  0.096295  0  3.911716  0
C  C124  1  0.39662288  0.97217104  0.50481829  1  0.396489  0  0.050539  0.089031  0  3.937949  0
C  C125  1  0.89662226  0.02782656  0.49518322  1  0.396422  0  0.050555  0.089066  0  3.937861  0
C  C126  1  0.89662335  0.52782864  0.50481710  1  0.396417  0  0.050606  0.089087  0  3.938024  0
C  C127  1  0.39662179  0.47217196  0.49518369  1  0.396432  0  0.050503  0.089016  0  3.937973  0
N  N128  1  0.30509525  0.02787362  0.53984778  1  -1.260103  0  -0.331319  -0.219772  0  3.568526  0
N  N129  1  0.80509528  0.97212093  0.46015293  1  -1.260056  0  -0.331295  -0.219837  0  3.568314  0
N  N130  1  0.80509784  0.47212558  0.53984645  1  -1.260059  0  -0.331363  -0.219795  0  3.56855  0
N  N131  1  0.30509538  0.52787572  0.46015208  1  -1.260079  0  -0.331307  -0.219814  0  3.568352  0
N  N132  1  0.22274364  0.93123072  0.75329828  1  -0.794061  0  -0.275728  -0.174275  0  3.609547  0
N  N133  1  0.72274455  0.06876903  0.24670091  1  -0.793922  0  -0.275707  -0.174248  0  3.609462  0
N  N134  1  0.72274504  0.56877029  0.75329780  1  -0.794027  0  -0.275696  -0.174253  0  3.609463  0
N  N135  1  0.22274405  0.43123247  0.24670067  1  -0.793969  0  -0.275733  -0.174311  0  3.609486  0
N  N136  1  0.26098732  0.90930988  0.84546358  1  -0.790095  0  -0.278443  -0.182312  0  3.583472  0
N  N137  1  0.76098723  0.09068915  0.15453564  1  -0.790097  0  -0.278468  -0.182352  0  3.583512  0
N  N138  1  0.76098693  0.59068962  0.84546382  1  -0.790069  0  -0.278438  -0.182285  0  3.583454  0
N  N139  1  0.26098762  0.40931316  0.15453540  1  -0.790181  0  -0.278473  -0.18238  0  3.583513  0
N  N140  1  0.45479459  0.08830996  0.72886115  1  -0.793359  0  -0.278256  -0.186063  0  3.597564  0
N  N141  1  0.95479526  0.91169142  0.27113895  1  -0.79356  0  -0.278229  -0.186017  0  3.597479  0
N  N142  1  0.95479714  0.41169076  0.72886057  1  -0.793213  0  -0.278211  -0.185965  0  3.597553  0
N  N143  1  0.45479720  0.58830837  0.27113808  1  -0.793534  0  -0.278178  -0.185908  0  3.59747  0
N  N144  1  0.49455037  0.06484283  0.82023495  1  -0.790946  0  -0.272816  -0.166829  0  3.608613  0
N  N145  1  0.99454915  0.93515932  0.17976517  1  -0.790715  0  -0.272799  -0.166789  0  3.60867  0
N  N146  1  0.99455025  0.43515863  0.82023509  1  -0.791047  0  -0.272793  -0.166781  0  3.608648  0
N  N147  1  0.49455108  0.56484127  0.17976358  1  -0.7907  0  -0.272766  -0.166819  0  3.608625  0
N  N148  1  0.40350357  0.97692315  0.03497920  1  -1.271532  0  -0.330256  -0.221053  0  3.571018  0
N  N149  1  0.90350261  0.02307745  0.96502013  1  -1.271956  0  -0.33024  -0.22098  0  3.570965  0
N  N150  1  0.90350044  0.52307518  0.03497873  1  -1.271953  0  -0.33029  -0.221082  0  3.571187  0
N  N151  1  0.40350305  0.47692392  0.96502060  1  -1.271535  0  -0.330221  -0.221026  0  3.571081  0
O  O152  1  0.99660152  0.67259340  0.73037515  1  -1.192027  0  -0.348761  -0.578907  0  2.085828  0
O  O153  1  0.49659418  0.32740501  0.26962644  1  -1.19191  0  -0.348752  -0.578896  0  2.085681  0
O  O154  1  0.49659375  0.82740402  0.73037275  1  -1.191871  0  -0.348788  -0.578888  0  2.085704  0
O  O155  1  0.99659926  0.17259363  0.26962811  1  -1.191701  0  -0.348768  -0.57891  0  2.085688  0
O  O156  1  0.02614129  0.66990379  0.89381516  1  -1.175364  0  -0.351257  -0.56355  0  2.303846  0
O  O157  1  0.52614132  0.33009586  0.10618388  1  -1.175446  0  -0.351255  -0.563543  0  2.303868  0
O  O158  1  0.52614198  0.83009782  0.89381678  1  -1.175472  0  -0.351213  -0.563457  0  2.303908  0
O  O159  1  0.02614243  0.16990333  0.10618371  1  -1.175391  0  -0.351228  -0.563495  0  2.303877  0
O  O160  1  0.67866797  0.33483885  0.68385595  1  -1.183568  0  -0.360038  -0.589183  0  2.315523  0
O  O161  1  0.17866634  0.66516388  0.31614321  1  -1.183555  0  -0.359995  -0.589112  0  2.315517  0
O  O162  1  0.17866638  0.16516399  0.68385651  1  -1.183558  0  -0.36004  -0.58917  0  2.315484  0
O  O163  1  0.67866434  0.83483575  0.31614411  1  -1.18359  0  -0.359985  -0.589091  0  2.315562  0
O  O164  1  0.74265886  0.30946566  0.83878127  1  -1.181188  0  -0.336866  -0.558012  0  2.085669  0
O  O165  1  0.24265887  0.69053561  0.16121867  1  -1.181179  0  -0.336861  -0.558011  0  2.085719  0
O  O166  1  0.24265819  0.19053341  0.83878182  1  -1.181204  0  -0.336869  -0.558011  0  2.085655  0
O  O167  1  0.74265954  0.80946635  0.16121812  1  -1.181152  0  -0.336847  -0.557993  0  2.085634  0
