# generated using pymatgen
data_V4CuH4C4(NO5)2
_symmetry_space_group_name_H-M   'P 1'
_cell_length_a   6.75349352
_cell_length_b   8.11353524
_cell_length_c   11.67778000
_cell_angle_alpha   89.99001545
_cell_angle_beta   90.00341586
_cell_angle_gamma   114.91424879
_symmetry_Int_Tables_number   1
_chemical_formula_structural   V4CuH4C4(NO5)2
_chemical_formula_sum   'V8 Cu2 H8 C8 N4 O20'
_cell_volume   580.33278818
_cell_formula_units_Z   2
loop_
 _symmetry_equiv_pos_site_id
 _symmetry_equiv_pos_as_xyz
  1  'x, y, z'
loop_
 _atom_site_type_symbol
 _atom_site_label
 _atom_site_symmetry_multiplicity
 _atom_site_fract_x
 _atom_site_fract_y
 _atom_site_fract_z
 _atom_site_occupancy
 _atom_site_pbe_cm5_charge
 _atom_site_pbe_ddec_charge
 _atom_site_pbe_ddec_spin_density
 _atom_site_pbe_ddec_sum_bond_order
 _atom_site_pbe_magmom
V  V0  1  0.56478145  0.41082158  0.60124485  1  1.431029  2.031646  -0.304071  3.129981  -0.303
V  V1  1  0.43513042  0.58939251  0.10112282  1  1.430703  2.031466  0.304332  3.129581  0.303
V  V2  1  0.14489281  0.57370312  0.89518151  1  1.434144  2.028101  -0.275548  3.150931  -0.275
V  V3  1  0.85479765  0.42604055  0.39537590  1  1.434587  2.027709  0.277489  3.150291  0.277
V  V4  1  0.43522767  0.58917303  0.39875560  1  1.430938  2.031495  0.304072  3.130131  0.303
V  V5  1  0.56485965  0.41061427  0.89888021  1  1.430689  2.031338  -0.304419  3.129644  -0.304
V  V6  1  0.85510514  0.42629281  0.10482751  1  1.434246  2.028226  0.275497  3.150759  0.275
V  V7  1  0.14519174  0.57394722  0.60461600  1  1.434582  2.027742  -0.277217  3.150429  -0.277
Cu  Cu8  1  0.29775327  0.98491659  0.74996774  1  0.655982  0.757493  0.036921  2.222683  0.02
Cu  Cu9  1  0.70223864  0.01506440  0.25003614  1  0.656066  0.757529  -0.037023  2.223117  -0.02
H  H10  1  0.62752761  0.01397027  0.57157439  1  0.129519  0.119465  -3.9e-05  0.997439  0.0
H  H11  1  0.37250720  0.98632821  0.07156884  1  0.129393  0.11953  3.9e-05  0.997001  0.0
H  H12  1  0.62751103  0.01367864  0.92842391  1  0.129374  0.119461  -3.9e-05  0.997159  0.0
H  H13  1  0.37248618  0.98603656  0.42843292  1  0.129538  0.119542  4e-05  0.997294  0.0
H  H14  1  0.00548397  0.02265426  0.57371976  1  0.124769  0.10269  0.000176  1.031164  0.0
H  H15  1  0.99459449  0.97785421  0.07377531  1  0.124922  0.102677  -0.000177  1.031392  0.0
H  H16  1  0.00538965  0.02215255  0.92621830  1  0.124946  0.102622  0.000176  1.031595  0.0
H  H17  1  0.99451534  0.97734439  0.42629183  1  0.124772  0.102713  -0.000176  1.031081  0.0
C  C18  1  0.70984031  0.01394791  0.65150566  1  0.067343  0.078855  -0.000106  3.861387  0.0
C  C19  1  0.29018276  0.98619939  0.15153526  1  0.067672  0.079019  0.000101  3.860275  0.0
C  C20  1  0.70983297  0.01379659  0.84846691  1  0.067614  0.079033  -0.000101  3.86048  0.0
C  C21  1  0.29016653  0.98604805  0.34849651  1  0.067296  0.0788  0.000107  3.861195  0.0
C  C22  1  0.91686225  0.01737534  0.65198410  1  0.063441  0.061236  -0.000103  3.874147  0.0
C  C23  1  0.08316179  0.98287092  0.15204930  1  0.063437  0.061458  0.000109  3.873736  0.0
C  C24  1  0.91683056  0.01713450  0.84795630  1  0.063369  0.061455  -0.000109  3.87415  0.0
C  C25  1  0.08314470  0.98263554  0.34801378  1  0.063438  0.061215  0.000103  3.874011  0.0
N  N26  1  0.02111428  0.01823090  0.74996022  1  -0.332282  -0.181168  0.001633  3.589692  0.001
N  N27  1  0.97886199  0.98176906  0.25004024  1  -0.332337  -0.181261  -0.001638  3.589738  -0.001
N  N28  1  0.60528856  0.01180710  0.74999326  1  -0.330347  -0.206999  0.001806  3.589892  0.002
N  N29  1  0.39474188  0.98819163  0.25000548  1  -0.330459  -0.207084  -0.001811  3.589985  -0.002
O  O30  1  0.40312492  0.19606419  0.60112532  1  -0.57371  -0.763237  0.023999  1.744105  0.026
O  O31  1  0.59659603  0.80417660  0.10096832  1  -0.573539  -0.762637  -0.024008  1.743531  -0.026
O  O32  1  0.19489309  0.78792985  0.88174055  1  -0.587522  -0.777841  0.01939  1.81025  0.021
O  O33  1  0.80440413  0.21178195  0.38201980  1  -0.58764  -0.77717  -0.019497  1.810244  -0.021
O  O34  1  0.59688647  0.80394671  0.39887514  1  -0.573644  -0.763182  -0.024002  1.744075  -0.026
O  O35  1  0.40341046  0.19582750  0.89904241  1  -0.573551  -0.76263  0.024008  1.743498  0.026
O  O36  1  0.80510325  0.21206879  0.11825220  1  -0.587501  -0.777864  -0.019384  1.810111  -0.021
O  O37  1  0.19560624  0.78821809  0.61798237  1  -0.587646  -0.777227  0.01948  1.810161  0.021
O  O38  1  0.59871014  0.45451181  0.42713496  1  -0.714386  -1.083091  0.005909  2.046968  -0.003
O  O39  1  0.40049707  0.54474293  0.92731561  1  -0.714619  -1.083527  -0.005908  2.046854  0.003
O  O40  1  0.14848688  0.56522731  0.07443456  1  -0.708782  -1.08149  0.002276  2.053456  -0.008
O  O41  1  0.85152051  0.43557537  0.57432870  1  -0.709552  -1.081774  -0.002326  2.054795  0.008
O  O42  1  0.40126135  0.54546099  0.57285608  1  -0.714417  -1.083105  -0.005907  2.047129  0.003
O  O43  1  0.59951113  0.45527339  0.07268228  1  -0.714608  -1.083469  0.005901  2.046691  -0.003
O  O44  1  0.85149920  0.43476860  0.92556504  1  -0.708778  -1.08141  -0.002271  2.053338  0.008
O  O45  1  0.14849122  0.56444503  0.42566833  1  -0.709544  -1.081718  0.002326  2.054613  -0.008
O  O46  1  0.61209452  0.47387128  0.75007884  1  -0.662095  -0.914478  0.025541  1.820101  0.043
O  O47  1  0.38790456  0.52613280  0.24991647  1  -0.662089  -0.914489  -0.025531  1.820243  -0.043
O  O48  1  0.13003173  0.49874383  0.74992075  1  -0.662308  -0.887798  0.022149  1.84987  0.037
O  O49  1  0.86996404  0.50125074  0.25007457  1  -0.662453  -0.887872  -0.022143  1.849952  -0.037
