# generated using pymatgen
data_LaH10C9O11F12
_symmetry_space_group_name_H-M   'P 1'
_cell_length_a   9.71919347
_cell_length_b   10.48540356
_cell_length_c   10.80623392
_cell_angle_alpha   84.54643830
_cell_angle_beta   87.93971470
_cell_angle_gamma   69.72736581
_symmetry_Int_Tables_number   1
_chemical_formula_structural   LaH10C9O11F12
_chemical_formula_sum   'La2 H20 C18 O22 F24'
_cell_volume   1028.36025266
_cell_formula_units_Z   2
loop_
 _symmetry_equiv_pos_site_id
 _symmetry_equiv_pos_as_xyz
  1  'x, y, z'
loop_
 _atom_site_type_symbol
 _atom_site_label
 _atom_site_symmetry_multiplicity
 _atom_site_fract_x
 _atom_site_fract_y
 _atom_site_fract_z
 _atom_site_occupancy
 _atom_site_hle17_bader_spin_density
 _atom_site_hle17_ddec_charge
 _atom_site_hle17_ddec_spin_density
 _atom_site_hle17_ddec_sum_bond_order
 _atom_site_hle17_magmom
 _atom_site_hse06_10hf_bader_spin_density
 _atom_site_hse06_10hf_ddec_charge
 _atom_site_hse06_10hf_ddec_spin_density
 _atom_site_hse06_10hf_ddec_sum_bond_order
 _atom_site_hse06_10hf_magmom
 _atom_site_hse06_bader_spin_density
 _atom_site_hse06_ddec_charge
 _atom_site_hse06_ddec_spin_density
 _atom_site_hse06_ddec_sum_bond_order
 _atom_site_hse06_magmom
 _atom_site_pbe_bader_spin_density
 _atom_site_pbe_cm5_charge
 _atom_site_pbe_ddec_charge
 _atom_site_pbe_ddec_spin_density
 _atom_site_pbe_ddec_sum_bond_order
 _atom_site_pbe_magmom
La  La0  1  0.38817515  0.27881030  0.47028695  1  0  2.21895  0  1.664522  0  0  2.114324  0  2.143624  0  0  2.207928  0  2.042916  0  0  1.379165  2.043663  0  2.215481  0
La  La1  1  0.61182584  0.72118621  0.52971502  1  0  2.218911  0  1.664602  0  0  2.114343  0  2.14361  0  0  2.207923  0  2.042961  0  0  1.379212  2.04368  0  2.21549  0
H  H2  1  0.42985366  0.18710903  0.74885139  1  0  0.438694  0  0.80275  0  0  0.418917  0  0.857418  0  0  0.427424  0  0.848774  0  0  0.331948  0.412732  0  0.863825  0
H  H3  1  0.57014697  0.81288851  0.25114772  1  0  0.438662  0  0.802788  0  0  0.418891  0  0.857454  0  0  0.427397  0  0.848803  0  0  0.33194  0.412707  0  0.863855  0
H  H4  1  0.26965354  0.18127118  0.74379402  1  0  0.441235  0  0.856142  0  0  0.407132  0  0.923634  0  0  0.419437  0  0.905876  0  0  0.295706  0.398476  0  0.936081  0
H  H5  1  0.73034744  0.81872533  0.25620795  1  0  0.441205  0  0.856179  0  0  0.407131  0  0.923607  0  0  0.419404  0  0.905921  0  0  0.295691  0.398443  0  0.936124  0
H  H6  1  0.61101715  0.15785961  0.26591019  1  0  0.437151  0  0.836537  0  0  0.409574  0  0.898127  0  0  0.419248  0  0.883752  0  0  0.309132  0.402321  0  0.908992  0
H  H7  1  0.38897888  0.84214202  0.73409054  1  0  0.437161  0  0.836554  0  0  0.409508  0  0.898305  0  0  0.419273  0  0.883733  0  0  0.309156  0.40236  0  0.90896  0
H  H8  1  0.56859409  0.02610016  0.30318516  1  0  0.444086  0  0.844525  0  0  0.415441  0  0.902923  0  0  0.426761  0  0.886452  0  0  0.301587  0.406885  0  0.915398  0
H  H9  1  0.43140334  0.97390045  0.69681562  1  0  0.444082  0  0.844533  0  0  0.415421  0  0.902977  0  0  0.426768  0  0.886444  0  0  0.301612  0.406896  0  0.915384  0
H  H10  1  0.06490624  0.37024053  0.61197031  1  0  0.440147  0  0.859578  0  0  0.404717  0  0.929886  0  0  0.417208  0  0.911725  0  0  0.295397  0.395807  0  0.942816  0
H  H11  1  0.93509365  0.62975905  0.38802772  1  0  0.440229  0  0.859457  0  0  0.404706  0  0.929876  0  0  0.417188  0  0.911734  0  0  0.295389  0.395793  0  0.942814  0
H  H12  1  0.05412553  0.34873242  0.47034223  1  0  0.444242  0  0.815567  0  0  0.418769  0  0.88251  0  0  0.427626  0  0.869577  0  0  0.320006  0.41232  0  0.891258  0
H  H13  1  0.94587323  0.65127022  0.52965648  1  0  0.444193  0  0.815648  0  0  0.418737  0  0.882544  0  0  0.427594  0  0.869612  0  0  0.319966  0.412281  0  0.891322  0
H  H14  1  0.35810619  0.58237790  0.40193549  1  0  0.432081  0  0.858135  0  0  0.403641  0  0.922283  0  0  0.414565  0  0.906341  0  0  0.306038  0.39578  0  0.933725  0
H  H15  1  0.64188806  0.41762578  0.59806511  1  0  0.432152  0  0.857953  0  0  0.403685  0  0.922239  0  0  0.414587  0  0.906316  0  0  0.306054  0.395825  0  0.933681  0
H  H16  1  0.20260702  0.58285006  0.36162141  1  0  0.429582  0  0.869174  0  0  0.398908  0  0.932443  0  0  0.409395  0  0.917235  0  0  0.297865  0.391373  0  0.943364  0
H  H17  1  0.79739071  0.41715259  0.63837826  1  0  0.429596  0  0.869045  0  0  0.398798  0  0.932584  0  0  0.409284  0  0.917378  0  0  0.297826  0.391261  0  0.94351  0
H  H18  1  0.16765155  0.44085679  0.24685632  1  0  0.440834  0  0.854355  0  0  0.405017  0  0.926502  0  0  0.416309  0  0.909871  0  0  0.299081  0.39688  0  0.938493  0
H  H19  1  0.83234935  0.55914278  0.75314446  1  0  0.440866  0  0.854283  0  0  0.405034  0  0.926472  0  0  0.416325  0  0.909842  0  0  0.299075  0.396897  0  0.938463  0
H  H20  1  0.24342266  0.29101831  0.20424349  1  0  0.456456  0  0.787532  0  0  0.438542  0  0.838981  0  0  0.447113  0  0.826713  0  0  0.334556  0.432388  0  0.845569  0
H  H21  1  0.75658342  0.70898125  0.79575346  1  0  0.456466  0  0.787575  0  0  0.438591  0  0.838926  0  0  0.447137  0  0.826697  0  0  0.334561  0.432436  0  0.845549  0
C  C22  1  0.39263875  0.53127233  0.67311987  1  0  0.623662  0  3.90835  0  0  0.569572  0  4.212916  0  0  0.603838  0  4.205288  0  0  0.228836  0.545917  0  4.217946  0
C  C23  1  0.60735043  0.46874261  0.32687062  1  0  0.623523  0  3.908833  0  0  0.56948  0  4.21327  0  0  0.603729  0  4.205652  0  0  0.228768  0.545883  0  4.218177  0
C  C24  1  0.25428881  0.55081550  0.75778132  1  0  0.317639  0  3.616002  0  0  0.268266  0  3.924082  0  0  0.282175  0  3.912549  0  0  0.196951  0.258091  0  3.932812  0
C  C25  1  0.74570816  0.44918918  0.24221912  1  0  0.317386  0  3.616421  0  0  0.268027  0  3.924458  0  0  0.281936  0  3.91291  0  0  0.196902  0.25784  0  3.933162  0
C  C26  1  0.25072647  0.63510942  0.87058348  1  0  0.337098  0  3.646399  0  0  0.285897  0  3.951163  0  0  0.301714  0  3.941514  0  0  0.193725  0.274597  0  3.958735  0
C  C27  1  0.74927077  0.36489729  0.12941862  1  0  0.337565  0  3.645679  0  0  0.286174  0  3.950964  0  0  0.30198  0  3.941301  0  0  0.193733  0.274856  0  3.958565  0
C  C28  1  0.13217148  0.63346242  0.97246206  1  0  0.336621  0  3.641808  0  0  0.28685  0  3.945365  0  0  0.302382  0  3.935982  0  0  0.192053  0.275273  0  3.95341  0
C  C29  1  0.86782948  0.36654528  0.02754357  1  0  0.337094  0  3.64082  0  0  0.286899  0  3.94526  0  0  0.302462  0  3.935794  0  0  0.192055  0.275283  0  3.953364  0
C  C30  1  0.11572667  0.72709281  0.08002883  1  0  0.311125  0  3.647808  0  0  0.266742  0  3.953931  0  0  0.28036  0  3.94418  0  0  0.187958  0.256918  0  3.961285  0
C  C31  1  0.88428172  0.27290876  0.91997436  1  0  0.312286  0  3.646449  0  0  0.266679  0  3.954062  0  0  0.280292  0  3.944321  0  0  0.187986  0.256871  0  3.961431  0
C  C32  1  0.99897022  0.71285558  0.18025140  1  0  0.583701  0  3.91168  0  0  0.519585  0  4.230644  0  0  0.550665  0  4.224346  0  0  0.206662  0.498494  0  4.234616  0
C  C33  1  0.00103577  0.28713583  0.81974533  1  0  0.584132  0  3.91082  0  0  0.519578  0  4.230808  0  0  0.550706  0  4.224387  0  0  0.206707  0.498523  0  4.234669  0
C  C34  1  0.28862421  0.97763992  0.42181302  1  0  0.615724  0  3.936507  0  0  0.565091  0  4.239708  0  0  0.599527  0  4.23202  0  0  0.223483  0.541614  0  4.244089  0
C  C35  1  0.71137798  0.02235356  0.57817808  1  0  0.615723  0  3.936352  0  0  0.565374  0  4.238768  0  0  0.599517  0  4.231864  0  0  0.223466  0.541621  0  4.243903  0
C  C36  1  0.13821121  0.00801631  0.35670435  1  0  0.312378  0  3.634005  0  0  0.27133  0  3.932095  0  0  0.285422  0  3.919138  0  0  0.191831  0.260701  0  3.942606  0
C  C37  1  0.86178882  0.99197714  0.64330069  1  0  0.312254  0  3.634254  0  0  0.271014  0  3.932981  0  0  0.285377  0  3.919403  0  0  0.191797  0.260634  0  3.942891  0
C  C38  1  0.01992019  0.96766768  0.43689669  1  0  0.340309  0  3.64116  0  0  0.279473  0  3.958724  0  0  0.295813  0  3.947732  0  0  0.192665  0.2671  0  3.967768  0
C  C39  1  0.98007972  0.03232881  0.56311086  1  0  0.340488  0  3.6412  0  0  0.278503  0  3.959825  0  0  0.295616  0  3.948146  0  0  0.192769  0.266921  0  3.968161  0
O  O40  1  0.45405382  0.41398442  0.63578562  1  0  -0.654398  0  2.040271  0  0  -0.611605  0  2.283575  0  0  -0.641882  0  2.27382  0  0  -0.340461  -0.589875  0  2.29004  0
O  O41  1  0.54593516  0.58602542  0.36420532  1  0  -0.654412  0  2.04086  0  0  -0.611514  0  2.283835  0  0  -0.641782  0  2.274093  0  0  -0.34044  -0.589808  0  2.290265  0
O  O42  1  0.42673889  0.63581758  0.64937393  1  0  -0.634011  0  2.059727  0  0  -0.599338  0  2.314794  0  0  -0.629978  0  2.305864  0  0  -0.349817  -0.577222  0  2.320519  0
O  O43  1  0.57325350  0.36419120  0.35062627  1  0  -0.634052  0  2.059785  0  0  -0.599285  0  2.314639  0  0  -0.62995  0  2.305799  0  0  -0.349769  -0.577212  0  2.320407  0
O  O44  1  0.87400473  0.79976161  0.16826604  1  0  -0.532172  0  1.979689  0  0  -0.497859  0  2.197445  0  0  -0.518896  0  2.186779  0  0  -0.296994  -0.483676  0  2.204926  0
O  O45  1  0.12600308  0.20023588  0.83173844  1  0  -0.532182  0  1.979725  0  0  -0.498022  0  2.197942  0  0  -0.518898  0  2.186932  0  0  -0.297  -0.483667  0  2.205083  0
O  O46  1  0.04562888  0.61360347  0.26435773  1  0  -0.640198  0  2.080612  0  0  -0.577591  0  2.301697  0  0  -0.603773  0  2.290837  0  0  -0.305643  -0.559267  0  2.308885  0
O  O47  1  0.95437904  0.38639097  0.73564424  1  0  -0.639826  0  2.079817  0  0  -0.577634  0  2.301592  0  0  -0.603804  0  2.290689  0  0  -0.305689  -0.559296  0  2.308771  0
O  O48  1  0.31577467  0.07833049  0.45385179  1  0  -0.655151  0  2.09064  0  0  -0.625228  0  2.360672  0  0  -0.657287  0  2.351337  0  0  -0.372394  -0.601981  0  2.365828  0
O  O49  1  0.68421501  0.92166609  0.54614491  1  0  -0.655264  0  2.090622  0  0  -0.62511  0  2.359949  0  0  -0.657353  0  2.351232  0  0  -0.372492  -0.602079  0  2.365764  0
O  O50  1  0.36736038  0.85356650  0.43357935  1  0  -0.630823  0  2.040817  0  0  -0.604209  0  2.300086  0  0  -0.633801  0  2.289892  0  0  -0.364347  -0.582657  0  2.305937  0
O  O51  1  0.63264483  0.14642693  0.56642277  1  0  -0.630757  0  2.040727  0  0  -0.604064  0  2.299645  0  0  -0.633746  0  2.289846  0  0  -0.364279  -0.582603  0  2.305881  0
O  O52  1  0.36732069  0.15761484  0.69820079  1  0  -0.871963  0  1.866129  0  0  -0.818555  0  2.048956  0  0  -0.843655  0  2.020344  0  0  -0.581512  -0.800221  0  2.069174  0
O  O53  1  0.63267743  0.84238679  0.30179711  1  0  -0.871906  0  1.866163  0  0  -0.818469  0  2.048891  0  0  -0.843624  0  2.020434  0  0  -0.581498  -0.800188  0  2.069251  0
O  O54  1  0.53152852  0.12743510  0.29810098  1  0  -0.876028  0  1.820364  0  0  -0.829806  0  1.993701  0  0  -0.853476  0  1.961308  0  0  -0.618891  -0.812447  0  2.017438  0
O  O55  1  0.46846650  0.87256654  0.70189699  1  0  -0.876039  0  1.820432  0  0  -0.829932  0  1.993905  0  0  -0.853501  0  1.961291  0  0  -0.618943  -0.8125  0  2.017379  0
O  O56  1  0.12053644  0.35831240  0.53119427  1  0  -0.887451  0  1.827288  0  0  -0.845473  0  2.035754  0  0  -0.870151  0  2.002285  0  0  -0.637587  -0.827232  0  2.058706  0
O  O57  1  0.87946336  0.64169024  0.46880349  1  0  -0.887463  0  1.827233  0  0  -0.845399  0  2.03582  0  0  -0.870087  0  2.002409  0  0  -0.637537  -0.827175  0  2.058827  0
O  O58  1  0.28174732  0.54168301  0.42316718  1  0  -0.878186  0  1.872829  0  0  -0.837245  0  2.064235  0  0  -0.862364  0  2.032832  0  0  -0.628998  -0.818932  0  2.086355  0
O  O59  1  0.71824871  0.45831862  0.57683448  1  0  -0.877931  0  1.872473  0  0  -0.83717  0  2.064104  0  0  -0.862256  0  2.03278  0  0  -0.628982  -0.818861  0  2.086222  0
O  O60  1  0.23893766  0.34880376  0.27037457  1  0  -0.88693  0  1.848504  0  0  -0.846101  0  2.046072  0  0  -0.869987  0  2.013178  0  0  -0.62621  -0.828338  0  2.066859  0
O  O61  1  0.76105885  0.65119379  0.72962558  1  0  -0.886896  0  1.848493  0  0  -0.84616  0  2.046024  0  0  -0.870013  0  2.013182  0  0  -0.626187  -0.828393  0  2.066839  0
F  F62  1  0.24827684  0.42621282  0.80344637  1  0  -0.195054  0  1.2399  0  0  -0.163813  0  1.418987  0  0  -0.172199  0  1.406032  0  0  -0.095907  -0.157894  0  1.428141  0
F  F63  1  0.75172996  0.57378468  0.19655536  1  0  -0.194993  0  1.240064  0  0  -0.163756  0  1.419127  0  0  -0.172141  0  1.406183  0  0  -0.095895  -0.157837  0  1.428294  0
F  F64  1  0.13195038  0.61537247  0.68572690  1  0  -0.19867  0  1.238258  0  0  -0.152223  0  1.403292  0  0  -0.160223  0  1.38986  0  0  -0.092967  -0.14643  0  1.412804  0
F  F65  1  0.86804415  0.38462203  0.31427448  1  0  -0.198577  0  1.238334  0  0  -0.152144  0  1.40336  0  0  -0.160149  0  1.389955  0  0  -0.092939  -0.146361  0  1.412903  0
F  F66  1  0.38657446  0.58161099  0.92432286  1  0  -0.176398  0  1.199835  0  0  -0.147016  0  1.365489  0  0  -0.154641  0  1.350818  0  0  -0.096702  -0.141479  0  1.375697  0
F  F67  1  0.61342557  0.41839676  0.07567076  1  0  -0.176174  0  1.199486  0  0  -0.147129  0  1.365404  0  0  -0.154753  0  1.350727  0  0  -0.09671  -0.141588  0  1.375613  0
F  F68  1  0.22683698  0.76827249  0.82784613  1  0  -0.177285  0  1.230137  0  0  -0.147494  0  1.404869  0  0  -0.15461  0  1.389013  0  0  -0.084954  -0.142167  0  1.415696  0
F  F69  1  0.77316069  0.23173323  0.17214865  1  0  -0.177269  0  1.230014  0  0  -0.147229  0  1.404491  0  0  -0.1546  0  1.388993  0  0  -0.084908  -0.142151  0  1.415671  0
F  F70  1  0.16563513  0.50205199  0.02518671  1  0  -0.19492  0  1.23941  0  0  -0.163512  0  1.415571  0  0  -0.171474  0  1.401112  0  0  -0.098489  -0.157649  0  1.425731  0
F  F71  1  0.83437123  0.49794961  0.97481098  1  0  -0.194836  0  1.239144  0  0  -0.163576  0  1.415684  0  0  -0.171547  0  1.401209  0  0  -0.098509  -0.157701  0  1.425857  0
F  F72  1  0.99883314  0.67126323  0.91493495  1  0  -0.182154  0  1.214055  0  0  -0.153327  0  1.386761  0  0  -0.161328  0  1.372946  0  0  -0.097225  -0.147528  0  1.396573  0
F  F73  1  0.00116650  0.32874244  0.08507274  1  0  -0.182188  0  1.213871  0  0  -0.153352  0  1.386673  0  0  -0.161357  0  1.372843  0  0  -0.097245  -0.147539  0  1.396495  0
F  F74  1  0.25120696  0.69044099  0.13573466  1  0  -0.20221  0  1.179083  0  0  -0.168554  0  1.342223  0  0  -0.175749  0  1.327977  0  0  -0.113122  -0.163382  0  1.352145  0
F  F75  1  0.74880793  0.30955139  0.86426269  1  0  -0.206681  0  1.183231  0  0  -0.168547  0  1.342312  0  0  -0.175745  0  1.328068  0  0  -0.11315  -0.163378  0  1.35223  0
F  F76  1  0.07746134  0.85897812  0.03087424  1  0  -0.174437  0  1.235997  0  0  -0.145943  0  1.406592  0  0  -0.153403  0  1.391873  0  0  -0.100916  -0.140519  0  1.416761  0
F  F77  1  0.92254977  0.14102446  0.96912787  1  0  -0.173947  0  1.235528  0  0  -0.145951  0  1.406679  0  0  -0.153402  0  1.39196  0  0  -0.10092  -0.140525  0  1.416843  0
F  F78  1  0.07902373  0.14352519  0.31661447  1  0  -0.198562  0  1.267833  0  0  -0.173353  0  1.451736  0  0  -0.180781  0  1.437177  0  0  -0.101659  -0.168151  0  1.462297  0
F  F79  1  0.92097237  0.85647337  0.68339023  1  0  -0.198478  0  1.268044  0  0  -0.173484  0  1.452306  0  0  -0.18071  0  1.43736  0  0  -0.10161  -0.168076  0  1.46249  0
F  F80  1  0.16095445  0.93631396  0.25339109  1  0  -0.186105  0  1.200031  0  0  -0.157402  0  1.366898  0  0  -0.163864  0  1.351303  0  0  -0.107422  -0.152798  0  1.378197  0
F  F81  1  0.83904219  0.06367746  0.74661606  1  0  -0.185729  0  1.199871  0  0  -0.157549  0  1.367281  0  0  -0.163843  0  1.35134  0  0  -0.107437  -0.152774  0  1.378242  0
F  F82  1  0.89402252  0.00567062  0.36778499  1  0  -0.185025  0  1.208451  0  0  -0.142392  0  1.370851  0  0  -0.152094  0  1.359621  0  0  -0.087166  -0.13162  0  1.375141  0
F  F83  1  0.10597874  0.99432792  0.63221865  1  0  -0.185086  0  1.208514  0  0  -0.138048  0  1.366898  0  0  -0.152041  0  1.359768  0  0  -0.087172  -0.131563  0  1.375266  0
F  F84  1  0.06968521  0.82873449  0.45997355  1  0  -0.18342  0  1.240972  0  0  -0.14128  0  1.41148  0  0  -0.14927  0  1.398171  0  0  -0.085294  -0.135823  0  1.421098  0
F  F85  1  0.93032231  0.17126096  0.54003205  1  0  -0.183451  0  1.241009  0  0  -0.141525  0  1.411844  0  0  -0.149221  0  1.398331  0  0  -0.085323  -0.135779  0  1.421252  0
