# generated using pymatgen
data_ZnH7C18I3(NO3)2
_symmetry_space_group_name_H-M   'P 1'
_cell_length_a   9.94711899
_cell_length_b   11.22219358
_cell_length_c   23.68674292
_cell_angle_alpha   91.58353209
_cell_angle_beta   89.10149191
_cell_angle_gamma   90.01970497
_symmetry_Int_Tables_number   1
_chemical_formula_structural   ZnH7C18I3(NO3)2
_chemical_formula_sum   'Zn2 H14 C36 I6 N4 O12'
_cell_volume   2642.78066669
_cell_formula_units_Z   2
loop_
 _symmetry_equiv_pos_site_id
 _symmetry_equiv_pos_as_xyz
  1  'x, y, z'
loop_
 _atom_site_type_symbol
 _atom_site_label
 _atom_site_symmetry_multiplicity
 _atom_site_fract_x
 _atom_site_fract_y
 _atom_site_fract_z
 _atom_site_occupancy
 _atom_site_pbe_bader_charge
 _atom_site_pbe_bader_spin_density
 _atom_site_pbe_cm5_charge
 _atom_site_pbe_ddec_charge
 _atom_site_pbe_ddec_spin_density
 _atom_site_pbe_ddec_sum_bond_order
 _atom_site_pbe_magmom
Zn  Zn0  1  0.63589733  0.49344430  0.49992362  1  1.299956  0  0.656905  0.860182  0  2.388736  0
Zn  Zn1  1  0.35703481  0.51300489  0.50323974  1  1.295018  0  0.671283  0.867563  0  2.405711  0
H  H2  1  0.72001661  0.49414605  0.68039326  1  0.120887  0  0.102217  0.105495  0  1.013382  0
H  H3  1  0.33150868  0.89208770  0.53988826  1  0.106191  0  0.106985  0.117246  0  0.982154  0
H  H4  1  0.49557909  0.79371005  0.05382184  1  0.127575  0  0.120049  0.12654  0  0.973928  0
H  H5  1  0.09844994  0.58950647  0.51393870  1  0.439773  0  0.307532  0.285859  0  0.926141  0
H  H6  1  0.27772910  0.51313048  0.21588705  1  0.084088  0  0.11185  0.120482  0  0.97294  0
H  H7  1  0.49510640  0.78613700  0.94674231  1  0.128606  0  0.120096  0.126324  0  0.973425  0
H  H8  1  0.29005012  0.46427194  0.67846541  1  0.114446  0  0.104676  0.121792  0  1.002348  0
H  H9  1  0.62939887  0.90184973  0.50198598  1  0.102845  0  0.103462  0.127671  0  0.991878  0
H  H10  1  0.13400341  0.33005369  0.50552678  1  0.175435  0  0.136405  0.12208  0  0.970918  0
H  H11  1  0.50010685  0.19415079  0.05546243  1  0.115038  0  0.119833  0.126095  0  0.97297  0
H  H12  1  0.50224324  0.18651828  0.94841480  1  0.116183  0  0.11981  0.125984  0  0.973581  0
H  H13  1  0.27089639  0.52049224  0.32209015  1  0.106579  0  0.105985  0.107378  0  1.005308  0
H  H14  1  0.70158075  0.49981395  0.32380845  1  0.110512  0  0.094917  0.103738  0  1.047835  0
H  H15  1  0.71391716  0.49064795  0.78645162  1  0.102666  0  0.11243  0.122013  0  0.971881  0
C  C16  1  0.52111981  0.73266338  0.51068970  1  1.549245  0  0.209573  0.644669  0  4.155954  0
C  C17  1  0.49603120  0.70482713  0.97087307  1  -0.059876  0  -0.060298  -0.064931  0  3.926343  0
C  C18  1  0.49610140  0.70901627  0.03017113  1  0.02351  0  -0.060607  -0.067318  0  3.926431  0
C  C19  1  0.49646779  0.60438482  0.06020047  1  0.049447  0  -0.002233  -0.055193  0  3.977661  0
C  C20  1  0.49754013  0.49226034  0.03121077  1  -0.003119  0  0.005631  0.032651  0  3.992372  0
C  C21  1  0.49785243  0.38427561  0.06080339  1  0.057373  0  -0.002747  -0.057654  0  3.979618  0
C  C22  1  0.49967651  0.27545776  0.03134912  1  -0.031612  0  -0.059731  -0.064288  0  3.922933  0
C  C23  1  0.50082292  0.27125452  0.97203121  1  -0.000868  0  -0.06035  -0.065468  0  3.924512  0
C  C24  1  0.49548304  0.61093386  0.12280576  1  1.296967  0  0.240034  0.436013  0  4.109908  0
C  C25  1  0.49544223  0.38657696  0.12342485  1  1.249191  0  0.239721  0.436026  0  4.111167  0
C  C26  1  0.37003555  0.51133465  0.24006610  1  -0.052447  0  -0.076187  -0.130865  0  3.955913  0
C  C27  1  0.48478569  0.51120060  0.39212522  1  1.55458  0  0.218584  0.60074  0  4.154744  0
C  C28  1  0.36614774  0.51512478  0.29882740  1  0.011773  0  -0.076023  -0.073119  0  3.955215  0
C  C29  1  0.48614671  0.51063377  0.32877210  1  0.081883  0  -0.008864  -0.009858  0  3.936653  0
C  C30  1  0.60960311  0.50381959  0.29965256  1  -0.050732  0  -0.086276  -0.111707  0  3.946292  0
C  C31  1  0.61306211  0.50196325  0.24085359  1  -0.115126  0  -0.039711  0.006048  0  3.868839  0
C  C32  1  0.49289522  0.50483946  0.21086552  1  0.292114  0  0.088019  0.167151  0  4.010252  0
C  C33  1  0.62172461  0.48442000  0.76226718  1  -0.044318  0  -0.077586  -0.131976  0  3.956864  0
C  C34  1  0.62517542  0.48625219  0.70359635  1  -0.067619  0  -0.079501  -0.076025  0  3.960041  0
C  C35  1  0.50508090  0.47954044  0.67364238  1  0.094698  0  -0.012102  -0.014538  0  3.946678  0
C  C36  1  0.38203903  0.46961076  0.70268507  1  -0.065076  0  -0.086145  -0.114388  0  3.944331  0
C  C37  1  0.37905938  0.46838643  0.76148374  1  -0.127496  0  -0.039923  0.004703  0  3.873016  0
C  C38  1  0.47492290  0.27077616  0.49149802  1  1.650274  0  0.196749  0.610197  0  4.24182  0
C  C39  1  0.49923112  0.47638411  0.79142942  1  0.375763  0  0.088945  0.16974  0  4.009086  0
C  C40  1  0.42980007  0.06372990  0.52698735  1  -0.11815  0  -0.055891  0.029884  0  3.947878  0
C  C41  1  0.46742647  0.13702428  0.48586485  1  -0.244824  0  -0.06245  -0.120803  0  3.84792  0
C  C42  1  0.42561149  0.93431621  0.52674077  1  -0.001233  0  -0.086965  -0.054261  0  4.02787  0
C  C43  1  0.53148718  0.86444328  0.51278496  1  -0.042038  0  -0.095711  -0.218009  0  3.888162  0
C  C44  1  0.93331987  0.41637575  0.51339916  1  0.5374  0  0.116991  0.171303  0  3.91039  0
C  C45  1  0.08218540  0.41631457  0.50884530  1  0.730033  0  0.101292  0.15155  0  3.899863  0
C  C46  1  0.50593024  0.48525509  0.61045728  1  1.56358  0  0.213578  0.592727  0  4.170771  0
C  C47  1  0.50120546  0.36933855  0.87935550  1  1.253477  0  0.239543  0.436268  0  4.112559  0
C  C48  1  0.49626227  0.59373272  0.87888003  1  1.37844  0  0.241444  0.438946  0  4.104337  0
C  C49  1  0.49694680  0.59597789  0.94143903  1  -0.099545  0  -0.002905  -0.058883  0  3.98284  0
C  C50  1  0.49815608  0.48796412  0.97098665  1  0.01955  0  0.005703  0.034254  0  3.99034  0
C  C51  1  0.49988527  0.37584098  0.94197058  1  0.051249  0  -0.00316  -0.058089  0  3.97828  0
I  I52  1  0.19298057  0.45668360  0.80431393  1  0.099617  0  0.050742  -0.04555  0  1.309572  0
I  I53  1  0.36620397  0.14152766  0.60633758  1  0.099867  0  0.067292  -0.017138  0  1.349081  0
I  I54  1  0.52167455  0.07679327  0.40339920  1  0.139483  0  0.08138  0.02092  0  1.309585  0
I  I55  1  0.87354838  0.29878838  0.57689512  1  0.287643  0  0.215371  0.13051  0  1.390239  0
I  I56  1  0.91143083  0.58879392  0.42201078  1  0.365477  0  0.266714  0.184233  0  1.363551  0
I  I57  1  0.79996106  0.49442154  0.19813694  1  0.097549  0  0.049124  -0.047022  0  1.313102  0
N  N58  1  0.49918030  0.47963218  0.85215584  1  -1.204373  0  -0.239365  -0.237259  0  3.631419  0
N  N59  1  0.49353940  0.50070283  0.15010842  1  -1.153691  0  -0.23881  -0.236688  0  3.632368  0
N  N60  1  0.84688071  0.47688753  0.48701808  1  -1.108594  0  -0.325804  -0.249107  0  3.186598  0
N  N61  1  0.15252053  0.51158658  0.51090735  1  -1.192573  0  -0.441795  -0.375405  0  3.272285  0
O  O62  1  0.63002273  0.67590874  0.49923743  1  -1.160798  0  -0.326648  -0.559963  0  2.302968  0
O  O63  1  0.49361204  0.68408709  0.85088025  1  -1.095588  0  -0.27222  -0.424236  0  2.06159  0
O  O64  1  0.49574985  0.70525160  0.15030425  1  -1.09353  0  -0.273298  -0.42535  0  2.062473  0
O  O65  1  0.49455910  0.29621804  0.15144579  1  -1.080508  0  -0.27229  -0.423754  0  2.066634  0
O  O66  1  0.40596537  0.68593749  0.51967103  1  -1.174489  0  -0.325561  -0.552758  0  2.284966  0
O  O67  1  0.59523414  0.48578613  0.41552627  1  -1.170565  0  -0.320064  -0.556919  0  2.383952  0
O  O68  1  0.37431441  0.53594910  0.41762438  1  -1.158134  0  -0.318416  -0.546438  0  2.296842  0
O  O69  1  0.59104453  0.31281994  0.50074207  1  -1.15495  0  -0.316137  -0.546144  0  2.367507  0
O  O70  1  0.36663901  0.32826160  0.48569732  1  -1.167076  0  -0.309651  -0.536279  0  2.310368  0
O  O71  1  0.61959641  0.50059911  0.58600430  1  -1.162277  0  -0.322258  -0.554585  0  2.355575  0
O  O72  1  0.39335544  0.47488854  0.58615767  1  -1.167817  0  -0.318528  -0.55563  0  2.360639  0
O  O73  1  0.50419419  0.27517633  0.85174473  1  -1.08694  0  -0.274658  -0.427375  0  2.066459  0
