# generated using pymatgen
data_Zn3H40C42(NO3)4
_symmetry_space_group_name_H-M   'P 1'
_cell_length_a   8.91303806
_cell_length_b   9.04605767
_cell_length_c   13.26194385
_cell_angle_alpha   100.18839781
_cell_angle_beta   98.64922137
_cell_angle_gamma   105.16862706
_symmetry_Int_Tables_number   1
_chemical_formula_structural   Zn3H40C42(NO3)4
_chemical_formula_sum   'Zn3 H40 C42 N4 O12'
_cell_volume   993.74734130
_cell_formula_units_Z   1
loop_
 _symmetry_equiv_pos_site_id
 _symmetry_equiv_pos_as_xyz
  1  'x, y, z'
loop_
 _atom_site_type_symbol
 _atom_site_label
 _atom_site_symmetry_multiplicity
 _atom_site_fract_x
 _atom_site_fract_y
 _atom_site_fract_z
 _atom_site_occupancy
 _atom_site_hle17_bader_spin_density
 _atom_site_hle17_ddec_charge
 _atom_site_hle17_ddec_spin_density
 _atom_site_hle17_ddec_sum_bond_order
 _atom_site_hle17_magmom
 _atom_site_hse06_10hf_bader_spin_density
 _atom_site_hse06_10hf_ddec_charge
 _atom_site_hse06_10hf_ddec_spin_density
 _atom_site_hse06_10hf_ddec_sum_bond_order
 _atom_site_hse06_10hf_magmom
 _atom_site_hse06_bader_spin_density
 _atom_site_hse06_ddec_charge
 _atom_site_hse06_ddec_spin_density
 _atom_site_hse06_ddec_sum_bond_order
 _atom_site_hse06_magmom
 _atom_site_pbe_bader_spin_density
 _atom_site_pbe_cm5_charge
 _atom_site_pbe_ddec_charge
 _atom_site_pbe_ddec_spin_density
 _atom_site_pbe_ddec_sum_bond_order
 _atom_site_pbe_magmom
Zn  Zn0  1  0.00000166  0.99999841  0.00000071  1  0  1.230444  0  1.649622  0  0  1.062605  0  2.103083  0  0  1.11587  0  2.037321  0  0  0.686989  1.025037  0  2.148307  0
Zn  Zn1  1  0.15342514  0.99924033  0.24983356  1  0  1.010869  0  1.903559  0  0  0.82893  0  2.365925  0  0  0.877909  0  2.310389  0  0  0.678758  0.794168  0  2.405026  0
Zn  Zn2  1  0.84657421  0.00075982  0.75016662  1  0  1.010919  0  1.903568  0  0  0.828976  0  2.365941  0  0  0.877947  0  2.31041  0  0  0.678781  0.794209  0  2.405044  0
H  H3  1  0.81335420  0.61710058  0.29415139  1  0  0.066119  0  0.935741  0  0  0.08555  0  0.993548  0  0  0.087525  0  0.992448  0  0  0.087031  0.083822  0  0.99461  0
H  H4  1  0.18664672  0.38289723  0.70584866  1  0  0.066149  0  0.935716  0  0  0.085573  0  0.993509  0  0  0.087562  0  0.992395  0  0  0.087041  0.083845  0  0.994572  0
H  H5  1  0.64066018  0.46063817  0.23121920  1  0  0.058163  0  0.960057  0  0  0.073698  0  1.029415  0  0  0.074666  0  1.029622  0  0  0.084209  0.073725  0  1.027485  0
H  H6  1  0.35933893  0.53935726  0.76878263  1  0  0.058146  0  0.960148  0  0  0.073678  0  1.029485  0  0  0.074646  0  1.029695  0  0  0.084199  0.073706  0  1.027555  0
H  H7  1  0.96165955  0.51779630  0.16275050  1  0  0.058992  0  0.961894  0  0  0.079681  0  1.020086  0  0  0.079351  0  1.022867  0  0  0.0848  0.079664  0  1.017923  0
H  H8  1  0.03833919  0.48219799  0.83724814  1  0  0.059012  0  0.961855  0  0  0.079714  0  1.020024  0  0  0.079386  0  1.0228  0  0  0.084822  0.079696  0  1.017861  0
H  H9  1  0.79148380  0.36097007  0.10134281  1  0  0.060718  0  0.955681  0  0  0.079799  0  1.017946  0  0  0.080572  0  1.017877  0  0  0.087546  0.07898  0  1.018348  0
H  H10  1  0.20851565  0.63902655  0.89865770  1  0  0.060729  0  0.955663  0  0  0.079785  0  1.017963  0  0  0.080555  0  1.017898  0  0  0.087549  0.078965  0  1.018366  0
H  H11  1  0.52008075  0.10380204  0.92006690  1  0  0.052673  0  0.948034  0  0  0.071645  0  1.01076  0  0  0.07227  0  1.011559  0  0  0.081995  0.071148  0  1.010286  0
H  H12  1  0.47992531  0.89620170  0.07993137  1  0  0.052748  0  0.948108  0  0  0.071688  0  1.010822  0  0  0.072354  0  1.011573  0  0  0.082029  0.071192  0  1.010346  0
H  H13  1  0.33599862  0.98373910  0.93456065  1  0  0.081095  0  0.951838  0  0  0.097858  0  1.012826  0  0  0.099421  0  1.013166  0  0  0.090085  0.09663  0  1.012725  0
H  H14  1  0.66400456  0.01625875  0.06543584  1  0  0.081154  0  0.951914  0  0  0.097896  0  1.012883  0  0  0.099461  0  1.013224  0  0  0.090098  0.096667  0  1.012781  0
H  H15  1  0.65320987  0.56257153  0.06319489  1  0  0.084128  0  0.955748  0  0  0.100726  0  1.018055  0  0  0.102262  0  1.017697  0  0  0.092186  0.099321  0  1.019052  0
H  H16  1  0.34679071  0.43742510  0.93680498  1  0  0.084159  0  0.955686  0  0  0.100769  0  1.017983  0  0  0.102307  0  1.017629  0  0  0.092215  0.099363  0  1.018981  0
H  H17  1  0.61642598  0.69082977  0.16687809  1  0  0.091543  0  0.93941  0  0  0.107716  0  1.000444  0  0  0.109101  0  1.001415  0  0  0.094883  0.106459  0  1.000101  0
H  H18  1  0.38357425  0.30916569  0.83312159  1  0  0.091538  0  0.9394  0  0  0.107728  0  1.00044  0  0  0.109125  0  1.001401  0  0  0.09488  0.10647  0  1.000098  0
H  H19  1  0.56760021  0.25852649  0.10386363  1  0  0.093491  0  0.980504  0  0  0.110436  0  1.039548  0  0  0.111681  0  1.040334  0  0  0.095092  0.109544  0  1.039185  0
H  H20  1  0.43239982  0.74147604  0.89613390  1  0  0.093479  0  0.980492  0  0  0.110479  0  1.039505  0  0  0.111726  0  1.040291  0  0  0.095102  0.109587  0  1.039143  0
H  H21  1  0.38618416  0.26128417  0.02738975  1  0  0.103774  0  0.970991  0  0  0.118112  0  1.034919  0  0  0.120115  0  1.034612  0  0  0.099388  0.116707  0  1.03523  0
H  H22  1  0.61381028  0.73871481  0.97260679  1  0  0.103758  0  0.970995  0  0  0.118095  0  1.034949  0  0  0.120093  0  1.034654  0  0  0.099375  0.116692  0  1.035258  0
H  H23  1  0.97469336  0.41747247  0.32700001  1  0  0.091254  0  0.93355  0  0  0.106857  0  0.991347  0  0  0.109399  0  0.990469  0  0  0.091977  0.105237  0  0.991549  0
H  H24  1  0.02530904  0.58252654  0.67299806  1  0  0.091217  0  0.933568  0  0  0.106832  0  0.991345  0  0  0.109371  0  0.990471  0  0  0.09197  0.105211  0  0.991547  0
H  H25  1  0.79018805  0.27390041  0.27293054  1  0  0.092644  0  0.940907  0  0  0.109667  0  1.002877  0  0  0.11137  0  1.002448  0  0  0.097327  0.108636  0  1.002991  0
H  H26  1  0.20981062  0.72609737  0.72707155  1  0  0.09265  0  0.940813  0  0  0.109664  0  1.0028  0  0  0.111368  0  1.002368  0  0  0.097312  0.108633  0  1.002914  0
H  H27  1  0.19249546  0.71948362  0.07072531  1  0  0.095295  0  0.928595  0  0  0.10227  0  0.994008  0  0  0.105255  0  0.991196  0  0  0.12405  0.100085  0  0.995948  0
H  H28  1  0.80749698  0.28052002  0.92927540  1  0  0.095293  0  0.928635  0  0  0.102248  0  0.994083  0  0  0.105212  0  0.991297  0  0  0.124046  0.100063  0  0.996024  0
H  H29  1  0.25024011  0.46022012  0.07264888  1  0  0.1151  0  0.973662  0  0  0.123373  0  1.034527  0  0  0.126938  0  1.033525  0  0  0.108711  0.1205  0  1.035996  0
H  H30  1  0.74975460  0.53978354  0.92735054  1  0  0.115049  0  0.973741  0  0  0.123344  0  1.034574  0  0  0.126913  0  1.033569  0  0  0.108695  0.120472  0  1.036043  0
H  H31  1  0.18476109  0.19471593  0.47534530  1  0  0.089273  0  0.918596  0  0  0.10004  0  0.976148  0  0  0.103291  0  0.973008  0  0  0.123583  0.096991  0  0.979557  0
H  H32  1  0.81524011  0.80528654  0.52465988  1  0  0.089275  0  0.918592  0  0  0.10006  0  0.976128  0  0  0.103311  0  0.972988  0  0  0.12358  0.097009  0  0.979537  0
H  H33  1  0.26503406  0.16292781  0.65906147  1  0  0.114462  0  0.973743  0  0  0.123404  0  1.0342  0  0  0.126772  0  1.033049  0  0  0.10947  0.120778  0  1.03561  0
H  H34  1  0.73496951  0.83707116  0.34094200  1  0  0.114493  0  0.973773  0  0  0.123453  0  1.034199  0  0  0.126822  0  1.033048  0  0  0.109488  0.120827  0  1.035608  0
H  H35  1  0.36923619  0.93629356  0.68460473  1  0  0.113238  0  0.935916  0  0  0.124908  0  0.99377  0  0  0.127804  0  0.991723  0  0  0.114272  0.122745  0  0.995253  0
H  H36  1  0.63076701  0.06370426  0.31539629  1  0  0.113199  0  0.935891  0  0  0.124867  0  0.993757  0  0  0.127764  0  0.99171  0  0  0.114244  0.122705  0  0.995238  0
H  H37  1  0.34161108  0.40226103  0.24561051  1  0  0.111096  0  0.956295  0  0  0.122136  0  1.015531  0  0  0.124745  0  1.014296  0  0  0.11194  0.120662  0  1.015474  0
H  H38  1  0.65838737  0.59774385  0.75438716  1  0  0.111083  0  0.956281  0  0  0.122161  0  1.015462  0  0  0.12477  0  1.014228  0  0  0.111957  0.120688  0  1.015406  0
H  H39  1  0.41310516  0.68329493  0.60322131  1  0  0.115358  0  0.95669  0  0  0.125066  0  1.019563  0  0  0.128424  0  1.017526  0  0  0.108171  0.122626  0  1.021105  0
H  H40  1  0.58689532  0.31670524  0.39677673  1  0  0.115378  0  0.956712  0  0  0.125087  0  1.019583  0  0  0.128445  0  1.017544  0  0  0.108176  0.122647  0  1.021125  0
H  H41  1  0.39492218  0.48307547  0.44134291  1  0  0.10089  0  0.955756  0  0  0.114305  0  1.013535  0  0  0.116646  0  1.013389  0  0  0.107298  0.111826  0  1.015446  0
H  H42  1  0.60507933  0.51692824  0.55865492  1  0  0.100945  0  0.955654  0  0  0.114348  0  1.013443  0  0  0.116697  0  1.013301  0  0  0.107305  0.111883  0  1.015337  0
C  C43  1  0.84983522  0.77144505  0.13807094  1  0  0.707177  0  3.821407  0  0  0.660929  0  4.119326  0  0  0.694724  0  4.112667  0  0  0.211274  0.637903  0  4.12336  0
C  C44  1  0.15016502  0.22855040  0.86192950  1  0  0.707239  0  3.821368  0  0  0.660964  0  4.119333  0  0  0.694762  0  4.11268  0  0  0.211305  0.637936  0  4.123373  0
C  C45  1  0.74996475  0.53837603  0.21786464  1  0  -0.092075  0  3.69923  0  0  -0.133778  0  3.963784  0  0  -0.134232  0  3.977018  0  0  -0.169492  -0.133238  0  3.953508  0
C  C46  1  0.25003549  0.46161942  0.78213580  1  0  -0.092164  0  3.699201  0  0  -0.133812  0  3.963681  0  0  -0.134275  0  3.976927  0  0  -0.169511  -0.133271  0  3.953405  0
C  C47  1  0.35806407  0.12661914  0.14109139  1  0  0.71103  0  3.799135  0  0  0.666049  0  4.091802  0  0  0.699585  0  4.08461  0  0  0.209242  0.643391  0  4.095875  0
C  C48  1  0.64193983  0.87338103  0.85891000  1  0  0.711068  0  3.799187  0  0  0.666069  0  4.09195  0  0  0.699608  0  4.084755  0  0  0.209224  0.643411  0  4.096018  0
C  C49  1  0.85369924  0.44034763  0.17754135  1  0  -0.084401  0  3.691213  0  0  -0.124186  0  3.950199  0  0  -0.12454  0  3.964935  0  0  -0.171335  -0.124453  0  3.94015  0
C  C50  1  0.14629941  0.55965017  0.82245772  1  0  -0.084392  0  3.690996  0  0  -0.124183  0  3.949974  0  0  -0.124537  0  3.964707  0  0  -0.171337  -0.124448  0  3.939926  0
C  C51  1  0.98064248  0.22300458  0.21061246  1  0  0.716745  0  3.818037  0  0  0.670477  0  4.115138  0  0  0.704713  0  4.108365  0  0  0.213676  0.647292  0  4.11873  0
C  C52  1  0.01935730  0.77699325  0.78938521  1  0  0.71668  0  3.818182  0  0  0.670415  0  4.115269  0  0  0.704649  0  4.108499  0  0  0.213646  0.64723  0  4.118861  0
C  C53  1  0.28187464  0.75800764  0.32518386  1  0  0.130086  0  3.764549  0  0  0.124178  0  4.000584  0  0  0.127832  0  4.023252  0  0  0.119927  0.121738  0  3.985123  0
C  C54  1  0.71812575  0.24199604  0.67481687  1  0  0.130062  0  3.764559  0  0  0.124181  0  4.000496  0  0  0.127835  0  4.023165  0  0  0.119938  0.121735  0  3.985032  0
C  C55  1  0.28238707  0.86857449  0.41817326  1  0  0.128396  0  3.750957  0  0  0.121097  0  3.985513  0  0  0.125245  0  4.008186  0  0  0.119698  0.118624  0  3.96971  0
C  C56  1  0.71761490  0.13142685  0.58182733  1  0  0.128463  0  3.750929  0  0  0.121127  0  3.985486  0  0  0.125277  0  4.00816  0  0  0.1197  0.118669  0  3.969663  0
C  C57  1  0.45689878  0.05302500  0.97703555  1  0  -0.083005  0  3.670622  0  0  -0.121662  0  3.928611  0  0  -0.122506  0  3.94236  0  0  -0.168901  -0.1209  0  3.919172  0
C  C58  1  0.54310536  0.94697988  0.02296494  1  0  -0.083257  0  3.670818  0  0  -0.121773  0  3.92874  0  0  -0.122634  0  3.942482  0  0  -0.168951  -0.121009  0  3.919302  0
C  C59  1  0.70664633  0.63738708  0.14195354  1  0  -0.26549  0  3.682741  0  0  -0.305769  0  3.938005  0  0  -0.311664  0  3.947382  0  0  -0.16842  -0.301655  0  3.931887  0
C  C60  1  0.29335425  0.36260955  0.85804633  1  0  -0.26548  0  3.682638  0  0  -0.305806  0  3.937941  0  0  -0.311722  0  3.947342  0  0  -0.168429  -0.301692  0  3.931824  0
C  C61  1  0.33089099  0.84054935  0.51813957  1  0  0.027882  0  3.780032  0  0  0.04478  0  4.011524  0  0  0.041792  0  4.036849  0  0  0.001849  0.046273  0  3.994476  0
C  C62  1  0.66911246  0.15945317  0.48186055  1  0  0.027887  0  3.78008  0  0  0.044818  0  4.011517  0  0  0.041832  0  4.03684  0  0  0.001847  0.046307  0  3.994466  0
C  C63  1  0.44829179  0.18655084  0.06206818  1  0  -0.273449  0  3.69092  0  0  -0.313724  0  3.937595  0  0  -0.320039  0  3.947052  0  0  -0.17361  -0.309392  0  3.931036  0
C  C64  1  0.55170903  0.81345051  0.93793003  1  0  -0.273468  0  3.69091  0  0  -0.313875  0  3.937755  0  0  -0.320203  0  3.947235  0  0  -0.173679  -0.309542  0  3.931196  0
C  C65  1  0.89908277  0.34243140  0.25281593  1  0  -0.259135  0  3.685641  0  0  -0.298408  0  3.939105  0  0  -0.304518  0  3.948066  0  0  -0.169208  -0.293795  0  3.932012  0
C  C66  1  0.10091623  0.65756757  0.74718482  1  0  -0.259129  0  3.685655  0  0  -0.298396  0  3.939089  0  0  -0.304506  0  3.94805  0  0  -0.169203  -0.293784  0  3.931998  0
C  C67  1  0.32303683  0.61920088  0.33462748  1  0  0.026693  0  3.797372  0  0  0.042031  0  4.030477  0  0  0.039502  0  4.055388  0  0  -0.00065  0.043719  0  4.013443  0
C  C68  1  0.67696286  0.38080046  0.66537138  1  0  0.026674  0  3.797386  0  0  0.041979  0  4.030501  0  0  0.039451  0  4.055416  0  0  -0.000692  0.043672  0  4.013466  0
C  C69  1  0.23139050  0.68816771  0.14405321  1  0  0.14274  0  3.680021  0  0  0.108453  0  3.942872  0  0  0.116658  0  3.958028  0  0  0.060539  0.102961  0  3.932407  0
C  C70  1  0.76860081  0.31183593  0.85594738  1  0  0.142906  0  3.679965  0  0  0.108547  0  3.942856  0  0  0.116767  0  3.958017  0  0  0.060625  0.103056  0  3.932388  0
C  C71  1  0.26698697  0.54568992  0.14562318  1  0  -0.115578  0  3.703128  0  0  -0.127724  0  3.957819  0  0  -0.135012  0  3.978301  0  0  -0.077875  -0.123348  0  3.943813  0
C  C72  1  0.73300888  0.45431374  0.85437635  1  0  -0.115576  0  3.70318  0  0  -0.127725  0  3.957882  0  0  -0.135015  0  3.978359  0  0  -0.077889  -0.123349  0  3.943877  0
C  C73  1  0.22891048  0.09732819  0.49051556  1  0  0.152017  0  3.677675  0  0  0.118155  0  3.932428  0  0  0.12666  0  3.948482  0  0  0.063351  0.112779  0  3.921277  0
C  C74  1  0.77109028  0.90267663  0.50948837  1  0  0.152129  0  3.677683  0  0  0.118242  0  3.932438  0  0  0.126749  0  3.948492  0  0  0.06337  0.112867  0  3.921287  0
C  C75  1  0.27596606  0.07972966  0.59259987  1  0  -0.113641  0  3.717521  0  0  -0.128716  0  3.975563  0  0  -0.135417  0  3.996079  0  0  -0.080767  -0.124653  0  3.961811  0
C  C76  1  0.72403592  0.92027166  0.40740298  1  0  -0.113838  0  3.717628  0  0  -0.128936  0  3.975683  0  0  -0.135638  0  3.996199  0  0  -0.080818  -0.124873  0  3.961931  0
C  C77  1  0.32897965  0.95259164  0.60661324  1  0  -0.023857  0  3.639268  0  0  -0.051349  0  3.889998  0  0  -0.048266  0  3.907077  0  0  -0.053448  -0.05298  0  3.878416  0
C  C78  1  0.67102426  0.04740852  0.39338890  1  0  -0.023727  0  3.639156  0  0  -0.051214  0  3.889867  0  0  -0.048132  0  3.906946  0  0  -0.053407  -0.052846  0  3.878285  0
C  C79  1  0.31441225  0.51190292  0.24102440  1  0  -0.028504  0  3.642007  0  0  -0.052763  0  3.887413  0  0  -0.05019  0  3.905581  0  0  -0.056496  -0.053656  0  3.873013  0
C  C80  1  0.68558585  0.48810077  0.75897385  1  0  -0.028526  0  3.641828  0  0  -0.052804  0  3.887209  0  0  -0.050231  0  3.905379  0  0  -0.056521  -0.0537  0  3.87281  0
C  C81  1  0.37461184  0.70026275  0.52513720  1  0  -0.098009  0  3.7264  0  0  -0.121615  0  3.980473  0  0  -0.124336  0  4.003217  0  0  -0.081305  -0.119925  0  3.965553  0
C  C82  1  0.62538864  0.29973742  0.47486159  1  0  -0.098138  0  3.726479  0  0  -0.121765  0  3.980553  0  0  -0.124488  0  4.0033  0  0  -0.081352  -0.120076  0  3.965638  0
C  C83  1  0.36781545  0.59272962  0.43662554  1  0  -0.107797  0  3.752493  0  0  -0.130449  0  4.005005  0  0  -0.133935  0  4.028146  0  0  -0.085037  -0.127786  0  3.990551  0
C  C84  1  0.63218424  0.40727172  0.56337332  1  0  -0.107725  0  3.752453  0  0  -0.130355  0  4.004958  0  0  -0.133858  0  4.028119  0  0  -0.084964  -0.127706  0  3.990499  0
N  N85  1  0.23357673  0.99556684  0.40603119  1  0  -0.333178  0  3.281628  0  0  -0.260711  0  3.551626  0  0  -0.278625  0  3.566309  0  0  -0.315384  -0.247911  0  3.540976  0
N  N86  1  0.76642595  0.00443683  0.59397203  1  0  -0.333226  0  3.281627  0  0  -0.260755  0  3.551637  0  0  -0.278669  0  3.566323  0  0  -0.315366  -0.24796  0  3.540982  0
N  N87  1  0.23852789  0.79069510  0.23140750  1  0  -0.342707  0  3.269476  0  0  -0.278695  0  3.53927  0  0  -0.295525  0  3.555735  0  0  -0.316371  -0.266753  0  3.527737  0
N  N88  1  0.76146797  0.20930855  0.76859429  1  0  -0.342904  0  3.269391  0  0  -0.278783  0  3.539087  0  0  -0.295607  0  3.555542  0  0  -0.316451  -0.266837  0  3.52755  0
O  O89  1  0.21510497  0.02976112  0.10735707  1  0  -0.692866  0  2.153272  0  0  -0.605142  0  2.436554  0  0  -0.637063  0  2.419812  0  0  -0.32144  -0.582805  0  2.447282  0
O  O90  1  0.78489666  0.97023904  0.89264409  1  0  -0.69285  0  2.153229  0  0  -0.605098  0  2.436502  0  0  -0.63701  0  2.419752  0  0  -0.321433  -0.582778  0  2.44727  0
O  O91  1  0.92859248  0.85524714  0.22751883  1  0  -0.642939  0  2.070811  0  0  -0.573784  0  2.333091  0  0  -0.602222  0  2.321754  0  0  -0.324968  -0.553948  0  2.340896  0
O  O92  1  0.07140504  0.14475066  0.77248088  1  0  -0.64296  0  2.070795  0  0  -0.573825  0  2.333144  0  0  -0.602263  0  2.321809  0  0  -0.325014  -0.553986  0  2.340945  0
O  O93  1  0.08351099  0.19743515  0.27837726  1  0  -0.656604  0  2.038891  0  0  -0.592533  0  2.304369  0  0  -0.620379  0  2.290917  0  0  -0.333258  -0.572996  0  2.313652  0
O  O94  1  0.91648688  0.80256382  0.72162264  1  0  -0.656585  0  2.038894  0  0  -0.59254  0  2.304392  0  0  -0.620384  0  2.290943  0  0  -0.333261  -0.573001  0  2.313674  0
O  O95  1  0.41861416  0.16682201  0.23753102  1  0  -0.633651  0  1.908212  0  0  -0.590208  0  2.150294  0  0  -0.613231  0  2.139592  0  0  -0.320489  -0.574223  0  2.156963  0
O  O96  1  0.58138904  0.83317580  0.76247001  1  0  -0.633634  0  1.908269  0  0  -0.590186  0  2.150376  0  0  -0.613207  0  2.139672  0  0  -0.320429  -0.574197  0  2.157044  0
O  O97  1  0.88126888  0.79085224  0.05015335  1  0  -0.655333  0  2.017206  0  0  -0.592199  0  2.275289  0  0  -0.619905  0  2.263331  0  0  -0.313415  -0.573453  0  2.283296  0
O  O98  1  0.11873285  0.20914439  0.94984813  1  0  -0.655374  0  2.017284  0  0  -0.592208  0  2.275352  0  0  -0.619915  0  2.263395  0  0  -0.313411  -0.573458  0  2.283353  0
O  O99  1  0.93781121  0.15619064  0.11393737  1  0  -0.65588  0  2.04121  0  0  -0.590172  0  2.303093  0  0  -0.618524  0  2.290037  0  0  -0.313939  -0.56954  0  2.310987  0
O  O100  1  0.06218446  0.84380481  0.88605960  1  0  -0.655812  0  2.041284  0  0  -0.590094  0  2.303132  0  0  -0.618442  0  2.290078  0  0  -0.313911  -0.569461  0  2.311025  0
