# generated using pymatgen
data_ZnH11C17N3O4F3
_symmetry_space_group_name_H-M   'P 1'
_cell_length_a   11.22608019
_cell_length_b   16.08478046
_cell_length_c   17.24132936
_cell_angle_alpha   84.61231711
_cell_angle_beta   87.10070233
_cell_angle_gamma   89.55024161
_symmetry_Int_Tables_number   1
_chemical_formula_structural   ZnH11C17N3O4F3
_chemical_formula_sum   'Zn2 H22 C34 N6 O8 F6'
_cell_volume   3095.51393245
_cell_formula_units_Z   2
loop_
 _symmetry_equiv_pos_site_id
 _symmetry_equiv_pos_as_xyz
  1  'x, y, z'
loop_
 _atom_site_type_symbol
 _atom_site_label
 _atom_site_symmetry_multiplicity
 _atom_site_fract_x
 _atom_site_fract_y
 _atom_site_fract_z
 _atom_site_occupancy
 _atom_site_pbe_bader_charge
 _atom_site_pbe_bader_spin_density
 _atom_site_pbe_cm5_charge
 _atom_site_pbe_ddec_charge
 _atom_site_pbe_ddec_spin_density
 _atom_site_pbe_ddec_sum_bond_order
 _atom_site_pbe_magmom
Zn  Zn0  1  0.49901257  0.58783073  0.50031794  1  1.290325  0  0.672483  0.830916  0  2.408465  0
Zn  Zn1  1  0.49901600  0.41268895  0.50391471  1  1.296492  0  0.669163  0.840671  0  2.387911  0
H  H2  1  0.11809584  0.37586970  0.50589046  1  0.09467  0  0.112189  0.134195  0  0.989108  0
H  H3  1  0.40170755  0.58611192  0.89451543  1  0.097442  0  0.106583  0.10984  0  1.012432  0
H  H4  1  0.41105947  0.64535728  0.10686953  1  0.096596  0  0.106086  0.108085  0  0.995927  0
H  H5  1  0.41565247  0.63843923  0.25364996  1  0.061073  0  0.104978  0.110573  0  0.992977  0
H  H6  1  0.78610530  0.69338640  0.49582444  1  0.081943  0  0.091026  0.128915  0  1.00614  0
H  H7  1  0.85988109  0.70578636  0.40205988  1  0.052381  0  0.095485  0.13004  0  0.9835  0
H  H8  1  0.82022100  0.79560797  0.45050065  1  0.026057  0  0.084408  0.11026  0  1.010588  0
H  H9  1  0.64570957  0.67137333  0.39005515  1  0.096496  0  0.105658  0.12189  0  1.006004  0
H  H10  1  0.67692118  0.77347916  0.34608273  1  0.061638  0  0.101552  0.107384  0  0.9633  0
H  H11  1  0.83742867  0.35058912  0.68254859  1  0.018983  0  0.08548  0.113431  0  1.002925  0
H  H12  1  0.77381794  0.45185191  0.67035182  1  0.036654  0  0.083913  0.115927  0  1.014382  0
H  H13  1  0.58767891  0.40738677  0.10968163  1  0.118562  0  0.107444  0.110183  0  1.011849  0
H  H14  1  0.83270489  0.41499401  0.76109609  1  0.000574  0  0.08481  0.112802  0  1.002581  0
H  H15  1  0.67322960  0.30439973  0.78103129  1  0.055985  0  0.090179  0.088549  0  0.985963  0
H  H16  1  0.61465670  0.34082983  0.69032876  1  0.065717  0  0.091755  0.102175  0  1.008457  0
H  H17  1  0.58787328  0.39917338  0.25613745  1  0.085754  0  0.102388  0.105759  0  1.001301  0
H  H18  1  0.63369982  0.29413724  0.41451354  1  0.185385  0  0.142641  0.147333  0  0.958293  0
H  H19  1  0.35631542  0.70227662  0.57934588  1  0.152281  0  0.132441  0.116488  0  0.973833  0
H  H20  1  0.32381275  0.85735404  0.58488005  1  0.109333  0  0.127375  0.142927  0  0.963949  0
H  H21  1  0.89910563  0.36581051  0.51619807  1  0.078099  0  0.106264  0.099346  0  0.984679  0
H  H22  1  0.89382701  0.55733476  0.48600254  1  0.105055  0  0.102008  0.120761  0  1.036293  0
H  H23  1  0.39534986  0.58899495  0.74874578  1  0.078352  0  0.104126  0.110681  0  0.993592  0
C  C24  1  0.50011767  0.51181452  0.35037292  1  1.578083  0  0.214251  0.592272  0  4.168442  0
C  C25  1  0.51320680  0.48380124  0.74071306  1  -0.049662  0  -0.004257  -0.043503  0  3.902783  0
C  C26  1  0.58401991  0.42226675  0.78015170  1  0.09512  0  -0.008091  0.004567  0  3.921904  0
C  C27  1  0.73120681  0.48408693  0.49691693  1  1.513097  0  0.205809  0.626488  0  4.188131  0
C  C28  1  0.58737767  0.42457025  0.86090833  1  0.403299  0  0.108706  0.17569  0  3.980008  0
C  C29  1  0.42320846  0.23077878  0.54476405  1  1.184763  0  0.237148  0.31442  0  4.10864  0
C  C30  1  0.42616152  0.14394243  0.54366586  1  0.59623  0  0.11669  0.102324  0  4.04357  0
C  C31  1  0.51069960  0.10813745  0.49379506  1  0.481835  0  0.097435  0.004051  0  4.062671  0
C  C32  1  0.58605549  0.16460004  0.44698040  1  0.51726  0  0.11926  0.19612  0  4.045081  0
C  C33  1  0.57643617  0.24992493  0.45034089  1  0.559433  0  0.052011  -0.01369  0  3.911226  0
C  C34  1  0.56128693  0.85535806  0.45588535  1  0.556473  0  0.12228  0.137939  0  3.963412  0
C  C35  1  0.55007681  0.45294694  0.22266709  1  -0.052674  0  -0.082811  -0.081128  0  3.987932  0
C  C36  1  0.57361015  0.76884481  0.45299030  1  0.538917  0  0.133361  0.185768  0  3.911816  0
C  C37  1  0.47189345  0.88941987  0.50341384  1  0.346933  0  0.09935  0.092525  0  4.070835  0
C  C38  1  0.41315983  0.74824892  0.54530990  1  0.509887  0  0.055423  0.099088  0  3.926295  0
C  C39  1  0.50450760  0.49130943  0.65364595  1  1.58103  0  0.219543  0.603003  0  4.14799  0
C  C40  1  0.39545933  0.83311546  0.54833720  1  -0.027901  0  -0.066853  -0.170139  0  3.943091  0
C  C41  1  0.26717601  0.50230318  0.50952848  1  1.568547  0  0.206163  0.539313  0  4.254349  0
C  C42  1  0.06627546  0.43329543  0.50794315  1  0.1804  0  -0.095876  -0.189097  0  4.016678  0
C  C43  1  0.13401762  0.50178158  0.51138878  1  0.37325  0  0.09739  0.14834  0  3.957544  0
C  C44  1  0.93803069  0.42831251  0.50752635  1  -0.028668  0  -0.074297  0.004943  0  4.012865  0
C  C45  1  0.86199229  0.49340166  0.49606808  1  -0.033343  0  -0.095953  -0.23858  0  3.888935  0
C  C46  1  0.54985222  0.45707076  0.14208451  1  -0.01124  0  -0.083257  -0.140518  0  3.950908  0
C  C47  1  0.50137514  0.51819411  0.26319959  1  -0.011945  0  -0.015192  -0.028587  0  3.956424  0
C  C48  1  0.67054780  0.73448902  0.40198714  1  0.010431  0  -0.158175  -0.179827  0  3.955091  0
C  C49  1  0.79152413  0.73264439  0.44022333  1  -0.106051  0  -0.239707  -0.345342  0  3.932941  0
C  C50  1  0.66090625  0.36001218  0.74013429  1  -0.023863  0  -0.166478  -0.141785  0  3.979671  0
C  C51  1  0.78331190  0.39656799  0.71205170  1  -0.028536  0  -0.243805  -0.34451  0  3.952691  0
C  C52  1  0.49846290  0.52673334  0.10041431  1  0.31686  0  0.086976  0.172779  0  4.042981  0
C  C53  1  0.45036166  0.59225599  0.14061058  1  -0.061788  0  -0.081152  -0.142037  0  3.961868  0
C  C54  1  0.45268724  0.58827924  0.22149313  1  -0.017797  0  -0.083541  -0.086537  0  3.981706  0
C  C55  1  0.45246651  0.54186063  0.86180856  1  0.012403  0  -0.086612  -0.128727  0  3.997485  0
C  C56  1  0.44875835  0.54265782  0.78174528  1  -0.030753  0  -0.092902  -0.108611  0  4.02614  0
C  C57  1  0.52380034  0.48257729  0.90335731  1  0.400088  0  0.078263  0.061479  0  4.090565  0
N  N58  1  0.48970255  0.53584051  0.01858402  1  -0.465705  0  -0.155223  -0.150091  0  3.268301  0
N  N59  1  0.53540240  0.47578803  0.98431847  1  -0.472139  0  -0.151233  -0.113273  0  3.304934  0
N  N60  1  0.49505747  0.28156306  0.49992634  1  -1.245319  0  -0.303716  -0.232766  0  3.52747  0
N  N61  1  0.53497724  0.02265346  0.49147668  1  -0.37867  0  -0.1241  -0.065451  0  3.252541  0
N  N62  1  0.44581521  0.97506547  0.50569687  1  -0.417768  0  -0.120353  -0.078181  0  3.212433  0
N  N63  1  0.49941416  0.71723069  0.49855505  1  -1.200346  0  -0.302808  -0.219241  0  3.452077  0
O  O64  1  0.47735049  0.57823750  0.38349479  1  -1.165441  0  -0.31703  -0.550466  0  2.325731  0
O  O65  1  0.52146189  0.44015177  0.38532902  1  -1.173465  0  -0.320502  -0.555473  0  2.332974  0
O  O66  1  0.67374360  0.55317562  0.48748406  1  -1.167017  0  -0.317489  -0.557946  0  2.346176  0
O  O67  1  0.68400491  0.41171405  0.50710500  1  -1.16939  0  -0.324218  -0.557201  0  2.274896  0
O  O68  1  0.51129393  0.56499257  0.61977665  1  -1.158312  0  -0.316552  -0.547191  0  2.304045  0
O  O69  1  0.48932293  0.42473520  0.62072707  1  -1.155109  0  -0.313357  -0.545095  0  2.343041  0
O  O70  1  0.31634318  0.57100794  0.51964406  1  -1.146273  0  -0.315639  -0.535905  0  2.342385  0
O  O71  1  0.31852664  0.43366169  0.49708071  1  -1.162348  0  -0.319677  -0.541193  0  2.343966  0
F  F72  1  0.65797100  0.36799257  0.90059934  1  -0.631243  0  -0.099917  -0.140038  0  1.361114  0
F  F73  1  0.63485977  0.90535340  0.40830111  1  -0.625776  0  -0.075378  -0.107682  0  1.40839  0
F  F74  1  0.66795345  0.13413453  0.39730205  1  -0.616032  0  -0.078667  -0.103793  0  1.34404  0
F  F75  1  0.35197455  0.09728798  0.59289021  1  -0.611535  0  -0.073333  -0.086798  0  1.402205  0
F  F76  1  0.08360804  0.57817723  0.51717926  1  -0.625294  0  -0.092056  -0.114985  0  1.381985  0
F  F77  1  0.34401039  0.26456609  0.59325394  1  -0.598787  0  -0.060289  -0.094852  0  1.362943  0
