# generated using pymatgen
data_AgH14C19N7O3
_symmetry_space_group_name_H-M   'P 1'
_cell_length_a   9.04624412
_cell_length_b   9.94810740
_cell_length_c   11.66952057
_cell_angle_alpha   90.28879536
_cell_angle_beta   87.63918255
_cell_angle_gamma   82.93786545
_symmetry_Int_Tables_number   1
_chemical_formula_structural   AgH14C19N7O3
_chemical_formula_sum   'Ag2 H28 C38 N14 O6'
_cell_volume   1041.26934210
_cell_formula_units_Z   2
loop_
 _symmetry_equiv_pos_site_id
 _symmetry_equiv_pos_as_xyz
  1  'x, y, z'
loop_
 _atom_site_type_symbol
 _atom_site_label
 _atom_site_symmetry_multiplicity
 _atom_site_fract_x
 _atom_site_fract_y
 _atom_site_fract_z
 _atom_site_occupancy
 _atom_site_hle17_bader_spin_density
 _atom_site_hle17_ddec_charge
 _atom_site_hle17_ddec_spin_density
 _atom_site_hle17_ddec_sum_bond_order
 _atom_site_hle17_magmom
 _atom_site_hse06_10hf_bader_spin_density
 _atom_site_hse06_10hf_ddec_charge
 _atom_site_hse06_10hf_ddec_spin_density
 _atom_site_hse06_10hf_ddec_sum_bond_order
 _atom_site_hse06_10hf_magmom
 _atom_site_hse06_bader_spin_density
 _atom_site_hse06_ddec_charge
 _atom_site_hse06_ddec_spin_density
 _atom_site_hse06_ddec_sum_bond_order
 _atom_site_hse06_magmom
 _atom_site_pbe_bader_spin_density
 _atom_site_pbe_cm5_charge
 _atom_site_pbe_ddec_charge
 _atom_site_pbe_ddec_spin_density
 _atom_site_pbe_ddec_sum_bond_order
 _atom_site_pbe_magmom
Ag  Ag0  1  0.24560216  0.30359663  0.81909983  1  0  0.501897  0  1.473686  0  0  0.351233  0  1.934965  0  0  0.378488  0  1.888296  0  0  0.45881  0.333565  0  1.966489  0
Ag  Ag1  1  0.75439474  0.69640121  0.18089735  1  0  0.501856  0  1.473732  0  0  0.351149  0  1.93503  0  0  0.3784  0  1.888367  0  0  0.458805  0.333478  0  1.966551  0
H  H2  1  0.35321390  0.11353923  0.55422406  1  0  0.116966  0  0.946852  0  0  0.128228  0  1.003723  0  0  0.131319  0  1.00166  0  0  0.109871  0.125931  0  1.00534  0
H  H3  1  0.64679498  0.88645262  0.44577518  1  0  0.116958  0  0.946793  0  0  0.128236  0  1.003647  0  0  0.131327  0  1.001586  0  0  0.109874  0.125938  0  1.005264  0
H  H4  1  0.39496845  0.88465686  0.45173967  1  0  0.093737  0  0.984127  0  0  0.101131  0  1.051297  0  0  0.10455  0  1.049257  0  0  0.096298  0.098576  0  1.052976  0
H  H5  1  0.60503286  0.11533393  0.54826076  1  0  0.093851  0  0.984041  0  0  0.101246  0  1.051194  0  0  0.104669  0  1.049149  0  0  0.096357  0.098689  0  1.052878  0
H  H6  1  0.21596054  0.72322906  0.47361818  1  0  0.113519  0  0.948999  0  0  0.123111  0  1.007447  0  0  0.12658  0  1.004938  0  0  0.10661  0.120529  0  1.009335  0
H  H7  1  0.78403512  0.27676377  0.52639107  1  0  0.113482  0  0.949  0  0  0.123073  0  1.007469  0  0  0.126545  0  1.004953  0  0  0.106588  0.120489  0  1.009358  0
H  H8  1  0.98514216  0.77110084  0.60024385  1  0  0.110941  0  0.935395  0  0  0.124632  0  0.986443  0  0  0.127492  0  0.985857  0  0  0.109703  0.122579  0  0.986901  0
H  H9  1  0.01485754  0.22890216  0.39976434  1  0  0.110961  0  0.935426  0  0  0.124674  0  0.986442  0  0  0.127524  0  0.985867  0  0  0.109719  0.122621  0  0.986899  0
H  H10  1  0.70386883  0.06991026  0.74000678  1  0  0.101942  0  0.91946  0  0  0.109423  0  0.992069  0  0  0.110851  0  0.990318  0  0  0.13771  0.108121  0  0.993599  0
H  H11  1  0.29612956  0.93009266  0.25999118  1  0  0.101962  0  0.919441  0  0  0.1095  0  0.991985  0  0  0.110906  0  0.990257  0  0  0.137724  0.108197  0  0.993512  0
H  H12  1  0.78176817  0.89706360  0.71829341  1  0  0.090938  0  0.901199  0  0  0.107021  0  0.958532  0  0  0.107522  0  0.958229  0  0  0.139048  0.106545  0  0.958866  0
H  H13  1  0.21823864  0.10294243  0.28170503  1  0  0.090962  0  0.901212  0  0  0.10706  0  0.958524  0  0  0.107552  0  0.958232  0  0  0.13906  0.106584  0  0.958859  0
H  H14  1  0.68769105  0.26038876  0.87632489  1  0  0.110742  0  0.978357  0  0  0.116864  0  1.047308  0  0  0.119053  0  1.046785  0  0  0.107462  0.115215  0  1.047977  0
H  H15  1  0.31230455  0.73960299  0.12367408  1  0  0.110738  0  0.978285  0  0  0.116887  0  1.047222  0  0  0.119036  0  1.046745  0  0  0.107444  0.115236  0  1.047899  0
H  H16  1  0.54922899  0.37805541  0.04624120  1  0  0.094228  0  0.956298  0  0  0.107269  0  1.015389  0  0  0.109809  0  1.014047  0  0  0.10173  0.105298  0  1.016691  0
H  H17  1  0.45074859  0.62193115  0.95376030  1  0  0.094255  0  0.956238  0  0  0.107349  0  1.015268  0  0  0.109889  0  1.013926  0  0  0.101711  0.105379  0  1.01657  0
H  H18  1  0.49586713  0.25443191  0.22134143  1  0  0.095324  0  0.941851  0  0  0.108362  0  0.99642  0  0  0.111407  0  0.995283  0  0  0.101714  0.106138  0  0.997354  0
H  H19  1  0.50414665  0.74555802  0.77866701  1  0  0.09538  0  0.941794  0  0  0.108383  0  0.996393  0  0  0.111425  0  0.99526  0  0  0.101773  0.106159  0  0.997329  0
H  H20  1  0.57645890  0.00324233  0.23516852  1  0  0.106702  0  0.959141  0  0  0.118886  0  1.019445  0  0  0.121335  0  1.018498  0  0  0.103148  0.11705  0  1.020362  0
H  H21  1  0.42358749  0.99675296  0.76484790  1  0  0.106635  0  0.95874  0  0  0.118759  0  1.019147  0  0  0.121206  0  1.0182  0  0  0.103014  0.116908  0  1.020085  0
H  H22  1  0.08340711  0.83063801  0.85895275  1  0  0.110678  0  0.951883  0  0  0.117034  0  1.016321  0  0  0.120142  0  1.016417  0  0  0.106677  0.115035  0  1.016115  0
H  H23  1  0.91656314  0.16937762  0.14100530  1  0  0.110822  0  0.951873  0  0  0.117111  0  1.016376  0  0  0.120215  0  1.016486  0  0  0.106669  0.115124  0  1.016133  0
H  H24  1  0.24204695  0.61843009  0.79525343  1  0  0.088507  0  0.955353  0  0  0.096406  0  1.01895  0  0  0.098857  0  1.01717  0  0  0.115792  0.094562  0  1.02029  0
H  H25  1  0.75794104  0.38158073  0.20472526  1  0  0.088608  0  0.955411  0  0  0.09648  0  1.019056  0  0  0.098954  0  1.01724  0  0  0.115827  0.094638  0  1.020387  0
H  H26  1  0.89582242  0.38783287  0.85293950  1  0  0.080481  0  0.959456  0  0  0.08242  0  1.035858  0  0  0.085061  0  1.033428  0  0  0.113971  0.080555  0  1.037576  0
H  H27  1  0.10417193  0.61216907  0.14706979  1  0  0.080485  0  0.959333  0  0  0.082464  0  1.03571  0  0  0.085111  0  1.033279  0  0  0.113959  0.080602  0  1.037427  0
H  H28  1  0.72078688  0.59015097  0.92002786  1  0  0.116528  0  0.944472  0  0  0.12657  0  1.006465  0  0  0.129895  0  1.004663  0  0  0.112826  0.124003  0  1.008248  0
H  H29  1  0.27921612  0.40985911  0.07997503  1  0  0.116637  0  0.944349  0  0  0.126676  0  1.006372  0  0  0.130001  0  1.004563  0  0  0.112835  0.124108  0  1.008156  0
C  C30  1  0.14553487  0.06632567  0.63415432  1  0  0.102164  0  3.849635  0  0  0.102182  0  4.101768  0  0  0.101155  0  4.1256  0  0  0.088605  0.102643  0  4.085926  0
C  C31  1  0.85446907  0.93367730  0.36584425  1  0  0.102195  0  3.849552  0  0  0.102009  0  4.101983  0  0  0.100981  0  4.125818  0  0  0.088575  0.102471  0  4.086139  0
C  C32  1  0.27499496  0.03879695  0.56326548  1  0  -0.131181  0  3.736162  0  0  -0.148709  0  3.982875  0  0  -0.149795  0  4.002876  0  0  -0.087329  -0.147723  0  3.969346  0
C  C33  1  0.72501470  0.96119799  0.43673971  1  0  -0.131215  0  3.736253  0  0  -0.148683  0  3.983034  0  0  -0.14977  0  4.003039  0  0  -0.087392  -0.147699  0  3.969508  0
C  C34  1  0.29712991  0.91344181  0.50834678  1  0  -0.082269  0  3.757939  0  0  -0.099185  0  4.016391  0  0  -0.1032  0  4.039366  0  0  -0.097531  -0.096587  0  4.000892  0
C  C35  1  0.70287185  0.08655302  0.49165019  1  0  -0.082509  0  3.758132  0  0  -0.099419  0  4.016564  0  0  -0.103438  0  4.039543  0  0  -0.097596  -0.096821  0  4.001068  0
C  C36  1  0.19329062  0.81830471  0.52183294  1  0  -0.035111  0  3.707662  0  0  -0.056096  0  3.964611  0  0  -0.056112  0  3.985219  0  0  -0.083982  -0.055842  0  3.950572  0
C  C37  1  0.80670886  0.18169220  0.47817527  1  0  -0.034912  0  3.707742  0  0  -0.055891  0  3.964685  0  0  -0.055905  0  3.985289  0  0  -0.083962  -0.055639  0  3.950646  0
C  C38  1  0.06441151  0.84483078  0.59128052  1  0  -0.149722  0  3.765563  0  0  -0.167714  0  4.025879  0  0  -0.172359  0  4.047254  0  0  -0.091345  -0.164621  0  4.0113  0
C  C39  1  0.93558646  0.15517625  0.40872517  1  0  -0.149898  0  3.765624  0  0  -0.167899  0  4.025976  0  0  -0.172536  0  4.047353  0  0  -0.091402  -0.164807  0  4.011399  0
C  C40  1  0.04293681  0.97078030  0.64790647  1  0  0.091804  0  3.816291  0  0  0.07486  0  4.068658  0  0  0.079632  0  4.091749  0  0  0.101431  0.071598  0  4.053188  0
C  C41  1  0.95706701  0.02922474  0.35210068  1  0  0.091922  0  3.816141  0  0  0.074972  0  4.068627  0  0  0.079747  0  4.091712  0  0  0.101509  0.071709  0  4.053157  0
C  C42  1  0.79432743  0.99184559  0.76292913  1  0  0.106706  0  3.622753  0  0  0.02488  0  3.880641  0  0  0.035202  0  3.887443  0  0  0.070487  0.018029  0  3.876203  0
C  C43  1  0.20567480  0.00816142  0.23706866  1  0  0.106728  0  3.622902  0  0  0.024864  0  3.880776  0  0  0.035203  0  3.887595  0  0  0.070507  0.018009  0  3.876353  0
C  C44  1  0.70484445  0.06654779  0.96250076  1  0  0.109901  0  3.78329  0  0  0.099317  0  4.031687  0  0  0.103273  0  4.054025  0  0  0.09119  0.09681  0  4.016315  0
C  C45  1  0.29515767  0.93345316  0.03750304  1  0  0.109845  0  3.78314  0  0  0.099267  0  4.03156  0  0  0.103224  0  4.053889  0  0  0.091176  0.096763  0  4.016184  0
C  C46  1  0.66033593  0.20509326  0.95295628  1  0  -0.144966  0  3.746423  0  0  -0.166545  0  4.006445  0  0  -0.169962  0  4.028101  0  0  -0.096115  -0.164363  0  3.99198  0
C  C47  1  0.33966530  0.79489856  0.04704758  1  0  -0.144911  0  3.746054  0  0  -0.166545  0  4.006135  0  0  -0.169929  0  4.027813  0  0  -0.096102  -0.164362  0  3.991666  0
C  C48  1  0.58390392  0.26932428  0.04810801  1  0  -0.061159  0  3.7657  0  0  -0.079105  0  4.02461  0  0  -0.081125  0  4.047585  0  0  -0.09193  -0.077642  0  4.009158  0
C  C49  1  0.41608750  0.73066646  0.95189544  1  0  -0.061259  0  3.765846  0  0  -0.07926  0  4.024782  0  0  -0.081281  0  4.047746  0  0  -0.09194  -0.077795  0  4.009327  0
C  C50  1  0.55351910  0.19798999  0.14881946  1  0  -0.082995  0  3.775388  0  0  -0.099467  0  4.031826  0  0  -0.102762  0  4.055047  0  0  -0.099103  -0.097008  0  4.015769  0
C  C51  1  0.44649567  0.80200097  0.85119065  1  0  -0.082993  0  3.775243  0  0  -0.099434  0  4.031672  0  0  -0.102728  0  4.054895  0  0  -0.099123  -0.096974  0  4.015608  0
C  C52  1  0.59851751  0.05949523  0.15778497  1  0  -0.134939  0  3.730446  0  0  -0.155088  0  3.982962  0  0  -0.156723  0  4.003705  0  0  -0.094086  -0.153842  0  3.968772  0
C  C53  1  0.40150851  0.94049481  0.84222722  1  0  -0.134806  0  3.729628  0  0  -0.154874  0  3.982165  0  0  -0.156507  0  4.002901  0  0  -0.093883  -0.153616  0  3.967984  0
C  C54  1  0.67551060  0.99347235  0.06280994  1  0  0.147085  0  3.822488  0  0  0.143884  0  4.071218  0  0  0.146558  0  4.094627  0  0  0.083214  0.142135  0  4.055183  0
C  C55  1  0.32451029  0.00652980  0.93719903  1  0  0.147107  0  3.822377  0  0  0.143863  0  4.071141  0  0  0.146533  0  4.094556  0  0  0.083166  0.142116  0  4.055099  0
C  C56  1  0.79735147  0.84874388  0.94188721  1  0  0.29932  0  3.731448  0  0  0.266776  0  3.999737  0  0  0.284122  0  4.011255  0  0  0.229889  0.255269  0  3.991463  0
C  C57  1  0.20265054  0.15125704  0.05811060  1  0  0.299379  0  3.730905  0  0  0.266818  0  3.99928  0  0  0.284164  0  4.010795  0  0  0.229891  0.255313  0  3.991009  0
C  C58  1  0.88827539  0.72737936  0.89496877  1  0  0.029129  0  3.812155  0  0  0.041001  0  4.053049  0  0  0.042356  0  4.072948  0  0  0.004567  0.039992  0  4.039634  0
C  C59  1  0.11170930  0.27262544  0.10502208  1  0  0.029409  0  3.811886  0  0  0.041193  0  4.052901  0  0  0.042548  0  4.072799  0  0  0.00462  0.040181  0  4.039489  0
C  C60  1  0.03619137  0.73510333  0.85738412  1  0  -0.148024  0  3.715636  0  0  -0.168188  0  3.966425  0  0  -0.174228  0  3.987402  0  0  -0.084439  -0.164353  0  3.952479  0
C  C61  1  0.96378681  0.26490641  0.14259416  1  0  -0.148303  0  3.716074  0  0  -0.16836  0  3.966882  0  0  -0.174403  0  3.987863  0  0  -0.084437  -0.164521  0  3.952943  0
C  C62  1  0.12578451  0.61693032  0.82309366  1  0  0.12344  0  3.707662  0  0  0.097321  0  3.951526  0  0  0.103245  0  3.969735  0  0  0.045821  0.093306  0  3.939477  0
C  C63  1  0.87419978  0.38307540  0.17688436  1  0  0.123423  0  3.708099  0  0  0.097278  0  3.951974  0  0  0.10319  0  3.970179  0  0  0.045808  0.093263  0  3.939926  0
C  C64  1  0.93268932  0.48791105  0.85701209  1  0  0.135886  0  3.685318  0  0  0.107894  0  3.931755  0  0  0.113847  0  3.950544  0  0  0.048473  0.10404  0  3.918834  0
C  C65  1  0.06729666  0.51209382  0.14298813  1  0  0.136042  0  3.685281  0  0  0.108009  0  3.931724  0  0  0.113956  0  3.950521  0  0  0.04855  0.104155  0  3.918801  0
C  C66  1  0.83549241  0.60071554  0.89350851  1  0  -0.134738  0  3.696385  0  0  -0.154295  0  3.94322  0  0  -0.159558  0  3.962219  0  0  -0.076739  -0.15104  0  3.930954  0
C  C67  1  0.16449692  0.39928936  0.10649328  1  0  -0.135171  0  3.696366  0  0  -0.154707  0  3.943283  0  0  -0.159964  0  3.96228  0  0  -0.076883  -0.15145  0  3.93102  0
N  N68  1  0.73454805  0.85854449  0.04676969  1  0  -0.408241  0  3.203937  0  0  -0.348842  0  3.504644  0  0  -0.36759  0  3.515607  0  0  -0.344849  -0.336057  0  3.496754  0
N  N69  1  0.26547076  0.14145556  0.95323166  1  0  -0.408308  0  3.20377  0  0  -0.348908  0  3.504546  0  0  -0.367654  0  3.515509  0  0  -0.344853  -0.336127  0  3.496663  0
N  N70  1  0.78177684  0.97203706  0.88601607  1  0  -0.188365  0  3.449529  0  0  -0.113366  0  3.684541  0  0  -0.130762  0  3.705813  0  0  -0.241642  -0.101733  0  3.669905  0
N  N71  1  0.21822388  0.02796485  0.11398008  1  0  -0.188472  0  3.449632  0  0  -0.113446  0  3.684654  0  0  -0.130835  0  3.705917  0  0  -0.241679  -0.101815  0  3.670017  0
N  N72  1  0.07620556  0.49499526  0.82434083  1  0  -0.292204  0  3.269068  0  0  -0.217532  0  3.547762  0  0  -0.232954  0  3.561442  0  0  -0.331186  -0.207107  0  3.538106  0
N  N73  1  0.92377909  0.50501164  0.17566288  1  0  -0.292225  0  3.269203  0  0  -0.217529  0  3.547949  0  0  -0.232955  0  3.561641  0  0  -0.331216  -0.207104  0  3.538292  0
N  N74  1  0.93485172  0.03412038  0.72255263  1  0  -0.046037  0  3.518562  0  0  0.031966  0  3.759706  0  0  0.018152  0  3.783465  0  0  -0.138837  0.041054  0  3.743873  0
N  N75  1  0.06515143  0.96588869  0.27745026  1  0  -0.046105  0  3.518624  0  0  0.031916  0  3.759809  0  0  0.018105  0  3.78356  0  0  -0.138917  0.041002  0  3.743977  0
N  N76  1  0.96713442  0.15977774  0.75151682  1  0  -0.048901  0  2.85563  0  0  -0.055741  0  3.14611  0  0  -0.048769  0  3.154024  0  0  -0.07085  -0.06068  0  3.14106  0
N  N77  1  0.03287126  0.84022827  0.24847996  1  0  -0.04901  0  2.85546  0  0  -0.055884  0  3.145948  0  0  -0.048912  0  3.15386  0  0  -0.070839  -0.060824  0  3.140902  0
N  N78  1  0.09311784  0.17928108  0.69973627  1  0  -0.220644  0  3.096428  0  0  -0.185023  0  3.407941  0  0  -0.191195  0  3.414049  0  0  -0.203332  -0.180877  0  3.403843  0
N  N79  1  0.90689464  0.82071690  0.30026537  1  0  -0.220489  0  3.096092  0  0  -0.184738  0  3.407568  0  0  -0.190909  0  3.41368  0  0  -0.20324  -0.180593  0  3.403468  0
N  N80  1  0.53943700  0.36660140  0.72444860  1  0  0.679938  0  4.173055  0  0  0.735922  0  4.429404  0  0  0.764467  0  4.43608  0  0  0.085524  0.716677  0  4.424251  0
N  N81  1  0.46055678  0.63339541  0.27555130  1  0  0.680115  0  4.172712  0  0  0.736015  0  4.429187  0  0  0.764561  0  4.435856  0  0  0.085567  0.716768  0  4.424036  0
O  O82  1  0.48792029  0.25535038  0.70015876  1  0  -0.509828  0  1.76421  0  0  -0.495448  0  1.994158  0  0  -0.513203  0  1.983669  0  0  -0.224435  -0.482952  0  2.001201  0
O  O83  1  0.51208408  0.74464354  0.29985096  1  0  -0.509962  0  1.764122  0  0  -0.495551  0  1.994116  0  0  -0.513296  0  1.983611  0  0  -0.224471  -0.483055  0  2.001162  0
O  O84  1  0.45868189  0.45389872  0.78771919  1  0  -0.490665  0  1.767298  0  0  -0.47929  0  1.990625  0  0  -0.496192  0  1.980923  0  0  -0.21376  -0.467275  0  1.997012  0
O  O85  1  0.54131070  0.54609806  0.21227648  1  0  -0.490661  0  1.767081  0  0  -0.479252  0  1.990442  0  0  -0.496156  0  1.980736  0  0  -0.213711  -0.46724  0  1.996832  0
O  O86  1  0.66750345  0.38665884  0.68912226  1  0  -0.448508  0  1.715803  0  0  -0.454905  0  1.906968  0  0  -0.467828  0  1.900624  0  0  -0.199051  -0.445498  0  1.910999  0
O  O87  1  0.33248653  0.61334097  0.31087523  1  0  -0.448555  0  1.715733  0  0  -0.454926  0  1.90694  0  0  -0.467847  0  1.900592  0  0  -0.199111  -0.445517  0  1.910971  0
