# generated using pymatgen
data_MgH6C5(NO3)2
_symmetry_space_group_name_H-M   'P 1'
_cell_length_a   9.12639100
_cell_length_b   9.12641546
_cell_length_c   11.72246754
_cell_angle_alpha   74.63588126
_cell_angle_beta   74.63503106
_cell_angle_gamma   79.41134914
_symmetry_Int_Tables_number   1
_chemical_formula_structural   MgH6C5(NO3)2
_chemical_formula_sum   'Mg4 H24 C20 N8 O24'
_cell_volume   901.03799391
_cell_formula_units_Z   4
loop_
 _symmetry_equiv_pos_site_id
 _symmetry_equiv_pos_as_xyz
  1  'x, y, z'
loop_
 _atom_site_type_symbol
 _atom_site_label
 _atom_site_symmetry_multiplicity
 _atom_site_fract_x
 _atom_site_fract_y
 _atom_site_fract_z
 _atom_site_occupancy
 _atom_site_hle17_bader_spin_density
 _atom_site_hle17_ddec_charge
 _atom_site_hle17_ddec_spin_density
 _atom_site_hle17_ddec_sum_bond_order
 _atom_site_hle17_magmom
 _atom_site_hse06_10hf_bader_spin_density
 _atom_site_hse06_10hf_ddec_charge
 _atom_site_hse06_10hf_ddec_spin_density
 _atom_site_hse06_10hf_ddec_sum_bond_order
 _atom_site_hse06_10hf_magmom
 _atom_site_hse06_bader_spin_density
 _atom_site_hse06_ddec_charge
 _atom_site_hse06_ddec_spin_density
 _atom_site_hse06_ddec_sum_bond_order
 _atom_site_hse06_magmom
 _atom_site_pbe_bader_spin_density
 _atom_site_pbe_cm5_charge
 _atom_site_pbe_ddec_charge
 _atom_site_pbe_ddec_spin_density
 _atom_site_pbe_ddec_sum_bond_order
 _atom_site_pbe_magmom
Mg  Mg0  1  0.01671336  0.52403092  0.76810590  1  0  1.456889  0  1.213328  0  0  1.350131  0  1.471225  0  0  1.372942  0  1.436459  0  0  0.825028  1.334031  0  1.49544  0
Mg  Mg1  1  0.47597283  0.98329039  0.73189382  1  0  1.456873  0  1.213537  0  0  1.350152  0  1.471371  0  0  1.372971  0  1.436591  0  0  0.824966  1.334045  0  1.49559  0
Mg  Mg2  1  0.98328800  0.47596956  0.23189250  1  0  1.456884  0  1.213399  0  0  1.350145  0  1.471266  0  0  1.372956  0  1.436498  0  0  0.825016  1.334045  0  1.495481  0
Mg  Mg3  1  0.52402751  0.01670891  0.26810672  1  0  1.456842  0  1.213549  0  0  1.350164  0  1.471313  0  0  1.372976  0  1.436543  0  0  0.82497  1.334057  0  1.495531  0
H  H4  1  0.83039139  0.37670965  0.58982083  1  0  0.104706  0  0.913011  0  0  0.115957  0  0.96916  0  0  0.11934  0  0.964854  0  0  0.146747  0.11337  0  0.972452  0
H  H5  1  0.62328270  0.16960804  0.91018529  1  0  0.104647  0  0.913101  0  0  0.115866  0  0.969301  0  0  0.11925  0  0.964994  0  0  0.146683  0.113279  0  0.972587  0
H  H6  1  0.16960698  0.62328737  0.41017967  1  0  0.1047  0  0.912995  0  0  0.115949  0  0.969154  0  0  0.119333  0  0.964847  0  0  0.146736  0.113364  0  0.972442  0
H  H7  1  0.37671631  0.83039234  0.08981785  1  0  0.104692  0  0.913066  0  0  0.115937  0  0.969223  0  0  0.119321  0  0.964919  0  0  0.146725  0.113351  0  0.972508  0
H  H8  1  0.95733769  0.12417861  0.53347755  1  0  0.325207  0  0.906065  0  0  0.298247  0  0.978291  0  0  0.307747  0  0.970069  0  0  0.318864  0.291502  0  0.984213  0
H  H9  1  0.87582074  0.04266240  0.96652847  1  0  0.325142  0  0.906096  0  0  0.298168  0  0.978356  0  0  0.307669  0  0.970134  0  0  0.318809  0.291423  0  0.984267  0
H  H10  1  0.04266164  0.87581952  0.46652426  1  0  0.324998  0  0.90605  0  0  0.29806  0  0.978272  0  0  0.30756  0  0.970051  0  0  0.31878  0.291318  0  0.98419  0
H  H11  1  0.12418057  0.95733802  0.03347251  1  0  0.325175  0  0.906148  0  0  0.298196  0  0.978409  0  0  0.307696  0  0.970189  0  0  0.318828  0.291451  0  0.984322  0
H  H12  1  0.20025897  0.70679236  0.59986505  1  0  0.420697  0  0.885851  0  0  0.385576  0  0.956668  0  0  0.396893  0  0.940045  0  0  0.297616  0.377598  0  0.968388  0
H  H13  1  0.29320948  0.79974194  0.90013642  1  0  0.420748  0  0.885789  0  0  0.385612  0  0.956629  0  0  0.396927  0  0.940008  0  0  0.297623  0.377634  0  0.968348  0
H  H14  1  0.79974012  0.29320811  0.40013379  1  0  0.420709  0  0.885838  0  0  0.385586  0  0.956658  0  0  0.396903  0  0.940033  0  0  0.297609  0.377609  0  0.968376  0
H  H15  1  0.70679298  0.20025850  0.09986348  1  0  0.420727  0  0.88581  0  0  0.385604  0  0.956636  0  0  0.396921  0  0.940013  0  0  0.297607  0.377626  0  0.968355  0
H  H16  1  0.30280171  0.55418850  0.64402396  1  0  0.435542  0  0.80305  0  0  0.421468  0  0.849416  0  0  0.429384  0  0.840517  0  0  0.33402  0.415783  0  0.855967  0
H  H17  1  0.44581388  0.69720035  0.85597497  1  0  0.435486  0  0.803179  0  0  0.421409  0  0.849553  0  0  0.429326  0  0.84065  0  0  0.333969  0.415723  0  0.856104  0
H  H18  1  0.69719540  0.44580967  0.35597571  1  0  0.435552  0  0.80301  0  0  0.421478  0  0.849377  0  0  0.429395  0  0.840478  0  0  0.334014  0.415793  0  0.855928  0
H  H19  1  0.55418667  0.30279787  0.14402232  1  0  0.43554  0  0.803128  0  0  0.421465  0  0.849499  0  0  0.429382  0  0.840594  0  0  0.334004  0.415778  0  0.856051  0
H  H20  1  0.82491510  0.51883720  0.98838428  1  0  0.446326  0  0.807736  0  0  0.419244  0  0.878102  0  0  0.428458  0  0.864523  0  0  0.321683  0.412648  0  0.886401  0
H  H21  1  0.48116262  0.17508301  0.51161718  1  0  0.446329  0  0.807752  0  0  0.419246  0  0.878126  0  0  0.428462  0  0.864529  0  0  0.321667  0.412647  0  0.886432  0
H  H22  1  0.17508628  0.48116329  0.01161326  1  0  0.446315  0  0.807732  0  0  0.419234  0  0.878101  0  0  0.428448  0  0.864531  0  0  0.321675  0.412639  0  0.886398  0
H  H23  1  0.51883772  0.82491628  0.48838336  1  0  0.446327  0  0.807718  0  0  0.419243  0  0.878097  0  0  0.428459  0  0.864524  0  0  0.32166  0.412643  0  0.886403  0
H  H24  1  0.85284520  0.35651993  0.96396084  1  0  0.419253  0  0.883873  0  0  0.385289  0  0.954981  0  0  0.395823  0  0.939437  0  0  0.298537  0.377858  0  0.965929  0
H  H25  1  0.64348698  0.14715498  0.53603186  1  0  0.419174  0  0.883975  0  0  0.385223  0  0.955073  0  0  0.395757  0  0.939529  0  0  0.298488  0.377792  0  0.966023  0
H  H26  1  0.14715732  0.64348057  0.03603648  1  0  0.419242  0  0.883946  0  0  0.385272  0  0.955018  0  0  0.395807  0  0.939473  0  0  0.298535  0.377842  0  0.965965  0
H  H27  1  0.35651191  0.85284659  0.46396937  1  0  0.419157  0  0.884  0  0  0.385211  0  0.955092  0  0  0.395747  0  0.939546  0  0  0.29849  0.37778  0  0.966041  0
C  C28  1  0.11500923  0.11598913  0.64279573  1  0  0.005294  0  3.662079  0  0  -0.009732  0  3.927794  0  0  -0.012235  0  3.947209  0  0  0.090896  -0.008177  0  3.914899  0
C  C29  1  0.88400732  0.88499546  0.85720591  1  0  0.005147  0  3.662245  0  0  -0.009908  0  3.928008  0  0  -0.012404  0  3.947429  0  0  0.090866  -0.008359  0  3.915115  0
C  C30  1  0.88499125  0.88400902  0.35720500  1  0  0.005207  0  3.662255  0  0  -0.009826  0  3.927968  0  0  -0.012329  0  3.947383  0  0  0.090907  -0.008262  0  3.915067  0
C  C31  1  0.11599248  0.11500846  0.14279213  1  0  0.005161  0  3.662273  0  0  -0.009882  0  3.928018  0  0  -0.012379  0  3.947439  0  0  0.090857  -0.008329  0  3.915116  0
C  C32  1  0.11851057  0.22044336  0.71055190  1  0  0.005515  0  3.696901  0  0  -0.003654  0  3.957634  0  0  -0.004741  0  3.976672  0  0  0.08581  -0.002986  0  3.944929  0
C  C33  1  0.77955587  0.88149495  0.78944787  1  0  0.005435  0  3.697155  0  0  -0.003667  0  3.95787  0  0  -0.004773  0  3.976931  0  0  0.08578  -0.003  0  3.945168  0
C  C34  1  0.88148980  0.77955597  0.28944691  1  0  0.005453  0  3.697057  0  0  -0.00369  0  3.957738  0  0  -0.004779  0  3.976777  0  0  0.085789  -0.003022  0  3.945029  0
C  C35  1  0.22044294  0.11850782  0.21055058  1  0  0.005354  0  3.697069  0  0  -0.003734  0  3.957817  0  0  -0.004842  0  3.97688  0  0  0.085765  -0.003062  0  3.945105  0
C  C36  1  0.92665177  0.30571193  0.62272032  1  0  0.291149  0  3.61823  0  0  0.225788  0  3.897163  0  0  0.240023  0  3.906439  0  0  0.175084  0.216597  0  3.890477  0
C  C37  1  0.69427997  0.07334943  0.87728550  1  0  0.291083  0  3.618305  0  0  0.22575  0  3.897234  0  0  0.239984  0  3.906511  0  0  0.175097  0.216563  0  3.890531  0
C  C38  1  0.07334743  0.69428736  0.37728043  1  0  0.291123  0  3.618153  0  0  0.225762  0  3.897097  0  0  0.239996  0  3.906373  0  0  0.175097  0.216577  0  3.890411  0
C  C39  1  0.30571859  0.92665438  0.12271792  1  0  0.291124  0  3.618184  0  0  0.225781  0  3.897108  0  0  0.240015  0  3.906384  0  0  0.175128  0.216594  0  3.890407  0
C  C40  1  0.20935463  0.97407272  0.61611895  1  0  0.671892  0  3.927  0  0  0.613124  0  4.234138  0  0  0.647353  0  4.224371  0  0  0.224365  0.589966  0  4.240124  0
C  C41  1  0.02593002  0.79063521  0.88387650  1  0  0.672086  0  3.927076  0  0  0.613254  0  4.234293  0  0  0.647475  0  4.22453  0  0  0.224434  0.590097  0  4.240273  0
C  C42  1  0.79064134  0.02592546  0.38388094  1  0  0.672032  0  3.927125  0  0  0.613256  0  4.234268  0  0  0.647485  0  4.224499  0  0  0.224391  0.590097  0  4.240254  0
C  C43  1  0.97407300  0.20936193  0.11611796  1  0  0.672038  0  3.927009  0  0  0.613229  0  4.234187  0  0  0.647453  0  4.224423  0  0  0.224425  0.590069  0  4.240163  0
C  C44  1  0.21430629  0.23166334  0.79354213  1  0  0.691517  0  3.90811  0  0  0.638249  0  4.215232  0  0  0.673088  0  4.202525  0  0  0.222468  0.614685  0  4.223205  0
C  C45  1  0.76836906  0.78568105  0.70645771  1  0  0.691452  0  3.908409  0  0  0.638096  0  4.21564  0  0  0.67294  0  4.202935  0  0  0.222522  0.614534  0  4.223622  0
C  C46  1  0.78569005  0.76834051  0.20645915  1  0  0.691546  0  3.908186  0  0  0.638292  0  4.215266  0  0  0.673131  0  4.202557  0  0  0.222479  0.614727  0  4.223241  0
C  C47  1  0.23163250  0.21431705  0.29354538  1  0  0.691652  0  3.908129  0  0  0.638213  0  4.215467  0  0  0.673058  0  4.202761  0  0  0.222547  0.614649  0  4.223448  0
N  N48  1  0.99179912  0.17341815  0.59041057  1  0  -0.281354  0  3.430409  0  0  -0.2217  0  3.675114  0  0  -0.237346  0  3.690635  0  0  -0.365071  -0.211219  0  3.664568  0
N  N49  1  0.82657881  0.00819501  0.90959458  1  0  -0.281204  0  3.430557  0  0  -0.22155  0  3.675253  0  0  -0.237194  0  3.690775  0  0  -0.365051  -0.211057  0  3.664681  0
N  N50  1  0.00819815  0.82657890  0.40958843  1  0  -0.281076  0  3.430409  0  0  -0.221437  0  3.675065  0  0  -0.237084  0  3.690598  0  0  -0.364977  -0.210975  0  3.664525  0
N  N51  1  0.17341929  0.99180432  0.09040467  1  0  -0.281258  0  3.430376  0  0  -0.221614  0  3.675079  0  0  -0.237259  0  3.690598  0  0  -0.365082  -0.211123  0  3.664511  0
N  N52  1  0.00028458  0.33695471  0.69566195  1  0  -0.486206  0  3.194443  0  0  -0.430751  0  3.462559  0  0  -0.445701  0  3.476901  0  0  -0.388037  -0.420648  0  3.452632  0
N  N53  1  0.66304544  0.99971445  0.80434016  1  0  -0.486084  0  3.19456  0  0  -0.430647  0  3.462655  0  0  -0.445588  0  3.477  0  0  -0.388023  -0.420548  0  3.452725  0
N  N54  1  0.99971466  0.66304462  0.30433708  1  0  -0.486161  0  3.194385  0  0  -0.430723  0  3.462497  0  0  -0.445671  0  3.476838  0  0  -0.388037  -0.420621  0  3.452567  0
N  N55  1  0.33695476  0.00028599  0.19566018  1  0  -0.48611  0  3.194572  0  0  -0.430683  0  3.462672  0  0  -0.445624  0  3.477019  0  0  -0.388054  -0.420585  0  3.452739  0
O  O56  1  0.16452100  0.90400463  0.55200730  1  0  -0.656218  0  2.007089  0  0  -0.590766  0  2.229534  0  0  -0.615985  0  2.218734  0  0  -0.312187  -0.573049  0  2.236278  0
O  O57  1  0.09600057  0.83548548  0.94799797  1  0  -0.656384  0  2.006595  0  0  -0.590808  0  2.228977  0  0  -0.616032  0  2.218182  0  0  -0.312237  -0.573125  0  2.235815  0
O  O58  1  0.83547944  0.09599348  0.44799514  1  0  -0.65634  0  2.006977  0  0  -0.590858  0  2.229396  0  0  -0.616079  0  2.218597  0  0  -0.312209  -0.573139  0  2.236139  0
O  O59  1  0.90400145  0.16451838  0.05200221  1  0  -0.656348  0  2.006687  0  0  -0.590804  0  2.22908  0  0  -0.616027  0  2.218283  0  0  -0.312232  -0.573126  0  2.235933  0
O  O60  1  0.33081158  0.92600508  0.65347950  1  0  -0.716283  0  2.085266  0  0  -0.656959  0  2.331207  0  0  -0.679135  0  2.316938  0  0  -0.358825  -0.641699  0  2.340709  0
O  O61  1  0.07399532  0.66921321  0.84652751  1  0  -0.716222  0  2.08607  0  0  -0.656825  0  2.331922  0  0  -0.67899  0  2.317652  0  0  -0.358747  -0.641573  0  2.341431  0
O  O62  1  0.66919107  0.07399297  0.34652595  1  0  -0.71629  0  2.085522  0  0  -0.656954  0  2.331423  0  0  -0.679127  0  2.317152  0  0  -0.358819  -0.641697  0  2.340929  0
O  O63  1  0.92600485  0.33079638  0.15347193  1  0  -0.716259  0  2.085799  0  0  -0.656885  0  2.331671  0  0  -0.679054  0  2.3174  0  0  -0.35879  -0.64163  0  2.341181  0
O  O64  1  0.32144954  0.12788707  0.81752299  1  0  -0.700536  0  2.009655  0  0  -0.650047  0  2.252566  0  0  -0.67224  0  2.239059  0  0  -0.367627  -0.634688  0  2.261405  0
O  O65  1  0.87210104  0.67857910  0.68247544  1  0  -0.700288  0  2.010984  0  0  -0.649766  0  2.253917  0  0  -0.67195  0  2.240416  0  0  -0.367527  -0.634413  0  2.262738  0
O  O66  1  0.67855465  0.87210881  0.18247661  1  0  -0.700537  0  2.00989  0  0  -0.650072  0  2.252794  0  0  -0.672263  0  2.239287  0  0  -0.367637  -0.634714  0  2.261631  0
O  O67  1  0.12789629  0.32142590  0.31752542  1  0  -0.70042  0  2.010848  0  0  -0.649872  0  2.253825  0  0  -0.672055  0  2.240321  0  0  -0.367591  -0.634525  0  2.262662  0
O  O68  1  0.17688916  0.35085813  0.83742913  1  0  -0.705212  0  1.946038  0  0  -0.657743  0  2.181848  0  0  -0.678965  0  2.166574  0  0  -0.362441  -0.642997  0  2.191939  0
O  O69  1  0.64913031  0.82311905  0.66256748  1  0  -0.705383  0  1.944972  0  0  -0.657902  0  2.180847  0  0  -0.67914  0  2.165579  0  0  -0.362589  -0.643131  0  2.190898  0
O  O70  1  0.82310822  0.64913774  0.16257179  1  0  -0.705217  0  1.945871  0  0  -0.657755  0  2.181667  0  0  -0.67898  0  2.166395  0  0  -0.36243  -0.643004  0  2.191749  0
O  O71  1  0.35086660  0.17688022  0.33743458  1  0  -0.705381  0  1.944955  0  0  -0.657889  0  2.180879  0  0  -0.679124  0  2.16561  0  0  -0.36254  -0.643121  0  2.190938  0
O  O72  1  0.20644611  0.59272158  0.61947466  1  0  -0.854871  0  1.850727  0  0  -0.808416  0  2.026794  0  0  -0.825152  0  1.998814  0  0  -0.588504  -0.796617  0  2.04627  0
O  O73  1  0.40728103  0.79355467  0.88052520  1  0  -0.8549  0  1.850828  0  0  -0.808436  0  2.026905  0  0  -0.825173  0  1.998927  0  0  -0.588511  -0.796638  0  2.046393  0
O  O74  1  0.79355428  0.40727777  0.38052329  1  0  -0.854894  0  1.850693  0  0  -0.80844  0  2.026764  0  0  -0.825179  0  1.998784  0  0  -0.588498  -0.79664  0  2.046236  0
O  O75  1  0.59272061  0.20644350  0.11947445  1  0  -0.854919  0  1.8508  0  0  -0.808465  0  2.026829  0  0  -0.825202  0  1.99885  0  0  -0.588512  -0.796667  0  2.046319  0
O  O76  1  0.83565796  0.46627237  0.92341123  1  0  -0.873216  0  1.833615  0  0  -0.823305  0  2.012014  0  0  -0.83955  0  1.981639  0  0  -0.598334  -0.81194  0  2.031896  0
O  O77  1  0.53373278  0.16434353  0.57658735  1  0  -0.873189  0  1.833751  0  0  -0.823249  0  2.012091  0  0  -0.8395  0  1.981701  0  0  -0.598307  -0.81189  0  2.031974  0
O  O78  1  0.16434537  0.53373039  0.07658720  1  0  -0.873211  0  1.833698  0  0  -0.823278  0  2.012022  0  0  -0.839526  0  1.981656  0  0  -0.59833  -0.811914  0  2.031901  0
O  O79  1  0.46626742  0.83565691  0.42341299  1  0  -0.873169  0  1.833729  0  0  -0.823234  0  2.012056  0  0  -0.839483  0  1.981691  0  0  -0.598302  -0.811875  0  2.031941  0
