# generated using pymatgen
data_SbH8C4I3O
_symmetry_space_group_name_H-M   'P 1'
_cell_length_a   7.79070921
_cell_length_b   11.26430401
_cell_length_c   12.43830514
_cell_angle_alpha   89.99925933
_cell_angle_beta   89.99909409
_cell_angle_gamma   92.92171542
_symmetry_Int_Tables_number   1
_chemical_formula_structural   SbH8C4I3O
_chemical_formula_sum   'Sb4 H32 C16 I12 O4'
_cell_volume   1090.12842104
_cell_formula_units_Z   4
loop_
 _symmetry_equiv_pos_site_id
 _symmetry_equiv_pos_as_xyz
  1  'x, y, z'
loop_
 _atom_site_type_symbol
 _atom_site_label
 _atom_site_symmetry_multiplicity
 _atom_site_fract_x
 _atom_site_fract_y
 _atom_site_fract_z
 _atom_site_occupancy
 _atom_site_pbe_bader_spin_density
 _atom_site_pbe_cm5_charge
 _atom_site_pbe_ddec_charge
 _atom_site_pbe_ddec_spin_density
 _atom_site_pbe_ddec_sum_bond_order
 _atom_site_pbe_magmom
Sb  Sb0  1  0.78354745  0.06049890  0.06009162  1  0  0.321502  0.558249  0  3.227004  0
Sb  Sb1  1  0.71644161  0.43950284  0.56009036  1  0  0.321529  0.558251  0  3.227055  0
Sb  Sb2  1  0.21643577  0.93950578  0.93990533  1  0  0.321526  0.558281  0  3.226983  0
Sb  Sb3  1  0.28355844  0.56050350  0.43990981  1  0  0.321511  0.558268  0  3.227071  0
H  H4  1  0.87731099  0.74078113  0.87301390  1  0  0.074663  0.05209  0  1.046736  0
H  H5  1  0.62270742  0.75920353  0.37301525  1  0  0.074629  0.052025  0  1.046879  0
H  H6  1  0.12269060  0.25921363  0.12698546  1  0  0.07467  0.052086  0  1.046731  0
H  H7  1  0.37730587  0.24079292  0.62698251  1  0  0.074634  0.052029  0  1.046833  0
H  H8  1  0.69580698  0.80981519  0.92927286  1  0  0.073962  0.047427  0  1.060047  0
H  H9  1  0.80421103  0.69018105  0.42928770  1  0  0.073988  0.047537  0  1.059981  0
H  H10  1  0.30418971  0.19018227  0.07072650  1  0  0.073952  0.047456  0  1.06002  0
H  H11  1  0.19579993  0.30981809  0.57071247  1  0  0.073958  0.047443  0  1.060035  0
H  H12  1  0.73488211  0.56696830  0.95166057  1  0  0.079689  0.091379  0  1.025306  0
H  H13  1  0.76509842  0.93303143  0.45165288  1  0  0.07968  0.091381  0  1.025298  0
H  H14  1  0.26511346  0.43303096  0.04834443  1  0  0.079664  0.091309  0  1.025303  0
H  H15  1  0.23490348  0.06696689  0.54834729  1  0  0.079679  0.091364  0  1.02536  0
H  H16  1  0.64256953  0.65157109  0.05547090  1  0  0.06714  0.078443  0  1.048872  0
H  H17  1  0.85741155  0.84843748  0.55546770  1  0  0.067119  0.078357  0  1.048991  0
H  H18  1  0.35742363  0.34842996  0.94453650  1  0  0.067111  0.078362  0  1.049014  0
H  H19  1  0.14259300  0.15156171  0.44453488  1  0  0.067137  0.07838  0  1.048951  0
H  H20  1  0.88651661  0.56889708  0.14949988  1  0  0.07356  0.091003  0  1.043962  0
H  H21  1  0.61345444  0.93109764  0.64949650  1  0  0.073543  0.090958  0  1.043825  0
H  H22  1  0.11348681  0.43110390  0.85050270  1  0  0.073542  0.090961  0  1.044066  0
H  H23  1  0.38654579  0.06889624  0.35050366  1  0  0.073595  0.09102  0  1.04397  0
H  H24  1  0.02147198  0.59024008  0.03471986  1  0  0.081374  0.090258  0  1.023792  0
H  H25  1  0.47850461  0.90974451  0.53471959  1  0  0.081325  0.090209  0  1.023731  0
H  H26  1  0.97852495  0.40976005  0.96528111  1  0  0.081359  0.090223  0  1.023804  0
H  H27  1  0.52149578  0.09025115  0.46527977  1  0  0.081308  0.090182  0  1.02373  0
H  H28  1  0.88348386  0.78193426  0.18165980  1  0  0.079292  0.058286  0  1.021669  0
H  H29  1  0.61651447  0.71805887  0.68166207  1  0  0.079275  0.058239  0  1.021712  0
H  H30  1  0.11652349  0.21806758  0.81834359  1  0  0.079289  0.058325  0  1.021654  0
H  H31  1  0.38349345  0.28193495  0.31833649  1  0  0.079312  0.058305  0  1.021695  0
H  H32  1  0.09773888  0.77097992  0.13312011  1  0  0.078992  0.054688  0  1.043113  0
H  H33  1  0.40225569  0.72900390  0.63313072  1  0  0.079017  0.054717  0  1.043  0
H  H34  1  0.90226695  0.22901926  0.86687523  1  0  0.079023  0.054735  0  1.043104  0
H  H35  1  0.59774566  0.27098820  0.36686784  1  0  0.079042  0.054762  0  1.04311  0
C  C36  1  0.80627123  0.75644504  0.94760873  1  0  -0.090714  0.028668  0  3.820682  0
C  C37  1  0.69373163  0.74354481  0.44761117  1  0  -0.090714  0.028663  0  3.820531  0
C  C38  1  0.19372539  0.24355154  0.05239144  1  0  -0.090744  0.028602  0  3.820547  0
C  C39  1  0.30627404  0.25645259  0.55238900  1  0  -0.090667  0.028796  0  3.82039  0
C  C40  1  0.75911327  0.64161261  0.00718246  1  0  -0.182985  -0.17997  0  3.926866  0
C  C41  1  0.74086679  0.85838515  0.50718431  1  0  -0.182859  -0.179802  0  3.926705  0
C  C42  1  0.24088350  0.35838574  0.99282092  1  0  -0.182878  -0.179713  0  3.926747  0
C  C43  1  0.25913512  0.14161317  0.49281666  1  0  -0.18287  -0.179803  0  3.92678  0
C  C44  1  0.91504245  0.62649266  0.07998672  1  0  -0.181388  -0.18252  0  3.92743  0
C  C45  1  0.58493992  0.87349417  0.57998268  1  0  -0.181356  -0.182499  0  3.927436  0
C  C46  1  0.08495720  0.37350924  0.92001586  1  0  -0.181367  -0.182492  0  3.927512  0
C  C47  1  0.41506046  0.12650149  0.42001668  1  0  -0.181358  -0.182467  0  3.927482  0
C  C48  1  0.96144607  0.75337359  0.11352731  1  0  -0.090003  0.023685  0  3.851063  0
C  C49  1  0.53854614  0.74661798  0.61353001  1  0  -0.090042  0.023747  0  3.851169  0
C  C50  1  0.03855615  0.24662828  0.88647286  1  0  -0.090048  0.023576  0  3.851079  0
C  C51  1  0.46145953  0.25337942  0.38646774  1  0  -0.090141  0.023513  0  3.851151  0
I  I52  1  0.68073147  0.28916285  0.10524487  1  0  -0.045864  -0.167218  0  1.567986  0
I  I53  1  0.81926320  0.21084259  0.60525006  1  0  -0.045905  -0.167237  0  1.567947  0
I  I54  1  0.31925968  0.71084444  0.89474887  1  0  -0.045896  -0.167218  0  1.567859  0
I  I55  1  0.18074327  0.78916370  0.39475332  1  0  -0.045876  -0.167238  0  1.568014  0
I  I56  1  0.97289997  0.04734094  0.25153245  1  0  -0.056388  -0.186724  0  1.549593  0
I  I57  1  0.52706273  0.45266424  0.75152806  1  0  -0.05637  -0.186736  0  1.549705  0
I  I58  1  0.02706825  0.95266830  0.74847093  1  0  -0.056365  -0.186739  0  1.549742  0
I  I59  1  0.47293292  0.54733591  0.24847130  1  0  -0.056377  -0.186766  0  1.549718  0
I  I60  1  0.49811317  0.93004472  0.15559055  1  0  -0.060711  -0.224236  0  1.630675  0
I  I61  1  0.00186458  0.56995843  0.65559405  1  0  -0.060701  -0.224244  0  1.630646  0
I  I62  1  0.50186997  0.06995907  0.84439997  1  0  -0.060727  -0.224267  0  1.630636  0
I  I63  1  0.99814076  0.43004964  0.34440209  1  0  -0.060711  -0.224225  0  1.63058  0
O  O64  1  0.92139529  0.82697788  0.02003203  1  0  -0.222133  -0.233506  0  2.48738  0
O  O65  1  0.57860094  0.67301779  0.52003760  1  0  -0.222142  -0.233555  0  2.487355  0
O  O66  1  0.07860044  0.17302315  0.97996734  1  0  -0.222116  -0.233487  0  2.48736  0
O  O67  1  0.42140361  0.32698140  0.47996257  1  0  -0.222176  -0.233574  0  2.487312  0
