# generated using pymatgen
data_ZnH4C3N4O3
_symmetry_space_group_name_H-M   'P 1'
_cell_length_a   7.68765636
_cell_length_b   12.83204141
_cell_length_c   12.70760000
_cell_angle_alpha   90.00000000
_cell_angle_beta   90.00000000
_cell_angle_gamma   90.00000000
_symmetry_Int_Tables_number   1
_chemical_formula_structural   ZnH4C3N4O3
_chemical_formula_sum   'Zn8 H32 C24 N32 O24'
_cell_volume   1253.58345185
_cell_formula_units_Z   8
loop_
 _symmetry_equiv_pos_site_id
 _symmetry_equiv_pos_as_xyz
  1  'x, y, z'
loop_
 _atom_site_type_symbol
 _atom_site_label
 _atom_site_symmetry_multiplicity
 _atom_site_fract_x
 _atom_site_fract_y
 _atom_site_fract_z
 _atom_site_occupancy
 _atom_site_hle17_bader_spin_density
 _atom_site_hle17_ddec_charge
 _atom_site_hle17_ddec_spin_density
 _atom_site_hle17_ddec_sum_bond_order
 _atom_site_hle17_magmom
 _atom_site_hse06_10hf_bader_spin_density
 _atom_site_hse06_10hf_ddec_charge
 _atom_site_hse06_10hf_ddec_spin_density
 _atom_site_hse06_10hf_ddec_sum_bond_order
 _atom_site_hse06_10hf_magmom
 _atom_site_hse06_bader_spin_density
 _atom_site_hse06_ddec_charge
 _atom_site_hse06_ddec_spin_density
 _atom_site_hse06_ddec_sum_bond_order
 _atom_site_hse06_magmom
 _atom_site_pbe_bader_charge
 _atom_site_pbe_bader_spin_density
 _atom_site_pbe_cm5_charge
 _atom_site_pbe_ddec_charge
 _atom_site_pbe_ddec_spin_density
 _atom_site_pbe_ddec_sum_bond_order
 _atom_site_pbe_magmom
Zn  Zn0  1  0.12656263  0.50321378  0.71332903  1  0  1.033566  0  1.854614  0  0  0.844755  0  2.326076  0  0  0.889797  0  2.271517  0  1.311117  0  0.710761  0.813382  0  2.36376  0
Zn  Zn1  1  0.12656263  0.99678606  0.78667018  1  0  1.033518  0  1.854722  0  0  0.84471  0  2.326227  0  0  0.889755  0  2.271668  0  1.311176  0  0.710719  0.813314  0  2.363903  0
Zn  Zn2  1  0.62660319  0.28603711  0.00249772  1  0  1.034336  0  1.854731  0  0  0.84561  0  2.326561  0  0  0.890603  0  2.271838  0  1.311487  0  0.710572  0.814179  0  2.364325  0
Zn  Zn3  1  0.62660319  0.21396284  0.49750228  1  0  1.034356  0  1.854735  0  0  0.845641  0  2.326573  0  0  0.890633  0  2.271852  0  1.311484  0  0.710576  0.814209  0  2.364335  0
Zn  Zn4  1  0.87343915  0.49678689  0.28667254  1  0  1.033597  0  1.854749  0  0  0.844765  0  2.326242  0  0  0.889811  0  2.271677  0  1.31127  0  0.710765  0.813388  0  2.363927  0
Zn  Zn5  1  0.87343915  0.00321305  0.21332746  1  0  1.033582  0  1.854694  0  0  0.844723  0  2.326213  0  0  0.889768  0  2.27165  0  1.311287  0  0.710757  0.813341  0  2.363899  0
Zn  Zn6  1  0.37339338  0.71396122  0.99750307  1  0  1.034316  0  1.8547  0  0  0.845561  0  2.326534  0  0  0.890554  0  2.271813  0  1.311516  0  0.710552  0.814132  0  2.364293  0
Zn  Zn7  1  0.37339598  0.78603783  0.50249850  1  0  1.034295  0  1.854782  0  0  0.845561  0  2.326629  0  0  0.890554  0  2.27191  0  1.311498  0  0.710538  0.814127  0  2.364387  0
H  H8  1  0.85051538  0.41794285  0.60493956  1  0  0.40121  0  0.912147  0  0  0.356607  0  0.998713  0  0  0.368185  0  0.982198  0  0.62477  0  0.285851  0.348484  0  1.010276  0
H  H9  1  0.85051799  0.08205631  0.89506044  1  0  0.401175  0  0.912189  0  0  0.356544  0  0.998791  0  0  0.368123  0  0.982275  0  0.624831  0  0.28581  0.348421  0  1.010354  0
H  H10  1  0.35030962  0.39471272  0.91799160  1  0  0.401472  0  0.911984  0  0  0.356739  0  0.998731  0  0  0.368337  0  0.982174  0  0.623451  0  0.285793  0.348596  0  1.010328  0
H  H11  1  0.35030962  0.10528722  0.58200762  1  0  0.401489  0  0.911949  0  0  0.35676  0  0.998689  0  0  0.368358  0  0.982134  0  0.623449  0  0.285804  0.348619  0  1.010286  0
H  H12  1  0.14948379  0.58205704  0.39506044  1  0  0.401163  0  0.912189  0  0  0.35656  0  0.998759  0  0  0.368139  0  0.982243  0  0.624799  0  0.285824  0.348437  0  1.010322  0
H  H13  1  0.14948379  0.91794358  0.10493956  1  0  0.4011  0  0.91229  0  0  0.356489  0  0.998858  0  0  0.368069  0  0.982339  0  0.624802  0  0.285796  0.348366  0  1.01042  0
H  H14  1  0.64968565  0.60528795  0.08200840  1  0  0.401493  0  0.911956  0  0  0.356741  0  0.998733  0  0  0.368339  0  0.982177  0  0.623499  0  0.285775  0.348598  0  1.010331  0
H  H15  1  0.64968695  0.89471189  0.41799160  1  0  0.401492  0  0.91195  0  0  0.356748  0  0.998716  0  0  0.368346  0  0.982161  0  0.623468  0  0.285771  0.348606  0  1.010314  0
H  H16  1  0.01295844  0.34059585  0.60287387  1  0  0.403878  0  0.856425  0  0  0.376949  0  0.929814  0  0  0.38456  0  0.921489  0  0.588582  0  0.306272  0.37154  0  0.935796  0
H  H17  1  0.01295844  0.15940488  0.89712613  1  0  0.403748  0  0.856572  0  0  0.376889  0  0.929866  0  0  0.3845  0  0.92154  0  0.588577  0  0.306225  0.37148  0  0.935847  0
H  H18  1  0.51269591  0.39796474  0.83970459  1  0  0.404667  0  0.858728  0  0  0.377525  0  0.932178  0  0  0.385105  0  0.923921  0  0.58388  0  0.306408  0.37215  0  0.938074  0
H  H19  1  0.51269591  0.10203443  0.66029541  1  0  0.404667  0  0.858736  0  0  0.377523  0  0.932189  0  0  0.385104  0  0.923932  0  0.583887  0  0.306405  0.372149  0  0.938086  0
H  H20  1  0.98704204  0.65940482  0.39712613  1  0  0.40389  0  0.856372  0  0  0.376962  0  0.929759  0  0  0.384573  0  0.921432  0  0.588601  0  0.306267  0.371554  0  0.935742  0
H  H21  1  0.98704074  0.84059657  0.10287308  1  0  0.403899  0  0.856381  0  0  0.376944  0  0.929811  0  0  0.384556  0  0.921482  0  0.588585  0  0.30626  0.371536  0  0.935793  0
H  H22  1  0.48729936  0.60203671  0.16029620  1  0  0.404704  0  0.858636  0  0  0.377563  0  0.932078  0  0  0.385143  0  0.923823  0  0.583872  0  0.306416  0.372188  0  0.937977  0
H  H23  1  0.48729936  0.89796468  0.33970537  1  0  0.40471  0  0.858612  0  0  0.377575  0  0.932043  0  0  0.385155  0  0.923788  0  0.583876  0  0.306415  0.372201  0  0.937941  0
H  H24  1  0.80576052  0.76458528  0.58590607  1  0  0.155852  0  0.929847  0  0  0.162232  0  0.993999  0  0  0.166273  0  0.991051  0  0.131913  0  0.115976  0.159345  0  0.996158  0
H  H25  1  0.80575662  0.73541222  0.91409314  1  0  0.155903  0  0.92978  0  0  0.162238  0  0.993982  0  0  0.166277  0  0.991033  0  0.13186  0  0.115937  0.15935  0  0.996147  0
H  H26  1  0.30602174  0.41446484  0.26529636  1  0  0.15586  0  0.928939  0  0  0.162528  0  0.993279  0  0  0.166525  0  0.990363  0  0.135458  0  0.116067  0.159676  0  0.995416  0
H  H27  1  0.30602304  0.08553588  0.23470285  1  0  0.155843  0  0.928996  0  0  0.162533  0  0.993275  0  0  0.166534  0  0.990362  0  0.135457  0  0.116072  0.15968  0  0.995414  0
H  H28  1  0.19423995  0.23541149  0.41409314  1  0  0.155836  0  0.929799  0  0  0.162229  0  0.993943  0  0  0.166268  0  0.990997  0  0.131898  0  0.115965  0.159344  0  0.996103  0
H  H29  1  0.19424255  0.26459001  0.08590765  1  0  0.15585  0  0.929801  0  0  0.162252  0  0.993931  0  0  0.16629  0  0.990985  0  0.131856  0  0.115957  0.159366  0  0.996094  0
H  H30  1  0.69397873  0.58553505  0.73470285  1  0  0.155879  0  0.929024  0  0  0.162567  0  0.993323  0  0  0.166569  0  0.990413  0  0.135424  0  0.116057  0.159715  0  0.99546  0
H  H31  1  0.69398003  0.91446479  0.76529793  1  0  0.15588  0  0.929053  0  0  0.162564  0  0.993357  0  0  0.166571  0  0.990444  0  0.135649  0  0.116056  0.159707  0  0.995502  0
H  H32  1  0.96013267  0.84130106  0.65080660  1  0  0.156307  0  0.936262  0  0  0.164435  0  1.001092  0  0  0.167904  0  0.999031  0  0.138134  0  0.119538  0.16204  0  1.002544  0
H  H33  1  0.96012876  0.65869722  0.84919182  1  0  0.156368  0  0.936308  0  0  0.164452  0  1.001169  0  0  0.167917  0  0.999113  0  0.138065  0  0.11957  0.162065  0  1.00261  0
H  H34  1  0.46027682  0.35084129  0.34337877  1  0  0.154991  0  0.935304  0  0  0.163899  0  1.000102  0  0  0.167277  0  0.998147  0  0.140622  0  0.119505  0.161547  0  1.001492  0
H  H35  1  0.46027682  0.14915709  0.15662123  1  0  0.155005  0  0.935334  0  0  0.163907  0  1.000117  0  0  0.167282  0  0.998164  0  0.140617  0  0.119521  0.161554  0  1.001507  0
H  H36  1  0.03986781  0.15869805  0.34919261  1  0  0.156304  0  0.936175  0  0  0.164388  0  1.001063  0  0  0.167852  0  0.999009  0  0.138101  0  0.119548  0.162  0  1.002506  0
H  H37  1  0.03987171  0.34130345  0.15080896  1  0  0.15642  0  0.936299  0  0  0.164519  0  1.001125  0  0  0.167984  0  0.999069  0  0.13803  0  0.119622  0.162131  0  1.002568  0
H  H38  1  0.53972626  0.64915860  0.65662202  1  0  0.15501  0  0.935279  0  0  0.163885  0  1.000132  0  0  0.167268  0  0.998164  0  0.140619  0  0.119483  0.161528  0  1.001532  0
H  H39  1  0.53972496  0.85084046  0.84337798  1  0  0.155028  0  0.935292  0  0  0.163915  0  1.000123  0  0  0.167298  0  0.998158  0  0.140622  0  0.119492  0.161562  0  1.001513  0
C  C40  1  0.98945240  0.83739521  0.48483978  1  0  0.362279  0  3.729655  0  0  0.336563  0  4.001755  0  0  0.34843  0  4.018075  0  0.961054  0  0.226998  0.328559  0  3.990754  0
C  C41  1  0.98945370  0.66260463  0.01516179  1  0  0.362249  0  3.729834  0  0  0.336517  0  4.001942  0  0  0.348382  0  4.018264  0  0.961178  0  0.226932  0.328521  0  3.990944  0
C  C42  1  0.48952370  0.51523135  0.33800639  1  0  0.362139  0  3.728144  0  0  0.335841  0  4.001978  0  0  0.347687  0  4.018262  0  0.961527  0  0.227437  0.327832  0  3.991036  0
C  C43  1  0.48951720  0.98476537  0.16198968  1  0  0.362053  0  3.72833  0  0  0.335736  0  4.002183  0  0  0.347564  0  4.018497  0  0.961709  0  0.227345  0.327725  0  3.991241  0
C  C44  1  0.01054548  0.16260468  0.51515943  1  0  0.362212  0  3.729796  0  0  0.336518  0  4.001861  0  0  0.348383  0  4.018185  0  0.961053  0  0.226955  0.328513  0  3.990863  0
C  C45  1  0.01054548  0.33739682  0.98484293  1  0  0.362217  0  3.729841  0  0  0.336536  0  4.001894  0  0  0.3484  0  4.018219  0  0.96103  0  0.226944  0.328532  0  3.990898  0
C  C46  1  0.51047807  0.48476854  0.66199597  1  0  0.362131  0  3.728138  0  0  0.335857  0  4.001936  0  0  0.34768  0  4.018257  0  0.961407  0  0.227461  0.327857  0  3.99098  0
C  C47  1  0.51047677  0.01523062  0.83800324  1  0  0.362045  0  3.728217  0  0  0.335857  0  4.001951  0  0  0.347677  0  4.018277  0  0.96143  0  0.227473  0.327855  0  3.990996  0
C  C48  1  0.94388324  0.78537231  0.58564166  1  0  -0.379737  0  3.672681  0  0  -0.415377  0  3.912715  0  0  -0.423457  0  3.916676  0  -0.03622  0  -0.153681  -0.409685  0  3.909756  0
C  C49  1  0.94387804  0.71462519  0.91435834  1  0  -0.379864  0  3.672668  0  0  -0.415408  0  3.912684  0  0  -0.423482  0  3.916634  0  -0.036165  0  -0.153648  -0.409725  0  3.909738  0
C  C50  1  0.44410674  0.41490826  0.28638295  1  0  -0.378144  0  3.667668  0  0  -0.415487  0  3.910499  0  0  -0.423461  0  3.914344  0  -0.040914  0  -0.15362  -0.409885  0  3.907688  0
C  C51  1  0.44410674  0.08509480  0.21361941  1  0  -0.37819  0  3.667721  0  0  -0.415483  0  3.910418  0  0  -0.423454  0  3.914265  0  -0.040854  0  -0.153627  -0.409881  0  3.90761  0
C  C52  1  0.05611463  0.21462758  0.41435755  1  0  -0.379665  0  3.672571  0  0  -0.415261  0  3.912626  0  0  -0.423341  0  3.916591  0  -0.036016  0  -0.15364  -0.409571  0  3.909664  0
C  C53  1  0.05611723  0.28537470  0.08564324  1  0  -0.379837  0  3.672714  0  0  -0.415441  0  3.912722  0  0  -0.423518  0  3.916678  0  -0.035975  0  -0.153719  -0.409754  0  3.909763  0
C  C54  1  0.55590154  0.58509163  0.71361862  1  0  -0.378236  0  3.667721  0  0  -0.41553  0  3.91042  0  0  -0.423504  0  3.914277  0  -0.040792  0  -0.153625  -0.409934  0  3.90761  0
C  C55  1  0.55590284  0.91490821  0.78638138  1  0  -0.378274  0  3.667772  0  0  -0.415612  0  3.910506  0  0  -0.423593  0  3.914365  0  -0.041038  0  -0.153651  -0.410013  0  3.907702  0
C  C56  1  0.05404768  0.69178549  0.61730067  1  0  0.745185  0  3.784022  0  0  0.6909  0  4.082389  0  0  0.726205  0  4.074144  0  1.587586  0  0.222935  0.667015  0  4.087071  0
C  C57  1  0.05405288  0.80821201  0.88270090  1  0  0.745309  0  3.783928  0  0  0.69101  0  4.0823  0  0  0.726317  0  4.07405  0  1.587953  0  0.222977  0.667102  0  4.087006  0
C  C58  1  0.55425344  0.38270372  0.19210551  1  0  0.746011  0  3.783088  0  0  0.692355  0  4.081318  0  0  0.72763  0  4.073097  0  1.587077  0  0.222946  0.668391  0  4.086079  0
C  C59  1  0.55425344  0.11729622  0.30789449  1  0  0.746021  0  3.783265  0  0  0.692373  0  4.081452  0  0  0.727643  0  4.073234  0  1.587019  0  0.222933  0.66841  0  4.086214  0
C  C60  1  0.94596840  0.30821674  0.38268989  1  0  0.745098  0  3.784081  0  0  0.690783  0  4.082499  0  0  0.726093  0  4.074259  0  1.587676  0  0.222813  0.666892  0  4.087185  0
C  C61  1  0.94597230  0.19178320  0.11731011  1  0  0.744999  0  3.784064  0  0  0.690679  0  4.08249  0  0  0.725988  0  4.07425  0  1.587712  0  0.222768  0.666786  0  4.087176  0
C  C62  1  0.44573012  0.61729539  0.80789134  1  0  0.746132  0  3.783282  0  0  0.692445  0  4.081531  0  0  0.727716  0  4.073304  0  1.587133  0  0.223055  0.668481  0  4.086298  0
C  C63  1  0.44573272  0.88270445  0.69210787  1  0  0.746108  0  3.78342  0  0  0.69243  0  4.081682  0  0  0.727704  0  4.073452  0  1.587102  0  0.222964  0.668463  0  4.086447  0
N  N64  1  0.87559715  0.88624402  0.42189792  1  0  -0.289228  0  2.976638  0  0  -0.254896  0  3.238042  0  0  -0.266416  0  3.251233  0  -0.687738  0  -0.200382  -0.247198  0  3.229308  0
N  N65  1  0.87559455  0.61375581  0.07810208  1  0  -0.289251  0  2.976733  0  0  -0.254915  0  3.238142  0  0  -0.266436  0  3.251334  0  -0.687808  0  -0.200366  -0.247215  0  3.229404  0
N  N66  1  0.37548895  0.57846291  0.38601860  1  0  -0.290235  0  2.97987  0  0  -0.255581  0  3.241653  0  0  -0.267086  0  3.254866  0  -0.691912  0  -0.200416  -0.247894  0  3.232914  0
N  N67  1  0.37548895  0.92153771  0.11398297  1  0  -0.290097  0  2.980076  0  0  -0.255467  0  3.241861  0  0  -0.266969  0  3.255084  0  -0.69206  0  -0.200353  -0.247778  0  3.233121  0
N  N68  1  0.12439812  0.11375509  0.57810129  1  0  -0.289231  0  2.97677  0  0  -0.254888  0  3.23815  0  0  -0.26641  0  3.251345  0  -0.687739  0  -0.200353  -0.24719  0  3.229415  0
N  N69  1  0.12440072  0.38624486  0.92189949  1  0  -0.289289  0  2.976773  0  0  -0.254978  0  3.238171  0  0  -0.2665  0  3.251365  0  -0.687732  0  -0.200408  -0.247281  0  3.229437  0
N  N70  1  0.62451283  0.42153854  0.61398218  1  0  -0.29019  0  2.979833  0  0  -0.255546  0  3.241603  0  0  -0.267048  0  3.254827  0  -0.691894  0  -0.200381  -0.247863  0  3.232861  0
N  N71  1  0.62451413  0.07846063  0.88601860  1  0  -0.29017  0  2.979863  0  0  -0.255541  0  3.241597  0  0  -0.267041  0  3.25482  0  -0.691967  0  -0.200401  -0.247857  0  3.232855  0
N  N72  1  0.97173048  0.92329425  0.34158220  1  0  -0.122281  0  3.255666  0  0  -0.068758  0  3.569076  0  0  -0.076689  0  3.579455  0  -0.226614  0  -0.111322  -0.063334  0  3.562156  0
N  N73  1  0.97172788  0.57670637  0.15841780  1  0  -0.122255  0  3.25582  0  0  -0.068736  0  3.569229  0  0  -0.076666  0  3.579607  0  -0.22644  0  -0.111317  -0.06331  0  3.562307  0
N  N74  1  0.47164179  0.65837381  0.42261009  1  0  -0.123384  0  3.256712  0  0  -0.069819  0  3.570313  0  0  -0.077755  0  3.580647  0  -0.224177  0  -0.111544  -0.064395  0  3.563435  0
N  N75  1  0.47164049  0.84162525  0.07738912  1  0  -0.123349  0  3.256588  0  0  -0.069754  0  3.570155  0  0  -0.077691  0  3.580489  0  -0.224186  0  -0.111486  -0.064328  0  3.563275  0
N  N76  1  0.02826479  0.07670409  0.65841622  1  0  -0.12233  0  3.255692  0  0  -0.068826  0  3.56912  0  0  -0.076758  0  3.579501  0  -0.226508  0  -0.11137  -0.063401  0  3.562201  0
N  N77  1  0.02826739  0.42329508  0.84158535  1  0  -0.122225  0  3.255624  0  0  -0.068698  0  3.56903  0  0  -0.07663  0  3.579414  0  -0.226533  0  -0.111288  -0.063275  0  3.56211  0
N  N78  1  0.52835868  0.34162686  0.57738991  1  0  -0.123375  0  3.256705  0  0  -0.069811  0  3.570313  0  0  -0.077748  0  3.580648  0  -0.224104  0  -0.111545  -0.064387  0  3.563436  0
N  N79  1  0.52835999  0.15837231  0.92261009  1  0  -0.123302  0  3.256586  0  0  -0.0697  0  3.570133  0  0  -0.077637  0  3.580469  0  -0.224076  0  -0.111476  -0.064276  0  3.563255  0
N  N80  1  0.13664112  0.89894037  0.35277550  1  0  -0.052819  0  2.933776  0  0  -0.056011  0  3.213801  0  0  -0.052346  0  3.226092  0  -0.09291  0  -0.091269  -0.058258  0  3.205577  0
N  N81  1  0.13663852  0.60106103  0.14722371  1  0  -0.052779  0  2.933862  0  0  -0.055962  0  3.213862  0  0  -0.052297  0  3.226151  0  -0.093046  0  -0.091233  -0.058203  0  3.205649  0
N  N82  1  0.63676754  0.64661496  0.39881488  1  0  -0.052523  0  2.932559  0  0  -0.055541  0  3.212392  0  0  -0.051834  0  3.224574  0  -0.09303  0  -0.090964  -0.05782  0  3.204243  0
N  N83  1  0.63676754  0.85338487  0.10118354  1  0  -0.052674  0  2.932433  0  0  -0.055719  0  3.212272  0  0  -0.05201  0  3.224454  0  -0.092965  0  -0.091046  -0.058  0  3.204124  0
N  N84  1  0.86335545  0.10105874  0.64722371  1  0  -0.052652  0  2.933597  0  0  -0.055845  0  3.213631  0  0  -0.05218  0  3.225923  0  -0.092928  0  -0.091166  -0.058098  0  3.205414  0
N  N85  1  0.86335805  0.39893964  0.85277708  1  0  -0.052715  0  2.933742  0  0  -0.055923  0  3.213789  0  0  -0.052259  0  3.226082  0  -0.093007  0  -0.091231  -0.058171  0  3.205569  0
N  N86  1  0.36323164  0.35338648  0.60118590  1  0  -0.052628  0  2.932606  0  0  -0.055652  0  3.212441  0  0  -0.051945  0  3.224623  0  -0.092974  0  -0.09101  -0.057932  0  3.204294  0
N  N87  1  0.36323034  0.14661268  0.89881331  1  0  -0.052732  0  2.932325  0  0  -0.055746  0  3.212202  0  0  -0.05204  0  3.224385  0  -0.092964  0  -0.091073  -0.058025  0  3.204054  0
N  N88  1  0.15043206  0.84510638  0.44266423  1  0  -0.349531  0  3.235653  0  0  -0.281694  0  3.539558  0  0  -0.299487  0  3.549405  0  -0.741527  0  -0.237969  -0.269802  0  3.532992  0
N  N89  1  0.15042946  0.65489502  0.05733577  1  0  -0.349546  0  3.235833  0  0  -0.281699  0  3.539736  0  0  -0.299493  0  3.549584  0  -0.741702  0  -0.237986  -0.269834  0  3.533195  0
N  N90  1  0.65064823  0.55678280  0.34584028  1  0  -0.348998  0  3.235103  0  0  -0.281144  0  3.539311  0  0  -0.298893  0  3.549143  0  -0.744103  0  -0.238529  -0.269277  0  3.532752  0
N  N91  1  0.65064563  0.94321859  0.15415893  1  0  -0.348891  0  3.234946  0  0  -0.280998  0  3.53909  0  0  -0.298742  0  3.548927  0  -0.74416  0  -0.238472  -0.26913  0  3.532532  0
N  N92  1  0.84956581  0.15489429  0.55733341  1  0  -0.349596  0  3.235779  0  0  -0.281762  0  3.539661  0  0  -0.299556  0  3.549509  0  -0.741577  0  -0.238013  -0.269867  0  3.533092  0
N  N93  1  0.84956711  0.34510487  0.94266738  1  0  -0.349537  0  3.235905  0  0  -0.281699  0  3.539776  0  0  -0.299494  0  3.549625  0  -0.741458  0  -0.237932  -0.26981  0  3.53321  0
N  N94  1  0.34935224  0.44321787  0.65415972  1  0  -0.348927  0  3.23506  0  0  -0.281064  0  3.539231  0  0  -0.298808  0  3.549073  0  -0.744113  0  -0.23852  -0.269201  0  3.532669  0
N  N95  1  0.34935224  0.05678052  0.84583871  1  0  -0.348794  0  3.234868  0  0  -0.281037  0  3.539115  0  0  -0.298779  0  3.548954  0  -0.744252  0  -0.238507  -0.269172  0  3.532552  0
O  O96  1  0.21085620  0.68210269  0.58955271  1  0  -0.645  0  2.057598  0  0  -0.582305  0  2.329984  0  0  -0.609393  0  2.317174  0  -1.192164  0  -0.310985  -0.563347  0  2.338026  0
O  O97  1  0.21084189  0.81789636  0.91044729  1  0  -0.644956  0  2.057901  0  0  -0.582267  0  2.330311  0  0  -0.609348  0  2.317491  0  -1.192427  0  -0.310961  -0.56332  0  2.338372  0
O  O98  1  0.71068083  0.41082006  0.18161337  1  0  -0.645862  0  2.055439  0  0  -0.582785  0  2.326587  0  0  -0.609821  0  2.31364  0  -1.190891  0  -0.311237  -0.563921  0  2.334877  0
O  O99  1  0.71067433  0.08917989  0.31838663  1  0  -0.645839  0  2.055518  0  0  -0.582799  0  2.326708  0  0  -0.609833  0  2.31376  0  -1.190875  0  -0.311229  -0.563935  0  2.335  0
O  O100  1  0.78913777  0.31790109  0.41044887  1  0  -0.645069  0  2.057027  0  0  -0.582375  0  2.329452  0  0  -0.609453  0  2.316601  0  -1.192242  0  -0.311003  -0.563414  0  2.337497  0
O  O101  1  0.78914037  0.18209963  0.08955192  1  0  -0.645006  0  2.056996  0  0  -0.582325  0  2.329444  0  0  -0.609393  0  2.316573  0  -1.19222  0  -0.310976  -0.563363  0  2.337486  0
O  O102  1  0.28934046  0.58918918  0.81838585  1  0  -0.645544  0  2.056237  0  0  -0.582561  0  2.327507  0  0  -0.609585  0  2.314554  0  -1.190889  0  -0.311138  -0.563687  0  2.335766  0
O  O103  1  0.28934306  0.91081455  0.68161179  1  0  -0.645617  0  2.056197  0  0  -0.58259  0  2.327398  0  0  -0.60961  0  2.31444  0  -1.190841  0  -0.311149  -0.563735  0  2.335702  0
O  O104  1  0.98137451  0.41394505  0.60277550  1  0  -0.795625  0  1.962799  0  0  -0.736084  0  2.190535  0  0  -0.755567  0  2.160038  0  -1.198144  0  -0.568949  -0.722311  0  2.211544  0
O  O105  1  0.98137711  0.08605412  0.89722450  1  0  -0.795422  0  1.962954  0  0  -0.735919  0  2.19059  0  0  -0.755412  0  2.160111  0  -1.198157  0  -0.568857  -0.722149  0  2.211604  0
O  O106  1  0.48119346  0.39616845  0.91374847  1  0  -0.797407  0  1.963924  0  0  -0.737325  0  2.191649  0  0  -0.756821  0  2.161101  0  -1.192235  0  -0.570032  -0.723586  0  2.212784  0
O  O107  1  0.48119216  0.10383227  0.58625075  1  0  -0.797428  0  1.963943  0  0  -0.737358  0  2.191665  0  0  -0.756852  0  2.161119  0  -1.192229  0  -0.570039  -0.723616  0  2.212801  0
O  O108  1  0.01862336  0.58605562  0.39722450  1  0  -0.795551  0  1.962779  0  0  -0.735981  0  2.190457  0  0  -0.755488  0  2.160008  0  -1.198049  0  -0.5689  -0.722208  0  2.211466  0
O  O109  1  0.01862206  0.91394499  0.10277550  1  0  -0.795516  0  1.962829  0  0  -0.735902  0  2.190574  0  0  -0.755406  0  2.16012  0  -1.198028  0  -0.568865  -0.72213  0  2.211585  0
O  O110  1  0.51880311  0.60383144  0.08624996  1  0  -0.797454  0  1.963831  0  0  -0.737361  0  2.191581  0  0  -0.756856  0  2.161032  0  -1.1923  0  -0.570016  -0.723621  0  2.212718  0
O  O111  1  0.51880441  0.89616840  0.41375083  1  0  -0.797461  0  1.963801  0  0  -0.73738  0  2.191543  0  0  -0.756873  0  2.160994  0  -1.192305  0  -0.570013  -0.72364  0  2.212681  0
O  O112  1  0.97760223  0.62571650  0.67736079  1  0  -0.623764  0  2.027181  0  0  -0.536898  0  2.276059  0  0  -0.567742  0  2.264603  0  -1.168057  0  -0.313113  -0.515918  0  2.283841  0
O  O113  1  0.97759703  0.87428646  0.82263685  1  0  -0.623967  0  2.026907  0  0  -0.537076  0  2.275755  0  0  -0.567931  0  2.264309  0  -1.168283  0  -0.313158  -0.516009  0  2.283457  0
O  O114  1  0.47809239  0.32196436  0.12649438  1  0  -0.623267  0  2.025714  0  0  -0.537276  0  2.274932  0  0  -0.567786  0  2.263116  0  -1.166011  0  -0.313033  -0.516161  0  2.282573  0
O  O115  1  0.47809239  0.17803481  0.37350404  1  0  -0.623264  0  2.025724  0  0  -0.537284  0  2.274927  0  0  -0.567793  0  2.263114  0  -1.166211  0  -0.313035  -0.516174  0  2.282577  0
O  O116  1  0.02239694  0.37428183  0.32263921  1  0  -0.623635  0  2.027613  0  0  -0.53678  0  2.276541  0  0  -0.567622  0  2.265089  0  -1.168307  0  -0.313033  -0.515786  0  2.284308  0
O  O117  1  0.02239564  0.12571967  0.17736315  1  0  -0.62361  0  2.0277  0  0  -0.536744  0  2.276605  0  0  -0.567588  0  2.265153  0  -1.168524  0  -0.313024  -0.515743  0  2.284366  0
O  O118  1  0.52191459  0.67803631  0.87350955  1  0  -0.623613  0  2.025154  0  0  -0.537543  0  2.274316  0  0  -0.568058  0  2.2625  0  -1.16596  0  -0.313229  -0.516417  0  2.281957  0
O  O119  1  0.52191589  0.82196041  0.62649045  1  0  -0.623489  0  2.025441  0  0  -0.537452  0  2.274631  0  0  -0.567972  0  2.262819  0  -1.1662  0  -0.313122  -0.516321  0  2.28227  0
