# generated using pymatgen
data_ZnH20C24N6Cl2O3
_symmetry_space_group_name_H-M   'P 1'
_cell_length_a   9.41257743
_cell_length_b   10.47743112
_cell_length_c   31.53866640
_cell_angle_alpha   93.73993313
_cell_angle_beta   90.00008419
_cell_angle_gamma   89.99983555
_symmetry_Int_Tables_number   1
_chemical_formula_structural   ZnH20C24N6Cl2O3
_chemical_formula_sum   'Zn4 H80 C96 N24 Cl8 O12'
_cell_volume   3103.70789809
_cell_formula_units_Z   4
loop_
 _symmetry_equiv_pos_site_id
 _symmetry_equiv_pos_as_xyz
  1  'x, y, z'
loop_
 _atom_site_type_symbol
 _atom_site_label
 _atom_site_symmetry_multiplicity
 _atom_site_fract_x
 _atom_site_fract_y
 _atom_site_fract_z
 _atom_site_occupancy
 _atom_site_pbe_bader_charge
 _atom_site_pbe_bader_spin_density
 _atom_site_pbe_cm5_charge
 _atom_site_pbe_ddec_charge
 _atom_site_pbe_ddec_spin_density
 _atom_site_pbe_ddec_sum_bond_order
 _atom_site_pbe_magmom
Zn  Zn0  1  0.77045498  0.55330530  0.23603264  1  1.12135  0  0.534419  0.620853  0  2.708195  0
Zn  Zn1  1  0.27045429  0.94668923  0.26396618  1  1.121387  0  0.534444  0.620924  0  2.708279  0
Zn  Zn2  1  0.22954720  0.44668573  0.76396850  1  1.121394  0  0.53441  0.620883  0  2.708185  0
Zn  Zn3  1  0.72954789  0.05331139  0.73603138  1  1.12129  0  0.534449  0.620895  0  2.708286  0
H  H4  1  0.61784466  0.29758534  0.22515259  1  0.100842  0  0.096741  0.07124  0  1.06807  0
H  H5  1  0.11783523  0.20241133  0.27484631  1  0.100718  0  0.09671  0.071136  0  1.068123  0
H  H6  1  0.38215752  0.70240570  0.77484791  1  0.100683  0  0.096705  0.07118  0  1.068024  0
H  H7  1  0.88215845  0.79759028  0.72514714  1  0.100583  0  0.09671  0.071141  0  1.068054  0
H  H8  1  0.59781762  0.09636289  0.26685847  1  0.147429  0  0.090552  0.108776  0  1.066044  0
H  H9  1  0.09780948  0.40363383  0.23313980  1  0.147401  0  0.090567  0.108775  0  1.066082  0
H  H10  1  0.40217712  0.90363577  0.73314475  1  0.147404  0  0.090544  0.108706  0  1.066085  0
H  H11  1  0.90219376  0.59636968  0.76685497  1  0.147291  0  0.090537  0.108755  0  1.066167  0
H  H12  1  0.75378146  0.07493910  0.32894846  1  0.162285  0  0.115962  0.138385  0  1.010281  0
H  H13  1  0.25377827  0.42505626  0.17105111  1  0.162327  0  0.11596  0.138367  0  1.010221  0
H  H14  1  0.24620903  0.92505956  0.67105603  1  0.162619  0  0.115939  0.138441  0  1.010168  0
H  H15  1  0.74623773  0.57493862  0.82894568  1  0.162145  0  0.115958  0.138461  0  1.010244  0
H  H16  1  0.94113440  0.43907741  0.30314325  1  0.102273  0  0.117931  0.095068  0  0.988343  0
H  H17  1  0.44112716  0.06091556  0.19685667  1  0.102282  0  0.117934  0.095061  0  0.988332  0
H  H18  1  0.05887522  0.56091172  0.69685563  1  0.102154  0  0.11796  0.09513  0  0.988329  0
H  H19  1  0.55887502  0.93908027  0.80314204  1  0.102338  0  0.117934  0.095076  0  0.988339  0
H  H20  1  0.01645520  0.93486206  0.42517423  1  0.118429  0  0.107348  0.122463  0  1.014598  0
H  H21  1  0.51644976  0.56514646  0.07483050  1  0.118235  0  0.107378  0.122567  0  1.014537  0
H  H22  1  0.98355867  0.06512515  0.57482556  1  0.118423  0  0.107433  0.122596  0  1.014517  0
H  H23  1  0.48353968  0.43485132  0.92516382  1  0.1191  0  0.107348  0.122514  0  1.014627  0
H  H24  1  0.12285996  0.81466895  0.48283163  1  0.080518  0  0.096067  0.091222  0  1.02713  0
H  H25  1  0.62285068  0.68534886  0.01717430  1  0.080381  0  0.096055  0.091213  0  1.02704  0
H  H26  1  0.87715284  0.18532780  0.51717122  1  0.080539  0  0.096061  0.091218  0  1.02711  0
H  H27  1  0.37714619  0.31465082  0.98282133  1  0.080297  0  0.096034  0.091215  0  1.027063  0
H  H28  1  0.30224224  0.91806094  0.53200400  1  0.092959  0  0.104239  0.108022  0  0.990072  0
H  H29  1  0.80225140  0.58197053  0.96800514  1  0.092925  0  0.104242  0.107977  0  0.990187  0
H  H30  1  0.69774613  0.08195300  0.46800337  1  0.092891  0  0.104277  0.108049  0  0.990214  0
H  H31  1  0.19775928  0.41803486  0.03199411  1  0.092992  0  0.104273  0.108077  0  0.990229  0
H  H32  1  0.38128130  0.14280133  0.52160107  1  0.156632  0  0.111133  0.13801  0  1.025333  0
H  H33  1  0.88129496  0.35722787  0.97840689  1  0.157331  0  0.111012  0.137823  0  1.025432  0
H  H34  1  0.61870388  0.85721452  0.47840697  1  0.156767  0  0.111063  0.13791  0  1.025294  0
H  H35  1  0.11872104  0.64277943  0.02159304  1  0.156993  0  0.110966  0.137726  0  1.025598  0
H  H36  1  0.10714683  0.29032176  0.53053820  1  0.086641  0  0.107079  0.120235  0  1.017085  0
H  H37  1  0.60714072  0.20971582  0.96946538  1  0.086555  0  0.107009  0.120107  0  1.017009  0
H  H38  1  0.89284261  0.70968361  0.46946294  1  0.086527  0  0.107084  0.120213  0  1.017038  0
H  H39  1  0.39285190  0.79029817  0.03053628  1  0.086609  0  0.107081  0.120252  0  1.016933  0
H  H40  1  0.06324368  0.48424240  0.57893539  1  0.046966  0  0.092326  0.089222  0  1.005738  0
H  H41  1  0.56321776  0.01579913  0.92106636  1  0.04674  0  0.092375  0.089257  0  1.005728  0
H  H42  1  0.93676488  0.51575625  0.42106909  1  0.047105  0  0.092381  0.089241  0  1.005785  0
H  H43  1  0.43676105  0.98422348  0.07893391  1  0.046994  0  0.092348  0.089204  0  1.005825  0
H  H44  1  0.18591748  0.69018533  0.56515906  1  0.071222  0  0.092211  0.091871  0  1.049685  0
H  H45  1  0.68588539  0.80984747  0.93483864  1  0.07128  0  0.092175  0.091798  0  1.049411  0
H  H46  1  0.81410914  0.30980756  0.43484910  1  0.071063  0  0.092206  0.091973  0  1.049656  0
H  H47  1  0.31409024  0.19017037  0.06515867  1  0.071402  0  0.09219  0.091852  0  1.049494  0
H  H48  1  0.34537204  0.70131068  0.50267779  1  0.106845  0  0.106061  0.122023  0  1.043777  0
H  H49  1  0.84535091  0.79870642  0.99731867  1  0.107064  0  0.106035  0.12191  0  1.043831  0
H  H50  1  0.65464608  0.29868604  0.49732950  1  0.10725  0  0.106126  0.122163  0  1.04364  0
H  H51  1  0.15462577  0.20129612  0.00267797  1  0.107036  0  0.106097  0.122033  0  1.043722  0
H  H52  1  0.68449559  0.78139067  0.41175221  1  0.093597  0  0.112969  0.124058  0  1.022622  0
H  H53  1  0.18448734  0.71861652  0.08824591  1  0.093555  0  0.113003  0.124099  0  1.022581  0
H  H54  1  0.31550127  0.21861566  0.58824896  1  0.093707  0  0.112966  0.123964  0  1.022682  0
H  H55  1  0.81551166  0.28138602  0.91175201  1  0.093561  0  0.112966  0.124015  0  1.022605  0
H  H56  1  0.85107562  0.88321078  0.36205818  1  0.161308  0  0.10654  0.126797  0  1.031772  0
H  H57  1  0.35106686  0.61679408  0.13793869  1  0.161725  0  0.106575  0.126814  0  1.031739  0
H  H58  1  0.14891700  0.11679461  0.63794075  1  0.161531  0  0.106556  0.126782  0  1.031794  0
H  H59  1  0.64892789  0.38320558  0.86205980  1  0.161443  0  0.10654  0.126814  0  1.031707  0
H  H60  1  0.88077096  0.78606939  0.28793490  1  0.133791  0  0.101873  0.086891  0  1.044063  0
H  H61  1  0.38075907  0.71392966  0.21206153  1  0.129307  0  0.101904  0.086959  0  1.043943  0
H  H62  1  0.11922591  0.21392164  0.71206593  1  0.133483  0  0.101894  0.086927  0  1.044132  0
H  H63  1  0.61923355  0.28607766  0.78793585  1  0.129103  0  0.101918  0.086984  0  1.044037  0
H  H64  1  0.57872878  0.50809004  0.30827551  1  0.050155  0  0.115048  0.089934  0  0.997827  0
H  H65  1  0.07872973  0.99191359  0.19172216  1  0.050125  0  0.115057  0.089916  0  0.997733  0
H  H66  1  0.42128296  0.49189234  0.69173020  1  0.050201  0  0.115119  0.090024  0  0.997824  0
H  H67  1  0.92127671  0.00809757  0.80827309  1  0.050109  0  0.115088  0.090012  0  0.997872  0
H  H68  1  0.03717614  0.31886639  0.35370776  1  0.429917  0  0.326734  0.278395  0  0.923047  0
H  H69  1  0.53717493  0.18113142  0.14629304  1  0.429914  0  0.326718  0.278353  0  0.923133  0
H  H70  1  0.96282285  0.68112751  0.64629377  1  0.429876  0  0.32671  0.278339  0  0.923119  0
H  H71  1  0.46283256  0.81886251  0.85370341  1  0.429667  0  0.326766  0.27836  0  0.923163  0
H  H72  1  0.14507030  0.26240884  0.40731218  1  0.461669  0  0.318706  0.267335  0  0.959845  0
H  H73  1  0.64507821  0.23759825  0.09269014  1  0.46206  0  0.318721  0.267339  0  0.959915  0
H  H74  1  0.85493189  0.73758696  0.59268970  1  0.461638  0  0.318738  0.267423  0  0.959678  0
H  H75  1  0.35492716  0.76240429  0.90730682  1  0.461973  0  0.318797  0.26742  0  0.95981  0
H  H76  1  0.41778182  0.41060258  0.43231539  1  0.46093  0  0.320165  0.272051  0  0.963705  0
H  H77  1  0.91777733  0.08940767  0.06768459  1  0.460817  0  0.320179  0.272105  0  0.963606  0
H  H78  1  0.58222142  0.58939704  0.56768911  1  0.460906  0  0.320146  0.272135  0  0.963551  0
H  H79  1  0.08221635  0.91059008  0.93231290  1  0.460767  0  0.320141  0.272083  0  0.963632  0
H  H80  1  0.50170971  0.47689689  0.37522117  1  0.446446  0  0.326636  0.279098  0  0.924185  0
H  H81  1  0.00170118  0.02310581  0.12477719  1  0.446396  0  0.32667  0.279158  0  0.924141  0
H  H82  1  0.49831053  0.52309027  0.62478528  1  0.446233  0  0.326645  0.279238  0  0.924065  0
H  H83  1  0.99830206  0.97689962  0.87521730  1  0.446363  0  0.326655  0.279102  0  0.924348  0
C  C84  1  0.68630741  0.27963217  0.25201589  1  0.472749  0  0.021916  0.043952  0  3.972673  0
C  C85  1  0.18629779  0.22036241  0.24798268  1  0.472934  0  0.021977  0.044177  0  3.972527  0
C  C86  1  0.31369584  0.72035982  0.74798432  1  0.472793  0  0.022004  0.044136  0  3.972525  0
C  C87  1  0.81370545  0.77963440  0.75201256  1  0.472775  0  0.02191  0.044092  0  3.972561  0
C  C88  1  0.67476032  0.17171477  0.27531485  1  -0.062479  0  -0.087751  -0.104852  0  3.984456  0
C  C89  1  0.17475237  0.32828462  0.22468414  1  -0.062479  0  -0.087805  -0.104968  0  3.984625  0
C  C90  1  0.32523655  0.82828295  0.72468739  1  -0.062426  0  -0.087758  -0.104777  0  3.984596  0
C  C91  1  0.82524556  0.67171410  0.77531179  1  -0.062719  0  -0.087776  -0.104934  0  3.984742  0
C  C92  1  0.76195227  0.15830779  0.31039583  1  0.007025  0  -0.070109  -0.11713  0  3.880246  0
C  C93  1  0.26194624  0.34168754  0.18960407  1  0.007056  0  -0.070096  -0.117016  0  3.880257  0
C  C94  1  0.23804141  0.84168992  0.68960737  1  0.006786  0  -0.070085  -0.117276  0  3.880315  0
C  C95  1  0.73806126  0.65830734  0.81039368  1  0.00741  0  -0.070004  -0.117039  0  3.880246  0
C  C96  1  0.86120870  0.25524715  0.32126506  1  0.337878  0  0.104684  0.216977  0  4.054111  0
C  C97  1  0.36120398  0.24474985  0.17873365  1  0.337274  0  0.104744  0.217046  0  4.054021  0
C  C98  1  0.13879348  0.74474579  0.67873581  1  0.33769  0  0.104797  0.217178  0  4.054048  0
C  C99  1  0.63880245  0.75524982  0.82126230  1  0.338151  0  0.104696  0.216922  0  4.054239  0
C  C100  1  0.86667350  0.36040158  0.29593432  1  0.497308  0  0.033741  -0.037004  0  3.944958  0
C  C101  1  0.36666605  0.13959351  0.20406371  1  0.496852  0  0.033688  -0.037001  0  3.944841  0
C  C102  1  0.13333718  0.63958755  0.70406488  1  0.497434  0  0.03369  -0.037025  0  3.944846  0
C  C103  1  0.63333719  0.86040427  0.79593061  1  0.496397  0  0.033703  -0.037022  0  3.944972  0
C  C104  1  0.96603682  0.16471313  0.38552489  1  1.826239  0  0.334763  0.638721  0  4.199901  0
C  C105  1  0.46603682  0.33528742  0.11447616  1  1.826325  0  0.33485  0.638855  0  4.199875  0
C  C106  1  0.03396005  0.83527981  0.61447661  1  1.826113  0  0.334784  0.638716  0  4.200053  0
C  C107  1  0.53396324  0.66471130  0.88552008  1  1.826171  0  0.334795  0.638832  0  4.199764  0
C  C108  1  0.13500112  0.10644052  0.44191848  1  0.351223  0  0.092669  0.160497  0  4.040314  0
C  C109  1  0.63500094  0.39356946  0.05808422  1  0.350238  0  0.092631  0.160493  0  4.040446  0
C  C110  1  0.86500212  0.89355434  0.55808211  1  0.350379  0  0.09264  0.160569  0  4.040547  0
C  C111  1  0.36500337  0.60643403  0.94191277  1  0.350114  0  0.092615  0.160533  0  4.040378  0
C  C112  1  0.09466967  0.97941599  0.44671431  1  0.043125  0  -0.091509  -0.157425  0  3.964195  0
C  C113  1  0.59466108  0.52059521  0.05328892  1  0.043933  0  -0.091486  -0.157626  0  3.964199  0
C  C114  1  0.90533994  0.02057790  0.55328689  1  0.042527  0  -0.091581  -0.157578  0  3.964223  0
C  C115  1  0.40533260  0.47940257  0.94670508  1  0.042444  0  -0.091409  -0.157479  0  3.964069  0
C  C116  1  0.15515382  0.91315548  0.47908342  1  -0.034205  0  -0.092141  -0.075894  0  4.034791  0
C  C117  1  0.65515336  0.58686511  0.02092354  1  -0.034602  0  -0.092173  -0.075683  0  4.034775  0
C  C118  1  0.84484730  0.08684509  0.52092111  1  -0.033314  0  -0.092135  -0.075817  0  4.034721  0
C  C119  1  0.34484563  0.41313553  0.97907211  1  -0.03435  0  -0.092153  -0.07574  0  4.034896  0
C  C120  1  0.25659891  0.97030359  0.50653121  1  -0.022957  0  -0.09162  -0.06806  0  4.009713  0
C  C121  1  0.75659880  0.52971844  0.99347610  1  -0.022977  0  -0.091637  -0.068262  0  4.009737  0
C  C122  1  0.74339689  0.02969984  0.49347401  1  -0.023069  0  -0.0916  -0.068153  0  4.009723  0
C  C123  1  0.24341082  0.47028600  0.00652249  1  -0.022786  0  -0.091603  -0.068293  0  4.010048  0
C  C124  1  0.29970962  0.09590970  0.50157096  1  -0.090331  0  -0.098301  -0.187996  0  4.003734  0
C  C125  1  0.79971579  0.40410921  0.99843420  1  -0.09067  0  -0.098115  -0.187571  0  4.00342  0
C  C126  1  0.70028087  0.90409565  0.49843400  1  -0.09041  0  -0.098237  -0.187741  0  4.00343  0
C  C127  1  0.20029383  0.59589523  0.00156471  1  -0.09018  0  -0.098054  -0.187404  0  4.00352  0
C  C128  1  0.23736839  0.16244550  0.46974770  1  0.370832  0  0.069196  0.145794  0  4.018834  0
C  C129  1  0.73737780  0.33757568  0.03025752  1  0.371281  0  0.069234  0.145794  0  4.019167  0
C  C130  1  0.76262105  0.83755603  0.53025590  1  0.371294  0  0.069132  0.145643  0  4.018945  0
C  C131  1  0.26262650  0.66242972  0.96974046  1  0.371281  0  0.069132  0.145635  0  4.019025  0
C  C132  1  0.24929786  0.38827740  0.49049108  1  0.399955  0  0.075768  0.159909  0  4.015023  0
C  C133  1  0.74929621  0.11174570  0.00950943  1  0.400832  0  0.075756  0.159664  0  4.015493  0
C  C134  1  0.75069688  0.61172413  0.50951283  1  0.40086  0  0.075738  0.159813  0  4.015333  0
C  C135  1  0.25069641  0.88825874  0.99048821  1  0.40033  0  0.075829  0.15994  0  4.01507  0
C  C136  1  0.15803709  0.38098201  0.52486760  1  0.015873  0  -0.107418  -0.198185  0  4.038398  0
C  C137  1  0.65802173  0.11904780  0.97513425  1  0.014841  0  -0.107436  -0.19802  0  4.038232  0
C  C138  1  0.84196084  0.61901952  0.47513568  1  0.015061  0  -0.107418  -0.198072  0  4.038403  0
C  C139  1  0.34197195  0.88096621  0.02486424  1  0.015319  0  -0.107558  -0.198347  0  4.03827  0
C  C140  1  0.13424647  0.49027775  0.55181369  1  -0.035245  0  -0.107062  -0.083289  0  4.071556  0
C  C141  1  0.63422920  0.00976074  0.94818613  1  -0.035267  0  -0.107066  -0.083225  0  4.071758  0
C  C142  1  0.86575677  0.50972569  0.44818964  1  -0.035307  0  -0.10715  -0.083318  0  4.071689  0
C  C143  1  0.36575279  0.99025517  0.05181367  1  -0.03525  0  -0.107007  -0.083156  0  4.071382  0
C  C144  1  0.20203004  0.60485350  0.54409443  1  -0.074484  0  -0.113351  -0.107968  0  4.074749  0
C  C145  1  0.70200735  0.89517639  0.95590416  1  -0.074029  0  -0.113153  -0.107804  0  4.074638  0
C  C146  1  0.79798489  0.39514323  0.45591128  1  -0.074262  0  -0.113351  -0.108133  0  4.074718  0
C  C147  1  0.29797252  0.10483762  0.04409433  1  -0.074414  0  -0.113249  -0.107873  0  4.074432  0
C  C148  1  0.29222947  0.61267523  0.50917455  1  0.023261  0  -0.104867  -0.1811  0  3.991332  0
C  C149  1  0.79220803  0.88734486  0.99082386  1  0.023633  0  -0.104868  -0.180953  0  3.991373  0
C  C150  1  0.70778758  0.38732150  0.49083179  1  0.023484  0  -0.104837  -0.181201  0  3.991315  0
C  C151  1  0.20777928  0.11266246  0.00917290  1  0.023279  0  -0.104894  -0.181123  0  3.991363  0
C  C152  1  0.31576404  0.50452499  0.48165623  1  0.344353  0  0.085771  0.159373  0  4.035173  0
C  C153  1  0.81575591  0.99549334  0.01834283  1  0.343854  0  0.085636  0.159205  0  4.035394  0
C  C154  1  0.68423495  0.49547654  0.51834769  1  0.344009  0  0.085702  0.159378  0  4.035348  0
C  C155  1  0.18423246  0.00451015  0.98165510  1  0.344452  0  0.085662  0.159347  0  4.035235  0
C  C156  1  0.47145225  0.60082774  0.42802948  1  1.848527  0  0.335889  0.640893  0  4.178417  0
C  C157  1  0.97144149  0.89917967  0.07196940  1  1.848775  0  0.335863  0.640877  0  4.178737  0
C  C158  1  0.52855205  0.39917475  0.57197446  1  1.848724  0  0.335961  0.641064  0  4.178184  0
C  C159  1  0.02855325  0.10082190  0.92802881  1  1.849367  0  0.335901  0.641059  0  4.178529  0
C  C160  1  0.62046330  0.63442516  0.36413295  1  0.312891  0  0.104204  0.218992  0  4.054542  0
C  C161  1  0.12045587  0.86557454  0.13586465  1  0.312529  0  0.104248  0.218994  0  4.054509  0
C  C162  1  0.37953994  0.36556681  0.63586980  1  0.312524  0  0.104257  0.218995  0  4.054237  0
C  C163  1  0.87954206  0.13442801  0.86413168  1  0.312929  0  0.104201  0.219068  0  4.054437  0
C  C164  1  0.69736665  0.74288380  0.37919287  1  0.012032  0  -0.068794  -0.11924  0  3.896883  0
C  C165  1  0.19735949  0.75711762  0.12080512  1  0.012178  0  -0.068806  -0.119281  0  3.896827  0
C  C166  1  0.30263022  0.25711296  0.62080872  1  0.011903  0  -0.068711  -0.118998  0  3.896738  0
C  C167  1  0.80263313  0.24287822  0.87919296  1  0.011991  0  -0.068725  -0.119025  0  3.896794  0
C  C168  1  0.78992244  0.79882789  0.35146842  1  -0.058646  0  -0.080572  -0.100819  0  3.955536  0
C  C169  1  0.28991559  0.70117712  0.14853033  1  -0.058599  0  -0.080588  -0.100812  0  3.955482  0
C  C170  1  0.21007336  0.20117175  0.64853292  1  -0.05837  0  -0.080594  -0.100791  0  3.955603  0
C  C171  1  0.71008659  0.29882732  0.85146890  1  -0.058234  0  -0.080648  -0.100999  0  3.955534  0
C  C172  1  0.80573318  0.74686932  0.30994962  1  0.49354  0  0.037319  0.07945  0  3.918594  0
C  C173  1  0.30572106  0.75313373  0.19004845  1  0.497339  0  0.037229  0.079377  0  3.918636  0
C  C174  1  0.19426581  0.25312649  0.69005163  1  0.494193  0  0.037265  0.079282  0  3.91878  0
C  C175  1  0.69427368  0.24687358  0.80994925  1  0.497789  0  0.037274  0.07939  0  3.918633  0
C  C176  1  0.63882381  0.59046071  0.32163721  1  0.61052  0  0.033262  -0.031497  0  3.941726  0
C  C177  1  0.13881751  0.90954182  0.17835982  1  0.610651  0  0.033342  -0.0312  0  3.941279  0
C  C178  1  0.36118581  0.40952648  0.67836574  1  0.610514  0  0.0332  -0.031579  0  3.941875  0
C  C179  1  0.86118680  0.09046934  0.82163511  1  0.610724  0  0.033153  -0.031738  0  3.942037  0
N  N180  1  0.78162337  0.37214184  0.26243897  1  -1.2764  0  -0.332821  -0.201336  0  3.633511  0
N  N181  1  0.28161612  0.12785441  0.23756032  1  -1.275542  0  -0.332798  -0.20145  0  3.63353  0
N  N182  1  0.21838200  0.62784920  0.73756154  1  -1.276103  0  -0.332874  -0.201546  0  3.633518  0
N  N183  1  0.71838819  0.87214527  0.76243467  1  -1.2754  0  -0.332743  -0.201386  0  3.633737  0
N  N184  1  0.95701782  0.25440057  0.35480971  1  -1.202222  0  -0.409109  -0.433274  0  3.591217  0
N  N185  1  0.45701719  0.24559714  0.14519064  1  -1.202232  0  -0.409128  -0.433353  0  3.591381  0
N  N186  1  0.04298118  0.74559428  0.64519184  1  -1.20225  0  -0.409078  -0.43323  0  3.591374  0
N  N187  1  0.54299137  0.75439584  0.85480547  1  -1.202409  0  -0.409192  -0.433187  0  3.591553  0
N  N188  1  0.08648711  0.18185733  0.40987637  1  -1.259044  0  -0.409222  -0.416077  0  3.618411  0
N  N189  1  0.58648732  0.31814705  0.09012492  1  -1.259475  0  -0.409236  -0.416131  0  3.618509  0
N  N190  1  0.91351719  0.81813658  0.59012357  1  -1.258995  0  -0.409289  -0.416284  0  3.618502  0
N  N191  1  0.41351380  0.68184977  0.90986938  1  -1.259085  0  -0.409378  -0.416344  0  3.618434  0
N  N192  1  0.40047721  0.50073822  0.44516679  1  -1.254976  0  -0.412652  -0.429413  0  3.611819  0
N  N193  1  0.90046711  0.99927414  0.05483312  1  -1.254519  0  -0.412526  -0.429299  0  3.61174  0
N  N194  1  0.59952816  0.49926234  0.55483774  1  -1.255144  0  -0.412588  -0.429498  0  3.611519  0
N  N195  1  0.09952551  0.00072266  0.94516371  1  -1.254756  0  -0.412541  -0.429488  0  3.611729  0
N  N196  1  0.53090883  0.56334488  0.38882166  1  -1.231767  0  -0.406227  -0.42746  0  3.576793  0
N  N197  1  0.03089575  0.93665696  0.11117690  1  -1.231801  0  -0.406323  -0.427589  0  3.576716  0
N  N198  1  0.46910078  0.43664613  0.61118233  1  -1.231437  0  -0.406528  -0.42793  0  3.576586  0
N  N199  1  0.96909900  0.06334272  0.88881905  1  -1.231763  0  -0.406303  -0.427606  0  3.576816  0
N  N200  1  0.73040857  0.64389206  0.29554753  1  -1.264314  0  -0.331615  -0.194073  0  3.635105  0
N  N201  1  0.23040044  0.85611214  0.20445054  1  -1.2638  0  -0.331697  -0.194349  0  3.635093  0
N  N202  1  0.26959893  0.35609800  0.70445518  1  -1.264903  0  -0.331584  -0.19398  0  3.635324  0
N  N203  1  0.76959325  0.14389326  0.79554744  1  -1.264531  0  -0.331596  -0.194053  0  3.635362  0
Cl  Cl204  1  0.58599428  0.53090704  0.19279309  1  -0.66127  0  -0.335654  -0.498326  0  1.23454  0
Cl  Cl205  1  0.08601179  0.96908694  0.30721356  1  -0.661193  0  -0.335664  -0.49837  0  1.234579  0
Cl  Cl206  1  0.41400578  0.46908971  0.80720977  1  -0.66123  0  -0.335633  -0.49833  0  1.234566  0
Cl  Cl207  1  0.91400102  0.03091364  0.69278938  1  -0.661175  0  -0.335602  -0.498264  0  1.234586  0
Cl  Cl208  1  0.98503475  0.61674356  0.21836144  1  -0.66051  0  -0.343114  -0.498437  0  1.199418  0
Cl  Cl209  1  0.48503647  0.88325618  0.28163538  1  -0.660501  0  -0.343145  -0.498456  0  1.199407  0
Cl  Cl210  1  0.01496425  0.38325608  0.78164022  1  -0.660535  0  -0.343116  -0.49845  0  1.199389  0
Cl  Cl211  1  0.51496678  0.11674062  0.71836082  1  -0.660492  0  -0.343158  -0.498465  0  1.199457  0
O  O212  1  0.87403453  0.08361709  0.39070441  1  -1.142034  0  -0.285686  -0.506166  0  2.134455  0
O  O213  1  0.37403000  0.41637795  0.10929680  1  -1.142021  0  -0.285794  -0.506248  0  2.13443  0
O  O214  1  0.12596765  0.91637680  0.60929680  1  -1.141895  0  -0.285763  -0.506208  0  2.13433  0
O  O215  1  0.62597006  0.58361407  0.89070056  1  -1.141619  0  -0.285739  -0.506275  0  2.134299  0
O  O216  1  0.28149211  0.28638315  0.46159622  1  -1.118831  0  -0.166105  -0.231187  0  2.619117  0
O  O217  1  0.78149665  0.21363316  0.03840669  1  -1.119002  0  -0.166112  -0.231173  0  2.619417  0
O  O218  1  0.71849520  0.71361743  0.53840704  1  -1.118991  0  -0.165986  -0.23111  0  2.619249  0
O  O219  1  0.21851510  0.78637417  0.96159038  1  -1.119034  0  -0.166092  -0.231229  0  2.619389  0
O  O220  1  0.47975059  0.70999219  0.44480317  1  -1.149858  0  -0.284228  -0.500284  0  2.127038  0
O  O221  1  0.97973372  0.79001712  0.05519576  1  -1.150358  0  -0.284283  -0.500329  0  2.127197  0
O  O222  1  0.52024096  0.29001031  0.55519855  1  -1.150036  0  -0.284235  -0.50031  0  2.127018  0
O  O223  1  0.02025146  0.20997873  0.94480074  1  -1.15074  0  -0.284223  -0.500305  0  2.127416  0
