# generated using pymatgen
data_CdH12C14S2(N3O)2
_symmetry_space_group_name_H-M   'P 1'
_cell_length_a   7.87263040
_cell_length_b   9.54045049
_cell_length_c   12.38148791
_cell_angle_alpha   112.65677708
_cell_angle_beta   95.14230010
_cell_angle_gamma   89.99488595
_symmetry_Int_Tables_number   1
_chemical_formula_structural   CdH12C14S2(N3O)2
_chemical_formula_sum   'Cd2 H24 C28 S4 N12 O4'
_cell_volume   854.13447736
_cell_formula_units_Z   2
loop_
 _symmetry_equiv_pos_site_id
 _symmetry_equiv_pos_as_xyz
  1  'x, y, z'
loop_
 _atom_site_type_symbol
 _atom_site_label
 _atom_site_symmetry_multiplicity
 _atom_site_fract_x
 _atom_site_fract_y
 _atom_site_fract_z
 _atom_site_occupancy
 _atom_site_hle17_bader_spin_density
 _atom_site_hle17_ddec_charge
 _atom_site_hle17_ddec_spin_density
 _atom_site_hle17_ddec_sum_bond_order
 _atom_site_hle17_magmom
 _atom_site_hse06_10hf_bader_spin_density
 _atom_site_hse06_10hf_ddec_charge
 _atom_site_hse06_10hf_ddec_spin_density
 _atom_site_hse06_10hf_ddec_sum_bond_order
 _atom_site_hse06_10hf_magmom
 _atom_site_hse06_bader_spin_density
 _atom_site_hse06_ddec_charge
 _atom_site_hse06_ddec_spin_density
 _atom_site_hse06_ddec_sum_bond_order
 _atom_site_hse06_magmom
 _atom_site_pbe_bader_spin_density
 _atom_site_pbe_cm5_charge
 _atom_site_pbe_ddec_charge
 _atom_site_pbe_ddec_spin_density
 _atom_site_pbe_ddec_sum_bond_order
 _atom_site_pbe_magmom
Cd  Cd0  1  1.00000000  0.49999613  0.49999651  1  0  0.939968  0  1.977872  0  0  0.757645  0  2.43867  0  0  0.802687  0  2.403817  0  0  0.721832  0.726828  0  2.462246  0
Cd  Cd1  1  0.49999668  0.00000129  0.49999749  1  0  0.939908  0  1.979135  0  0  0.758204  0  2.439559  0  0  0.803182  0  2.404754  0  0  0.722258  0.727601  0  2.462818  0
H  H2  1  0.92233218  0.84214965  0.65180993  1  0  0.079166  0  0.983339  0  0  0.081326  0  1.059162  0  0  0.083649  0  1.05753  0  0  0.105753  0.079627  0  1.060536  0
H  H3  1  0.42274335  0.80992550  0.65169200  1  0  0.078627  0  0.984018  0  0  0.081243  0  1.05963  0  0  0.083595  0  1.057884  0  0  0.105698  0.079523  0  1.06105  0
H  H4  1  0.07766190  0.15784066  0.34817850  1  0  0.079201  0  0.983377  0  0  0.08136  0  1.059221  0  0  0.083683  0  1.057589  0  0  0.10577  0.079661  0  1.060594  0
H  H5  1  0.57726047  0.19008202  0.34830828  1  0  0.078562  0  0.984098  0  0  0.081185  0  1.059706  0  0  0.083538  0  1.057958  0  0  0.105673  0.079462  0  1.061134  0
H  H6  1  0.76714157  0.00559869  0.82305260  1  0  0.115352  0  0.93534  0  0  0.128638  0  0.98626  0  0  0.131948  0  0.985687  0  0  0.108101  0.125724  0  0.988009  0
H  H7  1  0.26741693  0.81736643  0.82279415  1  0  0.115341  0  0.935244  0  0  0.128454  0  0.986426  0  0  0.131761  0  0.985868  0  0  0.107962  0.125485  0  0.988236  0
H  H8  1  0.23285258  0.99439389  0.17693650  1  0  0.115292  0  0.935361  0  0  0.12864  0  0.9862  0  0  0.131953  0  0.985621  0  0  0.108075  0.125715  0  0.987964  0
H  H9  1  0.73258663  0.18263202  0.17720430  1  0  0.115433  0  0.935287  0  0  0.128544  0  0.986452  0  0  0.131851  0  0.985892  0  0  0.108028  0.125564  0  0.988272  0
H  H10  1  0.60760589  0.87515370  0.92947367  1  0  0.102503  0  0.945377  0  0  0.111901  0  1.007503  0  0  0.115141  0  1.004843  0  0  0.111156  0.109542  0  1.009412  0
H  H11  1  0.10782409  0.05405707  0.92928284  1  0  0.101932  0  0.94524  0  0  0.111846  0  1.006752  0  0  0.115097  0  1.004137  0  0  0.111217  0.109462  0  1.00869  0
H  H12  1  0.39239381  0.12484583  0.07052332  1  0  0.102467  0  0.945367  0  0  0.111859  0  1.007515  0  0  0.1151  0  1.004851  0  0  0.111142  0.109496  0  1.009428  0
H  H13  1  0.89216672  0.94594240  0.07071457  1  0  0.101928  0  0.945282  0  0  0.111845  0  1.006787  0  0  0.115094  0  1.004175  0  0  0.11122  0.109459  0  1.008727  0
H  H14  1  0.78363102  0.45015066  0.69336454  1  0  0.066899  0  0.991812  0  0  0.0761  0  1.06049  0  0  0.077558  0  1.059435  0  0  0.110201  0.074417  0  1.0625  0
H  H15  1  0.28360547  0.24345940  0.69338783  1  0  0.066208  0  0.992566  0  0  0.075643  0  1.061082  0  0  0.077138  0  1.059913  0  0  0.110079  0.073922  0  1.063205  0
H  H16  1  0.21636985  0.54984546  0.30663151  1  0  0.066966  0  0.99179  0  0  0.076135  0  1.060478  0  0  0.077591  0  1.059432  0  0  0.110235  0.074454  0  1.062493  0
H  H17  1  0.71639607  0.75654932  0.30661836  1  0  0.066186  0  0.992504  0  0  0.075623  0  1.06106  0  0  0.077114  0  1.059894  0  0  0.110075  0.073912  0  1.063153  0
H  H18  1  0.68808565  0.36868576  0.80572258  1  0  0.311446  0  0.931404  0  0  0.290578  0  1.006572  0  0  0.297492  0  1.001924  0  0  0.28664  0.285213  0  1.010881  0
H  H19  1  0.18806221  0.43704831  0.80578141  1  0  0.311919  0  0.930579  0  0  0.290907  0  1.006084  0  0  0.29782  0  1.001443  0  0  0.286742  0.285506  0  1.010454  0
H  H20  1  0.31191529  0.63131039  0.19427509  1  0  0.311379  0  0.931547  0  0  0.290516  0  1.006693  0  0  0.29743  0  1.002047  0  0  0.28661  0.28515  0  1.011003  0
H  H21  1  0.81193393  0.56294903  0.19422288  1  0  0.311919  0  0.930488  0  0  0.29088  0  1.006037  0  0  0.297792  0  1.001397  0  0  0.286738  0.285479  0  1.010407  0
H  H22  1  0.56654829  0.39139550  0.92433687  1  0  0.351532  0  0.916905  0  0  0.332487  0  0.977354  0  0  0.342395  0  0.96854  0  0  0.295283  0.325407  0  0.983708  0
H  H23  1  0.06641988  0.53288003  0.92431751  1  0  0.351406  0  0.917312  0  0  0.332104  0  0.978008  0  0  0.342004  0  0.969255  0  0  0.295345  0.325006  0  0.984377  0
H  H24  1  0.43345527  0.60860070  0.07566254  1  0  0.351505  0  0.916897  0  0  0.332467  0  0.977349  0  0  0.342373  0  0.968537  0  0  0.295275  0.32539  0  0.983697  0
H  H25  1  0.93357768  0.46712075  0.07568865  1  0  0.351276  0  0.917527  0  0  0.331992  0  0.97818  0  0  0.341886  0  0.969443  0  0  0.295282  0.324894  0  0.984548  0
C  C26  1  0.62360738  0.63793823  0.42997830  1  0  0.308143  0  3.988249  0  0  0.284749  0  4.297783  0  0  0.30674  0  4.310828  0  0  0.149064  0.27002  0  4.288458  0
C  C27  1  0.12348218  0.79199762  0.42995917  1  0  0.307322  0  3.98909  0  0  0.283944  0  4.298635  0  0  0.305958  0  4.311683  0  0  0.148753  0.269196  0  4.289301  0
C  C28  1  0.37638676  0.36208176  0.57002843  1  0  0.307928  0  3.987923  0  0  0.284523  0  4.297511  0  0  0.306517  0  4.310567  0  0  0.148941  0.269795  0  4.288172  0
C  C29  1  0.87652190  0.20800550  0.57004954  1  0  0.3073  0  3.98907  0  0  0.283922  0  4.298623  0  0  0.305935  0  4.311682  0  0  0.148752  0.269176  0  4.289283  0
C  C30  1  0.85453661  0.79324006  0.70270583  1  0  0.140875  0  3.689199  0  0  0.10791  0  3.940836  0  0  0.116246  0  3.959107  0  0  0.047549  0.102537  0  3.92831  0
C  C31  1  0.35479367  0.90962916  0.70256253  1  0  0.141145  0  3.689344  0  0  0.107379  0  3.941754  0  0  0.115741  0  3.960046  0  0  0.047184  0.101904  0  3.929351  0
C  C32  1  0.14546013  0.20675143  0.29728466  1  0  0.140777  0  3.689306  0  0  0.107731  0  3.941073  0  0  0.116068  0  3.959346  0  0  0.047512  0.102358  0  3.928542  0
C  C33  1  0.64520377  0.09037719  0.29743796  1  0  0.141124  0  3.689426  0  0  0.107322  0  3.941904  0  0  0.115685  0  3.960196  0  0  0.047116  0.101845  0  3.929497  0
C  C34  1  0.76694924  0.88263168  0.79693864  1  0  -0.121191  0  3.716105  0  0  -0.129353  0  3.966053  0  0  -0.137892  0  3.986747  0  0  -0.083089  -0.12369  0  3.952358  0
C  C35  1  0.26715814  0.91425056  0.79671416  1  0  -0.120232  0  3.715638  0  0  -0.128069  0  3.965779  0  0  -0.136613  0  3.986497  0  0  -0.081953  -0.122387  0  3.952249  0
C  C36  1  0.23305153  0.11736216  0.20305594  1  0  -0.121212  0  3.716121  0  0  -0.129392  0  3.966069  0  0  -0.13793  0  3.986765  0  0  -0.08312  -0.12372  0  3.952378  0
C  C37  1  0.73283395  0.08574891  0.20328332  1  0  -0.120306  0  3.7158  0  0  -0.128119  0  3.965936  0  0  -0.136665  0  3.986654  0  0  -0.081977  -0.122427  0  3.952407  0
C  C38  1  0.68012575  0.81193953  0.85609345  1  0  -0.005627  0  3.701412  0  0  -0.037985  0  3.953816  0  0  -0.032  0  3.970148  0  0  -0.056086  -0.04132  0  3.942101  0
C  C39  1  0.18030723  0.04402623  0.85591852  1  0  -0.005112  0  3.700794  0  0  -0.037959  0  3.952701  0  0  -0.032013  0  3.969051  0  0  -0.056619  -0.041414  0  3.941081  0
C  C40  1  0.31987908  0.18805780  0.14390553  1  0  -0.00554  0  3.701285  0  0  -0.037941  0  3.953724  0  0  -0.031956  0  3.970057  0  0  -0.056079  -0.041273  0  3.942  0
C  C41  1  0.81968613  0.95597326  0.14407901  1  0  -0.005162  0  3.700932  0  0  -0.038007  0  3.952809  0  0  -0.032061  0  3.969161  0  0  -0.056667  -0.041463  0  3.941184  0
C  C42  1  0.68485285  0.65414995  0.82114425  1  0  -0.106616  0  3.747992  0  0  -0.080221  0  3.984384  0  0  -0.09178  0  4.007832  0  0  -0.00879  -0.072784  0  3.968275  0
C  C43  1  0.18497597  0.16699844  0.82110388  1  0  -0.107543  0  3.748976  0  0  -0.080757  0  3.984911  0  0  -0.092331  0  4.008367  0  0  -0.009012  -0.073338  0  3.968865  0
C  C44  1  0.31515577  0.34584515  0.17885505  1  0  -0.106457  0  3.747837  0  0  -0.079995  0  3.984141  0  0  -0.091551  0  4.007589  0  0  -0.008649  -0.072558  0  3.968031  0
C  C45  1  0.81501350  0.83299987  0.17889234  1  0  -0.107593  0  3.748998  0  0  -0.080745  0  3.984887  0  0  -0.092318  0  4.008341  0  0  -0.008985  -0.073323  0  3.968835  0
C  C46  1  0.77597556  0.57334409  0.72606304  1  0  0.129873  0  3.665068  0  0  0.089344  0  3.909213  0  0  0.09858  0  3.927032  0  0  0.052979  0.083591  0  3.897257  0
C  C47  1  0.27611775  0.15292477  0.72607774  1  0  0.129977  0  3.665602  0  0  0.089277  0  3.909449  0  0  0.098544  0  3.927242  0  0  0.052753  0.083528  0  3.897574  0
C  C48  1  0.22402789  0.42665095  0.27393442  1  0  0.129677  0  3.664988  0  0  0.089168  0  3.909105  0  0  0.098402  0  3.926925  0  0  0.052855  0.083409  0  3.897154  0
C  C49  1  0.72387724  0.84708272  0.27392460  1  0  0.130018  0  3.665482  0  0  0.089271  0  3.909359  0  0  0.098542  0  3.927149  0  0  0.052734  0.083523  0  3.89749  0
C  C50  1  0.59541928  0.58324071  0.89053935  1  0  0.606102  0  3.879442  0  0  0.554812  0  4.174198  0  0  0.584569  0  4.174328  0  0  0.235315  0.53482  0  4.172887  0
C  C51  1  0.09544158  0.30719446  0.89054315  1  0  0.605547  0  3.878812  0  0  0.553978  0  4.173688  0  0  0.583732  0  4.17384  0  0  0.234777  0.533911  0  4.172516  0
C  C52  1  0.40458941  0.41675667  0.10946062  1  0  0.606012  0  3.87926  0  0  0.554656  0  4.174077  0  0  0.584412  0  4.17421  0  0  0.235266  0.534665  0  4.172762  0
C  C53  1  0.90455732  0.69280523  0.10946517  1  0  0.605437  0  3.878908  0  0  0.553811  0  4.173846  0  0  0.583563  0  4.174004  0  0  0.234742  0.533743  0  4.172672  0
S  S54  1  0.70354253  0.47566886  0.35460676  1  0  -0.332628  0  2.181432  0  0  -0.301192  0  2.515638  0  0  -0.317953  0  2.509529  0  0  -0.126856  -0.289528  0  2.521365  0
S  S55  1  0.20358031  0.87880837  0.35459661  1  0  -0.332719  0  2.181751  0  0  -0.301503  0  2.51617  0  0  -0.318306  0  2.510189  0  0  -0.127133  -0.289764  0  2.521718  0
S  S56  1  0.29646015  0.52433983  0.64539623  1  0  -0.332564  0  2.181658  0  0  -0.301101  0  2.515831  0  0  -0.317859  0  2.509727  0  0  -0.12687  -0.289439  0  2.521555  0
S  S57  1  0.79643132  0.12119703  0.64540903  1  0  -0.33272  0  2.181921  0  0  -0.301497  0  2.516323  0  0  -0.318304  0  2.510354  0  0  -0.127134  -0.289761  0  2.521869  0
N  N58  1  0.06475778  0.72780294  0.48374413  1  0  -0.528367  0  2.880884  0  0  -0.473678  0  3.160724  0  0  -0.494456  0  3.168309  0  0  -0.386628  -0.459369  0  3.155113  0
N  N59  1  0.56499523  0.75594928  0.48375787  1  0  -0.529318  0  2.881251  0  0  -0.474797  0  3.161308  0  0  -0.495554  0  3.168851  0  0  -0.387136  -0.460535  0  3.155633  0
N  N60  1  0.93524092  0.27220117  0.51625738  1  0  -0.528375  0  2.880673  0  0  -0.473688  0  3.160522  0  0  -0.494467  0  3.168107  0  0  -0.386633  -0.459379  0  3.154908  0
N  N61  1  0.43501623  0.24405268  0.51624515  1  0  -0.52915  0  2.880575  0  0  -0.47462  0  3.160625  0  0  -0.495382  0  3.168178  0  0  -0.387014  -0.460354  0  3.154941  0
N  N62  1  0.85874397  0.64129694  0.66804362  1  0  -0.325492  0  3.255211  0  0  -0.242648  0  3.511419  0  0  -0.263761  0  3.53174  0  0  -0.327424  -0.228254  0  3.496955  0
N  N63  1  0.35887229  0.02697790  0.66797562  1  0  -0.324984  0  3.255381  0  0  -0.2423  0  3.512557  0  0  -0.263405  0  3.532841  0  0  -0.327685  -0.227963  0  3.498133  0
N  N64  1  0.14125297  0.35869575  0.33195127  1  0  -0.325362  0  3.255089  0  0  -0.242465  0  3.511259  0  0  -0.26358  0  3.531584  0  0  -0.327359  -0.228072  0  3.496796  0
N  N65  1  0.64111884  0.97302842  0.33202622  1  0  -0.324848  0  3.255305  0  0  -0.242153  0  3.512513  0  0  -0.263259  0  3.532797  0  0  -0.327625  -0.227816  0  3.498091  0
N  N66  1  0.61289322  0.43491242  0.86701630  1  0  -0.676887  0  3.112106  0  0  -0.635505  0  3.345696  0  0  -0.65959  0  3.341337  0  0  -0.564529  -0.618452  0  3.348834  0
N  N67  1  0.11282667  0.43205104  0.86703841  1  0  -0.676696  0  3.110113  0  0  -0.635192  0  3.344121  0  0  -0.659261  0  3.339731  0  0  -0.564503  -0.618144  0  3.347437  0
N  N68  1  0.38711165  0.56508492  0.13298350  1  0  -0.676726  0  3.112236  0  0  -0.635333  0  3.34584  0  0  -0.659419  0  3.341485  0  0  -0.56444  -0.618282  0  3.348978  0
N  N69  1  0.88716830  0.56794858  0.13296730  1  0  -0.676477  0  3.110223  0  0  -0.634942  0  3.344307  0  0  -0.659009  0  3.339929  0  0  -0.564381  -0.617894  0  3.347619  0
O  O70  1  0.50921278  0.66648743  0.97002011  1  0  -0.584095  0  1.914425  0  0  -0.535162  0  2.125933  0  0  -0.557338  0  2.11977  0  0  -0.308941  -0.519788  0  2.130113  0
O  O71  1  0.00930668  0.30336046  0.97003062  1  0  -0.583758  0  1.914785  0  0  -0.534288  0  2.12581  0  0  -0.556448  0  2.11968  0  0  -0.308234  -0.518894  0  2.130061  0
O  O72  1  0.49079719  0.33350996  0.02997991  1  0  -0.584149  0  1.914264  0  0  -0.53513  0  2.125723  0  0  -0.557306  0  2.119562  0  0  -0.308936  -0.519755  0  2.129898  0
O  O73  1  0.99069356  0.69663926  0.02997938  1  0  -0.58367  0  1.91476  0  0  -0.534178  0  2.125819  0  0  -0.55634  0  2.119689  0  0  -0.308197  -0.518782  0  2.130068  0
