# generated using pymatgen
data_ZnH10C13IN4
_symmetry_space_group_name_H-M   'P 1'
_cell_length_a   14.79201524
_cell_length_b   17.54574485
_cell_length_c   19.49079598
_cell_angle_alpha   91.42512844
_cell_angle_beta   87.34285476
_cell_angle_gamma   91.49033268
_symmetry_Int_Tables_number   1
_chemical_formula_structural   ZnH10C13IN4
_chemical_formula_sum   'Zn8 H80 C104 I8 N32'
_cell_volume   5050.01440339
_cell_formula_units_Z   8
loop_
 _symmetry_equiv_pos_site_id
 _symmetry_equiv_pos_as_xyz
  1  'x, y, z'
loop_
 _atom_site_type_symbol
 _atom_site_label
 _atom_site_symmetry_multiplicity
 _atom_site_fract_x
 _atom_site_fract_y
 _atom_site_fract_z
 _atom_site_occupancy
 _atom_site_pbe_bader_charge
 _atom_site_pbe_bader_spin_density
 _atom_site_pbe_cm5_charge
 _atom_site_pbe_ddec_charge
 _atom_site_pbe_ddec_spin_density
 _atom_site_pbe_ddec_sum_bond_order
 _atom_site_pbe_magmom
Zn  Zn0  1  0.97850491  0.91951810  0.54940695  1  1.201907  0  0.71991  0.590757  0  2.497297  0
Zn  Zn1  1  0.97557920  0.06495115  0.40268518  1  1.18467  0  0.751104  0.597294  0  2.589126  0
Zn  Zn2  1  0.52525778  0.55838960  0.07023348  1  1.174023  0  0.734998  0.557824  0  2.680645  0
Zn  Zn3  1  0.51570731  0.42465054  0.93004975  1  1.172728  0  0.73468  0.570166  0  2.636568  0
Zn  Zn4  1  0.14976541  0.03542592  0.49047800  1  1.21884  0  0.743908  0.68212  0  2.307427  0
Zn  Zn5  1  0.80012504  0.97973692  0.50464431  1  1.173641  0  0.733537  0.65267  0  2.367012  0
Zn  Zn6  1  0.71849741  0.46128922  0.98807667  1  1.168427  0  0.745073  0.695403  0  2.254222  0
Zn  Zn7  1  0.32797056  0.53169946  0.00448709  1  1.180892  0  0.759188  0.704848  0  2.307072  0
H  H8  1  0.07847555  0.17916169  0.60064609  1  0.062683  0  0.104386  0.092121  0  1.068511  0
H  H9  1  0.64593517  0.90768371  0.62403465  1  0.077504  0  0.114938  0.107272  0  1.007909  0
H  H10  1  0.96393371  0.21028566  0.50676189  1  0.092969  0  0.127089  0.117383  0  0.973202  0
H  H11  1  0.18533579  0.86634367  0.45261355  1  0.120275  0  0.115809  0.110039  0  1.020151  0
H  H12  1  0.54598401  0.71251423  0.97648558  1  0.107661  0  0.122915  0.11381  0  0.986286  0
H  H13  1  0.47053273  0.27294113  0.02111984  1  0.097714  0  0.122691  0.114247  0  0.981688  0
H  H14  1  0.20044866  0.59411650  0.12150129  1  0.109843  0  0.122496  0.116463  0  0.993687  0
H  H15  1  0.84134544  0.40955335  0.85542185  1  0.135349  0  0.124857  0.117478  0  0.987019  0
H  H16  1  0.06385785  0.18445515  0.28037088  1  0.078179  0  0.104719  0.093385  0  1.037702  0
H  H17  1  0.89993451  0.82703296  0.69279261  1  0.078687  0  0.116094  0.102489  0  1.01413  0
H  H18  1  0.86816614  0.03697606  0.64816288  1  0.132587  0  0.123937  0.119482  0  1.01145  0
H  H19  1  0.98681215  0.75205939  0.44973567  1  0.083521  0  0.11992  0.106573  0  1.008353  0
H  H20  1  0.00238859  0.91463955  0.29272898  1  0.098714  0  0.122776  0.112893  0  0.976935  0
H  H21  1  0.59968388  0.53655022  0.82134303  1  0.097293  0  0.120804  0.11342  0  0.992469  0
H  H22  1  0.42120837  0.45255019  0.17334744  1  0.100981  0  0.1192  0.111156  0  1.00247  0
H  H23  1  0.45422659  0.68016805  0.19903584  1  0.085126  0  0.116396  0.104045  0  1.010924  0
H  H24  1  0.58256809  0.31472671  0.79575943  1  0.074652  0  0.11772  0.107072  0  1.006526  0
H  H25  1  0.25395283  0.89076902  0.24291165  1  0.053821  0  0.093505  0.079063  0  1.000637  0
H  H26  1  0.74695249  0.12326987  0.70172046  1  0.077666  0  0.091378  0.078447  0  1.003826  0
H  H27  1  0.58561536  0.87229152  0.78002967  1  0.034836  0  0.093847  0.080712  0  1.007052  0
H  H28  1  0.36294842  0.11328569  0.20330867  1  0.056917  0  0.090209  0.073633  0  1.006544  0
H  H29  1  0.88842647  0.37900554  0.69276321  1  0.050472  0  0.092249  0.076735  0  1.008978  0
H  H30  1  0.85377825  0.15689104  0.31099133  1  0.113473  0  0.120342  0.112449  0  0.995594  0
H  H31  1  0.15925822  0.62771161  0.29396989  1  0.013873  0  0.089864  0.07346  0  1.018332  0
H  H32  1  0.27598017  0.38129139  0.21661216  1  0.033025  0  0.089696  0.074397  0  1.005689  0
H  H33  1  0.74551513  0.63083851  0.77958588  1  0.065138  0  0.090935  0.075597  0  1.003108  0
H  H34  1  0.80182369  0.30308232  0.58281525  1  0.041827  0  0.091837  0.079626  0  1.007245  0
H  H35  1  0.23258812  0.73481111  0.38945761  1  0.064456  0  0.090843  0.076282  0  1.002338  0
H  H36  1  0.33980024  0.29727255  0.32726291  1  0.047928  0  0.092396  0.078643  0  1.001946  0
H  H37  1  0.66094284  0.69133701  0.66501522  1  0.028499  0  0.092305  0.078449  0  1.001523  0
H  H38  1  0.18120552  0.78220979  0.14725107  1  0.040667  0  0.095738  0.086038  0  0.995749  0
H  H39  1  0.83400379  0.20003091  0.81188661  1  0.034976  0  0.098032  0.08696  0  0.991247  0
H  H40  1  0.67019920  0.81301037  0.89430652  1  0.032697  0  0.09313  0.078567  0  0.999279  0
H  H41  1  0.06127958  0.85475952  0.68162023  1  0.045297  0  0.113464  0.104278  0  1.011324  0
H  H42  1  0.29923836  0.19646566  0.09307753  1  0.047334  0  0.091216  0.07617  0  1.002596  0
H  H43  1  0.65709512  0.25849038  0.67370770  1  0.016734  0  0.084412  0.073665  0  1.018979  0
H  H44  1  0.36873754  0.77657366  0.28902781  1  0.02391  0  0.089216  0.072392  0  1.008703  0
H  H45  1  0.47961865  0.23872168  0.23710367  1  0.041474  0  0.091805  0.081379  0  1.008217  0
H  H46  1  0.50722420  0.72560076  0.75215187  1  0.042404  0  0.096512  0.087263  0  0.998473  0
H  H47  1  0.04427604  0.74209222  0.24849045  1  0.071701  0  0.09103  0.083144  0  1.020597  0
H  H48  1  0.97948428  0.24284611  0.71984566  1  0.058592  0  0.097469  0.091899  0  1.005599  0
H  H49  1  0.82350845  0.77665076  0.80838325  1  0.075641  0  0.089985  0.075519  0  1.008616  0
H  H50  1  0.16065727  0.25719681  0.18152133  1  0.048906  0  0.081281  0.072167  0  1.028217  0
H  H51  1  0.23440102  0.78885003  0.72124962  1  0.072801  0  0.091103  0.09528  0  1.028821  0
H  H52  1  0.64371111  0.63007246  0.19174647  1  0.097786  0  0.120989  0.112508  0  0.987114  0
H  H53  1  0.64934294  0.19625829  0.29749156  1  0.044363  0  0.092372  0.097402  0  1.025662  0
H  H54  1  0.79932384  0.74034945  0.29827125  1  0.053508  0  0.079992  0.076503  0  1.085282  0
H  H55  1  0.26685387  0.26022867  0.72460593  1  0.033159  0  0.081503  0.076121  0  1.068925  0
H  H56  1  0.77966616  0.26122572  0.23917170  1  0.049759  0  0.080452  0.074356  0  1.076257  0
H  H57  1  0.18419223  0.78849546  0.82667715  1  0.052782  0  0.08021  0.077139  0  1.071522  0
H  H58  1  0.17255556  0.28220706  0.82012959  1  0.045554  0  0.093456  0.102836  0  1.022239  0
H  H59  1  0.85593449  0.70800600  0.19013055  1  0.070552  0  0.093712  0.100684  0  1.020554  0
H  H60  1  0.40081953  0.97136014  0.76003341  1  0.011782  0  0.083597  0.115003  0  1.015482  0
H  H61  1  0.29399435  0.99686988  0.73189061  1  0.05184  0  0.087079  0.132893  0  1.009804  0
H  H62  1  0.31228766  0.99170908  0.82152786  1  0.014094  0  0.088956  0.124289  0  0.992898  0
H  H63  1  0.38456961  0.36382335  0.80694176  1  0.110775  0  0.121583  0.111417  0  0.988784  0
H  H64  1  0.69210089  0.37688411  0.43228020  1  0.047238  0  0.092174  0.126882  0  0.996749  0
H  H65  1  0.74810311  0.29204128  0.45105708  1  0.017685  0  0.084974  0.119937  0  1.026717  0
H  H66  1  0.80260157  0.36197949  0.39687894  1  0.040394  0  0.089253  0.124071  0  0.994259  0
H  H67  1  0.00954773  0.58501055  0.32335219  1  0.026346  0  0.091004  0.121098  0  1.014846  0
H  H68  1  0.01711718  0.67166818  0.37115302  1  0.041675  0  0.094461  0.13279  0  1.012984  0
H  H69  1  0.94141744  0.59786782  0.39972172  1  0.033288  0  0.092751  0.126867  0  0.986153  0
H  H70  1  0.11559607  0.41438790  0.62807765  1  0.055541  0  0.088849  0.12072  0  1.005807  0
H  H71  1  0.11443279  0.32067026  0.59075770  1  0.039752  0  0.088012  0.125046  0  1.015853  0
H  H72  1  0.03070749  0.34764795  0.65458058  1  0.001096  0  0.084705  0.114598  0  1.04822  0
H  H73  1  0.64574745  0.44326161  0.33576423  1  0.019643  0  0.088051  0.118027  0  1.008135  0
H  H74  1  0.39175542  0.67058945  0.89237450  1  0.103026  0  0.10622  0.097935  0  1.046473  0
H  H75  1  0.66130975  0.44841004  0.24483254  1  0.023651  0  0.086755  0.119192  0  1.03454  0
H  H76  1  0.56544081  0.39929129  0.28227933  1  0.042689  0  0.089646  0.123845  0  0.995275  0
H  H77  1  0.42072105  0.90482147  0.87160465  1  0.04081  0  0.088672  0.12134  0  1.004372  0
H  H78  1  0.40132648  0.81586173  0.91265739  1  0.037054  0  0.086171  0.120664  0  1.016094  0
H  H79  1  0.46085918  0.82034811  0.83147280  1  0.0359  0  0.086431  0.121062  0  1.048925  0
H  H80  1  0.12777759  0.48646597  0.73231828  1  0.026513  0  0.091953  0.125964  0  0.993192  0
H  H81  1  0.21296397  0.49001650  0.79336674  1  0.072266  0  0.090757  0.134107  0  1.004456  0
H  H82  1  0.24196232  0.47497896  0.70412488  1  0.042453  0  0.089517  0.122373  0  0.99449  0
H  H83  1  0.91950230  0.50275590  0.26580758  1  0.041146  0  0.092944  0.127787  0  0.99597  0
H  H84  1  0.81396420  0.51406416  0.31042192  1  0.028864  0  0.08991  0.125649  0  0.99555  0
H  H85  1  0.62857977  0.40216965  0.13305338  1  0.110337  0  0.107197  0.098356  0  1.054046  0
H  H86  1  0.81965519  0.50040421  0.21924517  1  0.046434  0  0.089462  0.130153  0  1.025445  0
H  H87  1  0.30315043  0.11189729  0.37836268  1  0.091039  0  0.119883  0.112463  0  0.990908  0
C  C88  1  0.15100919  0.17181093  0.59559038  1  0.445094  0  -0.005636  -0.057982  0  3.987719  0
C  C89  1  0.29649469  0.76903811  0.27992162  1  -0.02734  0  -0.08461  -0.090152  0  3.66671  0
C  C90  1  0.10285115  0.35365817  0.63880452  1  -0.062068  0  -0.242583  -0.396111  0  3.981061  0
C  C91  1  0.63850108  0.41120166  0.28702393  1  -0.044688  0  -0.239912  -0.392656  0  3.98476  0
C  C92  1  0.40413925  0.84394085  0.86285410  1  -0.087157  0  -0.242635  -0.395932  0  3.970735  0
C  C93  1  0.19187787  0.46137274  0.74587754  1  -0.095423  0  -0.239386  -0.402025  0  3.980667  0
C  C94  1  0.85266830  0.52834886  0.26269302  1  -0.054946  0  -0.239726  -0.399874  0  3.958668  0
C  C95  1  0.40809965  0.24221291  0.22553147  1  -0.028502  0  -0.083444  -0.0881  0  3.649765  0
C  C96  1  0.57789775  0.73743843  0.76406037  1  -0.017902  0  -0.082576  -0.094284  0  3.651164  0
C  C97  1  0.11663715  0.74954355  0.25698690  1  -0.052044  0  -0.085008  -0.09083  0  3.642265  0
C  C98  1  0.90752015  0.24670821  0.70996801  1  -0.033348  0  -0.080956  -0.089264  0  3.633601  0
C  C99  1  0.75298380  0.76541811  0.79562551  1  -0.078863  0  -0.082181  -0.083827  0  3.649426  0
C  C100  1  0.23159131  0.25254884  0.19441878  1  -0.043015  0  -0.083901  -0.081234  0  3.645895  0
C  C101  1  0.68231755  0.21762398  0.34352326  1  0.048704  0  -0.116587  -0.225286  0  3.996376  0
C  C102  1  0.24980541  0.84995236  0.71778081  1  -0.039511  0  -0.114084  -0.210829  0  4.007363  0
C  C103  1  0.21601355  0.26571617  0.68617767  1  -0.006819  0  -0.102742  -0.175999  0  4.038435  0
C  C104  1  0.93288335  0.78923271  0.43724396  1  0.427408  0  0.01888  -0.029745  0  3.93352  0
C  C105  1  0.85556309  0.72606402  0.32971729  1  -0.025468  0  -0.108103  -0.195771  0  4.021387  0
C  C106  1  0.25012249  0.78304591  0.84899195  1  -0.012374  0  -0.10965  -0.187295  0  4.04199  0
C  C107  1  0.73916633  0.31092685  0.23016002  1  -0.066966  0  -0.103826  -0.177507  0  4.033349  0
C  C108  1  0.83955498  0.64723969  0.19578529  1  -0.028876  0  -0.111297  -0.214444  0  3.97904  0
C  C109  1  0.19222068  0.34238072  0.81504959  1  -0.02545  0  -0.121539  -0.237715  0  4.007937  0
C  C110  1  0.69844103  0.29388302  0.34859256  1  -0.077369  0  -0.012766  0.120247  0  3.976686  0
C  C111  1  0.29718885  0.88228336  0.76945249  1  -0.02296  0  -0.015366  0.116335  0  3.970269  0
C  C112  1  0.16313658  0.32824189  0.69340757  1  -0.021866  0  -0.026219  0.089099  0  3.963525  0
C  C113  1  0.89680537  0.65927084  0.31257845  1  -0.016299  0  -0.017609  0.102186  0  3.943061  0
C  C114  1  0.31601062  0.83390898  0.82789412  1  -0.020599  0  -0.024659  0.095901  0  3.95629  0
C  C115  1  0.81399115  0.13533457  0.35497938  1  0.392901  0  0.014637  -0.039046  0  3.961433  0
C  C116  1  0.69025951  0.33863518  0.28582362  1  0.025834  0  -0.022186  0.095103  0  3.942317  0
C  C117  1  0.86258070  0.61330745  0.25404634  1  -0.042575  0  -0.010806  0.116046  0  3.97256  0
C  C118  1  0.17949444  0.37656399  0.75447805  1  -0.041074  0  -0.015068  0.114566  0  3.986478  0
C  C119  1  0.23548237  0.12243846  0.36189518  1  0.400248  0  0.007017  -0.047244  0  3.980115  0
C  C120  1  0.71597971  0.89462270  0.63228730  1  0.381502  0  0.003754  -0.055223  0  3.983968  0
C  C121  1  0.94606661  0.15836457  0.53405837  1  0.406668  0  0.021411  -0.023555  0  3.940301  0
C  C122  1  0.13440241  0.88766711  0.42019228  1  0.322314  0  -0.001006  -0.063923  0  3.984277  0
C  C123  1  0.55247814  0.66033274  0.94568372  1  0.386435  0  0.009523  -0.046654  0  3.970768  0
C  C124  1  0.46733859  0.32538766  0.05184988  1  0.354425  0  0.011371  -0.039325  0  3.957274  0
C  C125  1  0.27032264  0.60593277  0.13404576  1  0.408003  0  0.014175  -0.035675  0  3.952277  0
C  C126  1  0.11484584  0.88162060  0.64997377  1  0.422731  0  -0.001969  -0.066325  0  3.994982  0
C  C127  1  0.77071396  0.39330075  0.84945073  1  0.327892  0  0.014257  -0.040973  0  3.952381  0
C  C128  1  0.11353874  0.15994152  0.31219319  1  0.361064  0  -0.007683  -0.072066  0  4.034089  0
C  C129  1  0.84590667  0.85388754  0.66708884  1  0.406296  0  0.004339  -0.058329  0  4.014662  0
C  C130  1  0.89679158  0.06986563  0.60576031  1  0.338062  0  0.006796  -0.051377  0  3.963829  0
C  C131  1  0.04114129  0.91294031  0.33864512  1  0.429575  0  0.020273  -0.022219  0  3.940541  0
C  C132  1  0.58037185  0.57046659  0.86680994  1  0.433145  0  0.006531  -0.050616  0  3.987855  0
C  C133  1  0.44213493  0.41701684  0.12934915  1  0.394842  0  0.00481  -0.060168  0  4.004633  0
C  C134  1  0.40007884  0.65061745  0.17257591  1  0.368216  0  0.002954  -0.066608  0  4.015579  0
C  C135  1  0.63875660  0.34460294  0.81950803  1  0.381395  0  0.008214  -0.056714  0  3.995875  0
C  C136  1  0.71156216  0.11282776  0.43756962  1  0.216109  0  0.032402  0.055707  0  3.972127  0
C  C137  1  0.68730211  0.60868101  0.14956706  1  0.343766  0  0.013233  -0.050141  0  3.971847  0
C  C138  1  0.24238011  0.92721354  0.60375304  1  0.26116  0  0.041496  0.081529  0  3.928261  0
C  C139  1  0.29809746  0.17037931  0.60591878  1  0.299443  0  0.035304  0.083574  0  3.97446  0
C  C140  1  0.81879356  0.84824989  0.39506750  1  0.259689  0  0.040563  0.07269  0  3.954864  0
C  C141  1  0.17686965  0.69040611  0.93466421  1  0.261605  0  0.033069  0.091013  0  3.979497  0
C  C142  1  0.82583816  0.32228886  0.11451734  1  0.270621  0  0.034943  0.085819  0  3.970085  0
C  C143  1  0.80005409  0.57648104  0.07873718  1  0.259137  0  0.036236  0.060441  0  3.949569  0
C  C144  1  0.24052409  0.40728368  0.93258664  1  0.226877  0  0.038635  0.063152  0  3.950808  0
C  C145  1  0.21972088  0.20817497  0.63245569  1  -0.006224  0  -0.055168  -0.029887  0  4.149777  0
C  C146  1  0.87052330  0.78176263  0.38419049  1  0.033755  0  -0.040696  -0.009212  0  4.086497  0
C  C147  1  0.72910209  0.15954875  0.38077309  1  0.056526  0  -0.037462  0.012035  0  4.0684  0
C  C148  1  0.34593931  0.38311797  0.85261582  1  0.412098  0  0.019967  -0.031842  0  3.956743  0
C  C149  1  0.20770868  0.88650291  0.66119382  1  0.023467  0  -0.042448  0.001109  0  4.100684  0
C  C150  1  0.78228599  0.61142156  0.14354510  1  0.07917  0  -0.034789  0.01204  0  4.072609  0
C  C151  1  0.25187016  0.37631607  0.86594638  1  0.038367  0  -0.034021  0.014588  0  4.090885  0
C  C152  1  0.25280496  0.72167580  0.89663778  1  0.011854  0  -0.053779  -0.023079  0  4.125527  0
C  C153  1  0.75118080  0.33811756  0.16126695  1  0.000601  0  -0.052565  -0.021389  0  4.123352  0
C  C154  1  0.20832705  0.16449135  0.30605380  1  0.036678  0  -0.042192  -0.049573  0  4.09577  0
C  C155  1  0.75211387  0.84793114  0.68118840  1  0.050146  0  -0.039253  -0.043669  0  4.093567  0
C  C156  1  0.89944485  0.14888566  0.59812381  1  0.028698  0  -0.029689  -0.033367  0  4.045433  0
C  C157  1  0.11143698  0.86445275  0.35415876  1  -0.001811  0  -0.034197  -0.037548  0  4.087831  0
C  C158  1  0.58679496  0.64977471  0.87784874  1  -0.023054  0  -0.031089  -0.034684  0  4.065619  0
C  C159  1  0.32147124  0.67141652  0.91110754  1  0.367239  0  -0.006652  -0.058906  0  3.978854  0
C  C160  1  0.42580174  0.33888655  0.11716497  1  0.045208  0  -0.030464  -0.029083  0  4.056521  0
C  C161  1  0.30617341  0.65754989  0.18227025  1  0.04281  0  -0.033625  -0.034255  0  4.092618  0
C  C162  1  0.73135545  0.34468462  0.80010830  1  0.090701  0  -0.032758  -0.037301  0  4.069972  0
C  C163  1  0.80927077  0.27980604  0.63383113  1  -0.033499  0  -0.081923  -0.084701  0  3.650508  0
C  C164  1  0.22134584  0.74554142  0.33540747  1  -0.055371  0  -0.084584  -0.089791  0  3.663454  0
C  C165  1  0.33161284  0.27568992  0.27464843  1  -0.039154  0  -0.084819  -0.091649  0  3.661331  0
C  C166  1  0.66253733  0.71738395  0.71659296  1  -0.035146  0  -0.083622  -0.08869  0  3.658234  0
C  C167  1  0.19166179  0.77286269  0.20161987  1  -0.024312  0  -0.081298  -0.085388  0  3.643626  0
C  C168  1  0.82745541  0.22196076  0.76031080  1  -0.018607  0  -0.080451  -0.08241  0  3.643513  0
C  C169  1  0.66809655  0.78561672  0.84327590  1  -0.007079  0  -0.081626  -0.08591  0  3.653805  0
C  C170  1  0.69492197  0.37922701  0.12061028  1  0.36853  0  -0.005718  -0.052323  0  3.964062  0
C  C171  1  0.30844116  0.21908948  0.14524073  1  -0.042328  0  -0.082527  -0.085411  0  3.654999  0
C  C172  1  0.23390477  0.83153509  0.25343547  1  -0.042074  0  -0.080426  -0.082911  0  3.648101  0
C  C173  1  0.77876479  0.18032683  0.70002578  1  -0.066455  0  -0.084514  -0.089237  0  3.664095  0
C  C174  1  0.62078343  0.81817847  0.78026410  1  -0.044766  0  -0.084912  -0.09405  0  3.669016  0
C  C175  1  0.34416449  0.17330033  0.20603900  1  -0.052953  0  -0.083598  -0.087532  0  3.657674  0
C  C176  1  0.85750435  0.32163483  0.69459336  1  -0.049916  0  -0.083885  -0.091706  0  3.6646  0
C  C177  1  0.17939381  0.68683939  0.28319200  1  -0.021236  0  -0.083886  -0.090612  0  3.662805  0
C  C178  1  0.29541140  0.32140595  0.21420728  1  -0.031267  0  -0.085547  -0.087031  0  3.664076  0
C  C179  1  0.71021458  0.68492885  0.77910750  1  -0.050514  0  -0.084665  -0.086346  0  3.663595  0
C  C180  1  0.15825039  0.80847199  0.30978138  1  0.056656  0  -0.003321  0.079944  0  3.723364  0
C  C181  1  0.72892125  0.25518805  0.68448603  1  -0.004015  0  -0.084012  -0.085667  0  3.655234  0
C  C182  1  0.85910550  0.20380066  0.64831082  1  0.059405  0  -0.00197  0.077071  0  3.681421  0
C  C183  1  0.70622783  0.79903170  0.73250254  1  0.038805  0  -0.002424  0.084005  0  3.705092  0
C  C184  1  0.26606311  0.20629944  0.25572225  1  0.051409  0  -0.001659  0.085242  0  3.692984  0
C  C185  1  0.77637232  0.29783434  0.74567971  1  0.031931  0  -0.002071  0.08091  0  3.687327  0
C  C186  1  0.25529457  0.70984816  0.22774741  1  0.040815  0  -0.004133  0.083282  0  3.727108  0
C  C187  1  0.37243526  0.28905437  0.16402564  1  0.042647  0  -0.002974  0.078428  0  3.691934  0
C  C188  1  0.62552949  0.70423647  0.82792660  1  0.02122  0  -0.003205  0.07792  0  3.701744  0
C  C189  1  0.32729305  0.96483478  0.77079130  1  -0.043829  0  -0.244498  -0.405166  0  3.993712  0
C  C190  1  0.73758438  0.33286164  0.41057657  1  -0.078222  0  -0.239619  -0.403716  0  3.989333  0
C  C191  1  0.96986734  0.62685067  0.35372496  1  -0.047768  0  -0.237126  -0.399459  0  3.97196  0
I  I192  1  0.60058904  0.11284751  0.50696707  1  0.162151  0  0.078225  -0.023432  0  1.600309  0
I  I193  1  0.37810666  0.94424620  0.57414860  1  0.126719  0  0.053581  -0.063083  0  1.524096  0
I  I194  1  0.43041720  0.19011933  0.63666842  1  0.062374  0  0.038091  -0.065388  0  1.538753  0
I  I195  1  0.71098813  0.88496247  0.34093124  1  0.133992  0  0.080118  -0.018852  0  1.393694  0
I  I196  1  0.04714555  0.73469553  0.93930230  1  0.068415  0  0.01974  -0.089942  0  1.423868  0
I  I197  1  0.94352875  0.26549799  0.13564761  1  0.065091  0  0.030115  -0.085676  0  1.408621  0
I  I198  1  0.92183087  0.54883311  0.02845613  1  0.178819  0  0.113014  0.017337  0  1.686035  0
I  I199  1  0.12299010  0.41506502  0.99457191  1  0.168679  0  0.103503  0.011324  0  1.566904  0
N  N200  1  0.18790305  0.11897058  0.55214612  1  -0.810256  0  -0.286603  -0.171916  0  3.653146  0
N  N201  1  0.78409179  0.92547309  0.59248961  1  -0.812518  0  -0.285989  -0.194304  0  3.625941  0
N  N202  1  0.96894712  0.08999269  0.50599760  1  -0.799059  0  -0.28204  -0.197682  0  3.558483  0
N  N203  1  0.08176193  0.94655175  0.44264368  1  -0.807138  0  -0.298428  -0.241259  0  3.640466  0
N  N204  1  0.52692870  0.59210996  0.97252338  1  -0.806633  0  -0.289654  -0.203371  0  3.613602  0
N  N205  1  0.50508756  0.39095199  0.02724603  1  -0.796184  0  -0.289334  -0.199713  0  3.618716  0
N  N206  1  0.33838165  0.57097105  0.09860248  1  -0.809882  0  -0.290112  -0.199282  0  3.647115  0
N  N207  1  0.70589307  0.41988313  0.89439411  1  -0.798489  0  -0.280017  -0.189307  0  3.620933  0
N  N208  1  0.08693247  0.11829752  0.36737664  1  -0.811225  0  -0.293512  -0.196468  0  3.631863  0
N  N209  1  0.86466789  0.90005437  0.61407286  1  -0.807091  0  -0.278544  -0.185443  0  3.560447  0
N  N210  1  0.93637736  0.03420213  0.54961841  1  -0.8667  0  -0.289082  -0.219346  0  3.576805  0
N  N211  1  0.91858300  0.85343296  0.47476958  1  -0.766675  0  -0.264595  -0.147241  0  3.546251  0
N  N212  1  0.02458706  0.96135643  0.39180835  1  -0.81259  0  -0.289435  -0.174225  0  3.641457  0
N  N213  1  0.54547213  0.53673672  0.92367758  1  -0.83039  0  -0.292275  -0.20977  0  3.66746  0
N  N214  1  0.48879661  0.44769698  0.07530149  1  -0.843349  0  -0.294293  -0.213607  0  3.667256  0
N  N215  1  0.41879050  0.59884936  0.12189313  1  -0.813573  0  -0.291084  -0.180154  0  3.640094  0
N  N216  1  0.62410274  0.38915589  0.87611231  1  -0.810746  0  -0.283586  -0.175783  0  3.617214  0
N  N217  1  0.78145320  0.06537815  0.44490440  1  -0.778146  0  -0.29008  -0.228974  0  3.63655  0
N  N218  1  0.17585495  0.94594016  0.56247153  1  -0.753654  0  -0.261172  -0.223491  0  3.458195  0
N  N219  1  0.28003861  0.11831730  0.55726131  1  -0.718447  0  -0.276677  -0.269919  0  3.290093  0
N  N220  1  0.84782054  0.89014841  0.44864298  1  -0.809231  0  -0.288896  -0.235871  0  3.614194  0
N  N221  1  0.19617289  0.62853126  0.96903639  1  -0.690242  0  -0.285099  -0.290903  0  3.273832  0
N  N222  1  0.84478254  0.07928742  0.39252824  1  -0.815486  0  -0.288362  -0.177321  0  3.614856  0
N  N223  1  0.81656196  0.35027593  0.05244759  1  -0.7004  0  -0.286647  -0.285144  0  3.264881  0
N  N224  1  0.72179866  0.55532325  0.04886123  1  -0.784606  0  -0.283872  -0.23547  0  3.567109  0
N  N225  1  0.32149212  0.43223032  0.95637783  1  -0.782336  0  -0.294602  -0.240047  0  3.567816  0
N  N226  1  0.09651288  0.91696909  0.59169571  1  -0.811622  0  -0.288276  -0.172479  0  3.646894  0
N  N227  1  0.65201613  0.57522637  0.09369038  1  -0.805157  0  -0.284187  -0.154677  0  3.643242  0
N  N228  1  0.38684857  0.41629342  0.90593606  1  -0.805654  0  -0.284379  -0.167583  0  3.616267  0
N  N229  1  0.28640441  0.61684458  0.95315205  1  -0.840767  0  -0.298379  -0.1958  0  3.672926  0
N  N230  1  0.73404662  0.38477000  0.05668471  1  -0.813769  0  -0.301  -0.195856  0  3.670014  0
N  N231  1  0.16266877  0.09461024  0.39774585  1  -0.795746  0  -0.265986  -0.17802  0  3.528679  0
