# generated using pymatgen
data_Ag3PH7C8S2N(O3F2)3
_symmetry_space_group_name_H-M   'P 1'
_cell_length_a   9.33430407
_cell_length_b   13.07321814
_cell_length_c   16.24400000
_cell_angle_alpha   108.91771044
_cell_angle_beta   90.00000000
_cell_angle_gamma   90.00000000
_symmetry_Int_Tables_number   1
_chemical_formula_structural   Ag3PH7C8S2N(O3F2)3
_chemical_formula_sum   'Ag12 P4 H28 C32 S8 N4 O36 F24'
_cell_volume   1875.17485061
_cell_formula_units_Z   4
loop_
 _symmetry_equiv_pos_site_id
 _symmetry_equiv_pos_as_xyz
  1  'x, y, z'
loop_
 _atom_site_type_symbol
 _atom_site_label
 _atom_site_symmetry_multiplicity
 _atom_site_fract_x
 _atom_site_fract_y
 _atom_site_fract_z
 _atom_site_occupancy
 _atom_site_hle17_bader_spin_density
 _atom_site_hle17_ddec_charge
 _atom_site_hle17_ddec_spin_density
 _atom_site_hle17_ddec_sum_bond_order
 _atom_site_hle17_magmom
 _atom_site_hse06_10hf_bader_spin_density
 _atom_site_hse06_10hf_ddec_charge
 _atom_site_hse06_10hf_ddec_spin_density
 _atom_site_hse06_10hf_ddec_sum_bond_order
 _atom_site_hse06_10hf_magmom
 _atom_site_hse06_bader_spin_density
 _atom_site_hse06_ddec_charge
 _atom_site_hse06_ddec_spin_density
 _atom_site_hse06_ddec_sum_bond_order
 _atom_site_hse06_magmom
 _atom_site_pbe_bader_charge
 _atom_site_pbe_bader_spin_density
 _atom_site_pbe_cm5_charge
 _atom_site_pbe_ddec_charge
 _atom_site_pbe_ddec_spin_density
 _atom_site_pbe_ddec_sum_bond_order
 _atom_site_pbe_magmom
Ag  Ag0  1  0.65502152  0.46967226  0.80902794  1  0  0.702707  0  1.333695  0  0  0.596121  0  1.760794  0  0  0.625216  0  1.704714  0  0.675799  0  0.454726  0.575318  0  1.800041  0
Ag  Ag1  1  0.15502066  0.53032930  0.69097222  1  0  0.702726  0  1.333649  0  0  0.59615  0  1.760753  0  0  0.625238  0  1.704675  0  0.675785  0  0.454746  0.575349  0  1.799999  0
Ag  Ag2  1  0.34498019  0.53032688  0.19097035  1  0  0.702712  0  1.333613  0  0  0.596107  0  1.760733  0  0  0.625202  0  1.704653  0  0.675842  0  0.45471  0.575304  0  1.799982  0
Ag  Ag3  1  0.84498104  0.46967064  0.30902875  1  0  0.702691  0  1.333678  0  0  0.596087  0  1.760805  0  0  0.625179  0  1.704726  0  0.675813  0  0.45471  0.575284  0  1.800052  0
Ag  Ag4  1  0.12767315  0.56262393  0.02163337  1  0  0.680099  0  1.36237  0  0  0.572996  0  1.808968  0  0  0.604061  0  1.747359  0  0.667509  0  0.444956  0.550699  0  1.852208  0
Ag  Ag5  1  0.62767186  0.43737681  0.47836658  1  0  0.680094  0  1.362414  0  0  0.573006  0  1.809014  0  0  0.604072  0  1.747404  0  0.667469  0  0.444954  0.550708  0  1.852252  0
Ag  Ag6  1  0.87232749  0.43737439  0.97836656  1  0  0.680123  0  1.362331  0  0  0.573038  0  1.808918  0  0  0.604102  0  1.747309  0  0.667719  0  0.444958  0.550741  0  1.852156  0
Ag  Ag7  1  0.37232770  0.56262393  0.52163398  1  0  0.68011  0  1.362393  0  0  0.573028  0  1.808982  0  0  0.604094  0  1.747374  0  0.667743  0  0.444965  0.55073  0  1.852221  0
Ag  Ag8  1  0.29561497  0.49169606  0.84195685  1  0  0.698608  0  1.254845  0  0  0.592877  0  1.686323  0  0  0.624704  0  1.625547  0  0.700534  0  0.435179  0.56957  0  1.729315  0
Ag  Ag9  1  0.79561154  0.50830145  0.65804226  1  0  0.69863  0  1.254811  0  0  0.592946  0  1.68625  0  0  0.624768  0  1.625472  0  0.700457  0  0.435193  0.56964  0  1.729242  0
Ag  Ag10  1  0.70438567  0.50830064  0.15804143  1  0  0.698596  0  1.25483  0  0  0.592892  0  1.686294  0  0  0.624716  0  1.625516  0  0.700538  0  0.435172  0.569585  0  1.729286  0
Ag  Ag11  1  0.20438374  0.49169768  0.34195850  1  0  0.698624  0  1.254804  0  0  0.592912  0  1.686279  0  0  0.624738  0  1.625502  0  0.70053  0  0.43517  0.569606  0  1.729272  0
P  P12  1  0.95514459  0.59788046  0.85972519  1  0  1.460475  0  4.90483  0  0  1.30968  0  5.363507  0  0  1.358887  0  5.339391  0  3.333117  0  0.311391  1.275367  0  5.378985  0
P  P13  1  0.45514588  0.40211867  0.64027495  1  0  1.460511  0  4.904758  0  0  1.309717  0  5.363441  0  0  1.358931  0  5.33932  0  3.333139  0  0.311403  1.275405  0  5.378914  0
P  P14  1  0.04485391  0.40211867  0.14027434  1  0  1.460571  0  4.904745  0  0  1.309799  0  5.363409  0  0  1.359005  0  5.339296  0  3.333137  0  0.311397  1.275486  0  5.37889  0
P  P15  1  0.54485476  0.59788046  0.35972458  1  0  1.460595  0  4.904757  0  0  1.30979  0  5.363403  0  0  1.359004  0  5.339288  0  3.333131  0  0.311402  1.275476  0  5.378885  0
H  H16  1  0.81479668  0.84493573  0.81477908  1  0  0.316443  0  0.893637  0  0  0.296225  0  0.95535  0  0  0.30503  0  0.948422  0  0.548748  0  0.317271  0.289918  0  0.960407  0
H  H17  1  0.31479262  0.15506421  0.68522004  1  0  0.3164  0  0.893692  0  0  0.296221  0  0.955346  0  0  0.305028  0  0.948418  0  0.5487  0  0.317271  0.289912  0  0.960408  0
H  H18  1  0.18520502  0.15506501  0.18522025  1  0  0.316409  0  0.893711  0  0  0.296216  0  0.955383  0  0  0.305021  0  0.948456  0  0.548727  0  0.317269  0.289909  0  0.960442  0
H  H19  1  0.68520588  0.84493654  0.31477868  1  0  0.316424  0  0.893648  0  0  0.296239  0  0.955317  0  0  0.305046  0  0.94839  0  0.548736  0  0.317269  0.28993  0  0.960379  0
H  H20  1  0.75815293  0.72300953  0.88950882  1  0  0.163219  0  0.929826  0  0  0.174809  0  0.989817  0  0  0.177279  0  0.988852  0  0.117391  0  0.113852  0.172985  0  0.990606  0
H  H21  1  0.25815422  0.27699041  0.61049153  1  0  0.163237  0  0.929803  0  0  0.174833  0  0.989795  0  0  0.177303  0  0.988831  0  0.117402  0  0.113858  0.173001  0  0.990604  0
H  H22  1  0.24184556  0.27698960  0.11049009  1  0  0.16326  0  0.929801  0  0  0.174859  0  0.989796  0  0  0.177337  0  0.988824  0  0.117402  0  0.11388  0.173035  0  0.990586  0
H  H23  1  0.74184534  0.72301034  0.38950965  1  0  0.163267  0  0.929853  0  0  0.174851  0  0.989822  0  0  0.177328  0  0.988853  0  0.117389  0  0.113861  0.17303  0  0.990607  0
H  H24  1  0.85815825  0.73032169  0.98545886  1  0  0.174436  0  0.927489  0  0  0.188804  0  0.984009  0  0  0.190793  0  0.983979  0  0.145305  0  0.11797  0.187338  0  0.984152  0
H  H25  1  0.35815846  0.26967663  0.51454046  1  0  0.174423  0  0.927497  0  0  0.188819  0  0.984001  0  0  0.190809  0  0.98397  0  0.14529  0  0.117975  0.187351  0  0.984141  0
H  H26  1  0.14184025  0.26967663  0.01453923  1  0  0.174427  0  0.927492  0  0  0.188835  0  0.983984  0  0  0.190825  0  0.983954  0  0.145276  0  0.117977  0.187367  0  0.984124  0
H  H27  1  0.64184003  0.73032412  0.48546010  1  0  0.174457  0  0.927523  0  0  0.188832  0  0.984015  0  0  0.190822  0  0.983987  0  0.145204  0  0.117975  0.187367  0  0.984156  0
H  H28  1  0.11459022  0.81357099  0.99966160  1  0  0.140583  0  0.924087  0  0  0.150386  0  0.979418  0  0  0.153809  0  0.978325  0  0.157361  0  0.117488  0.147875  0  0.980425  0
H  H29  1  0.61459108  0.18642976  0.50034143  1  0  0.140605  0  0.924108  0  0  0.150399  0  0.979442  0  0  0.153823  0  0.978347  0  0.157158  0  0.117508  0.147887  0  0.98045  0
H  H30  1  0.88541041  0.18642814  0.00033793  1  0  0.140578  0  0.924098  0  0  0.150376  0  0.979442  0  0  0.153799  0  0.978348  0  0.157362  0  0.117496  0.147864  0  0.980449  0
H  H31  1  0.38540956  0.81357099  0.49965913  1  0  0.140555  0  0.924133  0  0  0.150365  0  0.97945  0  0  0.153787  0  0.978356  0  0.157171  0  0.117491  0.147853  0  0.980458  0
H  H32  1  0.25584018  0.96446364  0.97614173  1  0  0.106079  0  0.9313  0  0  0.113065  0  0.994648  0  0  0.116083  0  0.991514  0  0.140076  0  0.107213  0.110723  0  0.997102  0
H  H33  1  0.75583782  0.03553388  0.52386106  1  0  0.106103  0  0.931313  0  0  0.113088  0  0.994663  0  0  0.116105  0  0.991529  0  0.140119  0  0.107232  0.110745  0  0.997119  0
H  H34  1  0.74416046  0.03553388  0.02386045  1  0  0.106097  0  0.931321  0  0  0.113077  0  0.994675  0  0  0.116094  0  0.991543  0  0.140085  0  0.107229  0.110735  0  0.997131  0
H  H35  1  0.24415961  0.96446444  0.47613764  1  0  0.1061  0  0.931327  0  0  0.113099  0  0.994651  0  0  0.116104  0  0.991532  0  0.14008  0  0.107238  0.110758  0  0.997106  0
H  H36  1  0.16275771  0.05470414  0.87037562  1  0  0.130617  0  0.94912  0  0  0.135318  0  1.014005  0  0  0.138869  0  1.012624  0  0.162259  0  0.111412  0.132675  0  1.015308  0
H  H37  1  0.66275107  0.94529418  0.62962492  1  0  0.13063  0  0.949023  0  0  0.135313  0  1.013926  0  0  0.138862  0  1.012546  0  0.162181  0  0.111385  0.132672  0  1.01523  0
H  H38  1  0.83724721  0.94529580  0.12962596  1  0  0.130624  0  0.949046  0  0  0.135311  0  1.013944  0  0  0.138863  0  1.012562  0  0.162194  0  0.111395  0.132666  0  1.015243  0
H  H39  1  0.33724742  0.05470576  0.37037482  1  0  0.130642  0  0.949028  0  0  0.135342  0  1.013916  0  0  0.138894  0  1.012532  0  0.162149  0  0.111394  0.132704  0  1.015222  0
H  H40  1  0.93196557  0.98560850  0.79256637  1  0  0.1054  0  0.951378  0  0  0.111977  0  1.015275  0  0  0.114818  0  1.012114  0  0.18092  0  0.125113  0.109827  0  1.017635  0
H  H41  1  0.43195936  0.01439063  0.70743439  1  0  0.105377  0  0.951277  0  0  0.111973  0  1.015205  0  0  0.114816  0  1.012039  0  0.181027  0  0.125071  0.109819  0  1.017575  0
H  H42  1  0.06803828  0.01439387  0.20743585  1  0  0.105426  0  0.951262  0  0  0.112002  0  1.015188  0  0  0.114844  0  1.012023  0  0.181057  0  0.125107  0.109849  0  1.017556  0
H  H43  1  0.56803806  0.98561011  0.29256494  1  0  0.105418  0  0.951337  0  0  0.112037  0  1.015222  0  0  0.11488  0  1.012057  0  0.181025  0  0.125109  0.109885  0  1.017589  0
C  C44  1  0.86613956  0.72657869  0.91699576  1  0  -0.523215  0  3.65027  0  0  -0.542902  0  3.881584  0  0  -0.554887  0  3.889527  0  -0.508043  0  -0.163433  -0.534521  0  3.876233  0
C  C45  1  0.36613978  0.27341964  0.58300294  1  0  -0.523232  0  3.65025  0  0  -0.54299  0  3.881589  0  0  -0.554976  0  3.889526  0  -0.508003  0  -0.163452  -0.534604  0  3.876224  0
C  C46  1  0.13385893  0.27341964  0.08300294  1  0  -0.523287  0  3.65028  0  0  -0.543076  0  3.881693  0  0  -0.55507  0  3.889627  0  -0.508024  0  -0.163473  -0.534687  0  3.876332  0
C  C47  1  0.63385979  0.72657949  0.41699597  1  0  -0.523438  0  3.650386  0  0  -0.543122  0  3.881681  0  0  -0.555106  0  3.889597  0  -0.507926  0  -0.163496  -0.534742  0  3.876337  0
C  C48  1  0.95090646  0.81874036  0.90889702  1  0  0.35947  0  3.642691  0  0  0.345295  0  3.890481  0  0  0.358158  0  3.907654  0  0.4281  0  0.151441  0.336692  0  3.878859  0
C  C49  1  0.45090560  0.18125877  0.59110312  1  0  0.359408  0  3.642724  0  0  0.345281  0  3.890447  0  0  0.358146  0  3.907622  0  0.428086  0  0.15141  0.33668  0  3.878822  0
C  C50  1  0.04909311  0.18125877  0.09110128  1  0  0.359409  0  3.642776  0  0  0.345266  0  3.890547  0  0  0.35813  0  3.907725  0  0.428117  0  0.151391  0.336663  0  3.878924  0
C  C51  1  0.54909289  0.81874279  0.40889581  1  0  0.359496  0  3.642743  0  0  0.345361  0  3.890437  0  0  0.358226  0  3.907606  0  0.428144  0  0.151517  0.336757  0  3.878818  0
C  C52  1  0.07822436  0.85419662  0.95467824  1  0  -0.154095  0  3.639234  0  0  -0.17022  0  3.890115  0  0  -0.179733  0  3.911539  0  0.018544  0  -0.069455  -0.164264  0  3.87602  0
C  C53  1  0.57822307  0.14580332  0.54532335  1  0  -0.154052  0  3.639122  0  0  -0.170158  0  3.889949  0  0  -0.179672  0  3.911373  0  0.018785  0  -0.069432  -0.164203  0  3.875857  0
C  C54  1  0.92177627  0.14580332  0.04532211  1  0  -0.154046  0  3.639159  0  0  -0.170172  0  3.890006  0  0  -0.179686  0  3.911429  0  0.01854  0  -0.069448  -0.164216  0  3.875914  0
C  C55  1  0.42177756  0.85419743  0.45467599  1  0  -0.154019  0  3.639144  0  0  -0.170158  0  3.890004  0  0  -0.17967  0  3.911423  0  0.018735  0  -0.069464  -0.164201  0  3.875913  0
C  C56  1  0.15578130  0.93816962  0.94124107  1  0  0.020973  0  3.694755  0  0  -0.009329  0  3.963319  0  0  -0.003213  0  3.980319  0  -0.006723  0  -0.058265  -0.013032  0  3.951796  0
C  C57  1  0.65578001  0.06182871  0.55876132  1  0  0.02094  0  3.694789  0  0  -0.009378  0  3.963347  0  0  -0.003262  0  3.980349  0  -0.006692  0  -0.058294  -0.013081  0  3.951824  0
C  C58  1  0.84421934  0.06182871  0.05875947  1  0  0.020983  0  3.694668  0  0  -0.00932  0  3.963217  0  0  -0.003201  0  3.980217  0  -0.006708  0  -0.058235  -0.013025  0  3.951693  0
C  C59  1  0.34421848  0.93817123  0.44123903  1  0  0.02092  0  3.69475  0  0  -0.009383  0  3.963295  0  0  -0.003257  0  3.980299  0  -0.006618  0  -0.058282  -0.013084  0  3.951768  0
C  C60  1  0.10579150  0.98867309  0.88286058  1  0  -0.118264  0  3.715987  0  0  -0.13554  0  3.982488  0  0  -0.143749  0  4.004031  0  0.003295  0  -0.077983  -0.130445  0  3.968263  0
C  C61  1  0.60578485  0.01132443  0.61713914  1  0  -0.118354  0  3.71593  0  0  -0.135599  0  3.982461  0  0  -0.143806  0  4.003998  0  0.003346  0  -0.077989  -0.130502  0  3.968225  0
C  C62  1  0.89421450  0.01132685  0.11713977  1  0  -0.118306  0  3.715894  0  0  -0.135554  0  3.982387  0  0  -0.143763  0  4.003926  0  0.0034  0  -0.077993  -0.130455  0  3.968159  0
C  C63  1  0.39421150  0.98867551  0.38285937  1  0  -0.118355  0  3.715849  0  0  -0.135631  0  3.982382  0  0  -0.143837  0  4.003913  0  0.003371  0  -0.078035  -0.130542  0  3.968158  0
C  C64  1  0.97957812  0.95198210  0.83904603  1  0  0.15606  0  3.608142  0  0  0.112747  0  3.863902  0  0  0.120888  0  3.880114  0  0.3838  0  0.06551  0.107449  0  3.853126  0
C  C65  1  0.47957084  0.04801703  0.66095349  1  0  0.156121  0  3.607863  0  0  0.112761  0  3.863628  0  0  0.1209  0  3.879845  0  0.383366  0  0.065567  0.107466  0  3.852848  0
C  C66  1  0.02042573  0.04801784  0.16095432  1  0  0.156029  0  3.607859  0  0  0.112694  0  3.863619  0  0  0.120836  0  3.879832  0  0.383278  0  0.065509  0.107397  0  3.852839  0
C  C67  1  0.52042766  0.95198210  0.33904542  1  0  0.15608  0  3.607902  0  0  0.112712  0  3.863673  0  0  0.120851  0  3.87989  0  0.383662  0  0.065567  0.107417  0  3.852894  0
C  C68  1  0.50118359  0.80537988  0.06650673  1  0  0.602307  0  3.657268  0  0  0.531384  0  4.026518  0  0  0.559481  0  3.999522  0  1.627011  0  0.288268  0.511072  0  4.046419  0
C  C69  1  0.00117845  0.19461925  0.43349465  1  0  0.602215  0  3.657444  0  0  0.531294  0  4.026683  0  0  0.559383  0  3.999707  0  1.626936  0  0.288253  0.510984  0  4.046583  0
C  C70  1  0.49881598  0.19461925  0.93349157  1  0  0.602037  0  3.657686  0  0  0.531201  0  4.026784  0  0  0.55926  0  3.999861  0  1.626933  0  0.288232  0.510889  0  4.046684  0
C  C71  1  0.99881897  0.80538150  0.56650899  1  0  0.602174  0  3.657484  0  0  0.53134  0  4.026578  0  0  0.559405  0  3.999641  0  1.626838  0  0.288289  0.511025  0  4.046479  0
C  C72  1  0.92520556  0.18991644  0.71749596  1  0  0.597324  0  3.666955  0  0  0.531896  0  4.026159  0  0  0.559368  0  4.000686  0  1.653618  0  0.287941  0.512199  0  4.044651  0
C  C73  1  0.42520792  0.81008593  0.78250564  1  0  0.597049  0  3.667429  0  0  0.531752  0  4.026422  0  0  0.559211  0  4.00098  0  1.653607  0  0.287869  0.512056  0  4.044916  0
C  C74  1  0.07479401  0.81008431  0.28250461  1  0  0.597264  0  3.667106  0  0  0.531785  0  4.026395  0  0  0.559252  0  4.000938  0  1.653568  0  0.287864  0.512097  0  4.044874  0
C  C75  1  0.57479272  0.18991644  0.21749411  1  0  0.597186  0  3.667243  0  0  0.531619  0  4.026674  0  0  0.559085  0  4.00122  0  1.653624  0  0.287797  0.511935  0  4.045147  0
S  S76  1  0.50522781  0.65417189  0.02873278  1  0  1.155476  0  5.761188  0  0  1.057376  0  6.282773  0  0  1.100657  0  6.267936  0  3.252779  0  0.493292  1.027588  0  6.292055  0
S  S77  1  0.00522696  0.34582724  0.47126798  1  0  1.155559  0  5.761112  0  0  1.057462  0  6.282684  0  0  1.100743  0  6.267849  0  3.25277  0  0.493275  1.027674  0  6.291965  0
S  S78  1  0.49477283  0.34582886  0.97126347  1  0  1.155636  0  5.761467  0  0  1.057534  0  6.283026  0  0  1.100827  0  6.26819  0  3.25255  0  0.493302  1.027745  0  6.292308  0
S  S79  1  0.99477154  0.65417270  0.52873607  1  0  1.155619  0  5.76135  0  0  1.057524  0  6.282896  0  0  1.100812  0  6.26806  0  3.252658  0  0.493314  1.027737  0  6.292178  0
S  S80  1  0.08314171  0.24240097  0.78951910  1  0  1.149065  0  5.776943  0  0  1.050771  0  6.30572  0  0  1.093993  0  6.287755  0  3.281339  0  0.494786  1.020995  0  6.317358  0
S  S81  1  0.58314042  0.75759977  0.71048331  1  0  1.149223  0  5.777026  0  0  1.050917  0  6.305771  0  0  1.094143  0  6.287804  0  3.281357  0  0.49484  1.02114  0  6.317415  0
S  S82  1  0.91685893  0.75759735  0.21048206  1  0  1.149017  0  5.777015  0  0  1.050747  0  6.305785  0  0  1.093967  0  6.28782  0  3.281332  0  0.494775  1.020968  0  6.317426  0
S  S83  1  0.41686021  0.24240097  0.28951787  1  0  1.149132  0  5.777033  0  0  1.050894  0  6.305797  0  0  1.094118  0  6.287826  0  3.281195  0  0.494811  1.021113  0  6.317441  0
N  N84  1  0.90740884  0.86918319  0.85240848  1  0  -0.255902  0  3.393237  0  0  -0.183055  0  3.605509  0  0  -0.199564  0  3.620937  0  -1.29939  0  -0.334192  -0.172158  0  3.595219  0
N  N85  1  0.40740584  0.13081675  0.64759064  1  0  -0.255827  0  3.393214  0  0  -0.183012  0  3.605439  0  0  -0.199527  0  3.620871  0  -1.299132  0  -0.334189  -0.172115  0  3.595148  0
N  N86  1  0.09259608  0.13081837  0.14759106  1  0  -0.255827  0  3.393137  0  0  -0.182986  0  3.605362  0  0  -0.199498  0  3.620792  0  -1.299087  0  -0.334169  -0.172089  0  3.595073  0
N  N87  1  0.59259158  0.86918400  0.35240869  1  0  -0.255819  0  3.393325  0  0  -0.183014  0  3.605593  0  0  -0.199528  0  3.621023  0  -1.29948  0  -0.3342  -0.172117  0  3.595302  0
O  O88  1  0.10454984  0.60373715  0.90159932  1  0  -0.865813  0  2.192855  0  0  -0.749262  0  2.489466  0  0  -0.786328  0  2.470243  0  -1.370396  0  -0.383813  -0.7229  0  2.501756  0
O  O89  1  0.60454962  0.39626118  0.59839938  1  0  -0.865832  0  2.192858  0  0  -0.749306  0  2.489531  0  0  -0.78637  0  2.470304  0  -1.370332  0  -0.383784  -0.722943  0  2.501822  0
O  O90  1  0.89544865  0.39626118  0.09840123  1  0  -0.865819  0  2.192845  0  0  -0.749306  0  2.489516  0  0  -0.786369  0  2.470291  0  -1.370441  0  -0.383781  -0.722944  0  2.501808  0
O  O91  1  0.39545101  0.60373715  0.40159994  1  0  -0.865846  0  2.192789  0  0  -0.749313  0  2.489474  0  0  -0.78639  0  2.470256  0  -1.37039  0  -0.38382  -0.72295  0  2.501765  0
O  O92  1  0.85926599  0.50857557  0.87348192  1  0  -0.848815  0  2.2672  0  0  -0.723682  0  2.571849  0  0  -0.761311  0  2.552227  0  -1.356331  0  -0.39062  -0.697053  0  2.58447  0
O  O93  1  0.35926513  0.49142518  0.62651926  1  0  -0.848756  0  2.267052  0  0  -0.723627  0  2.571698  0  0  -0.761255  0  2.552074  0  -1.356314  0  -0.390634  -0.696998  0  2.584319  0
O  O94  1  0.14073143  0.49142599  0.12651948  1  0  -0.848826  0  2.267161  0  0  -0.723683  0  2.571792  0  0  -0.761316  0  2.552174  0  -1.356319  0  -0.390647  -0.697056  0  2.584416  0
O  O95  1  0.64073764  0.50857557  0.37348192  1  0  -0.848783  0  2.26709  0  0  -0.723657  0  2.571744  0  0  -0.761289  0  2.552124  0  -1.356318  0  -0.390637  -0.697028  0  2.584365  0
O  O96  1  0.96351050  0.59235854  0.76360635  1  0  -0.846104  0  2.170186  0  0  -0.727878  0  2.465296  0  0  -0.764867  0  2.446329  0  -1.366536  0  -0.388067  -0.701579  0  2.477397  0
O  O97  1  0.46351286  0.40763897  0.73639276  1  0  -0.846107  0  2.17015  0  0  -0.727849  0  2.465236  0  0  -0.764852  0  2.44628  0  -1.366516  0  -0.388069  -0.701552  0  2.477336  0
O  O98  1  0.03648906  0.40763897  0.23639337  1  0  -0.84615  0  2.170157  0  0  -0.727893  0  2.465239  0  0  -0.76488  0  2.446269  0  -1.366551  0  -0.388052  -0.701594  0  2.477343  0
O  O99  1  0.53648884  0.59235854  0.26360697  1  0  -0.846146  0  2.170193  0  0  -0.727908  0  2.465304  0  0  -0.764901  0  2.446335  0  -1.366554  0  -0.388063  -0.70161  0  2.477408  0
O  O100  1  0.37887452  0.62962848  0.07257565  1  0  -0.644721  0  2.12126  0  0  -0.596377  0  2.41866  0  0  -0.618134  0  2.399836  0  -1.314956  0  -0.342757  -0.580895  0  2.431111  0
O  O101  1  0.87887430  0.37037227  0.42742430  1  0  -0.644725  0  2.121222  0  0  -0.596389  0  2.418632  0  0  -0.618145  0  2.399808  0  -1.314943  0  -0.342751  -0.580907  0  2.431084  0
O  O102  1  0.62112611  0.37036903  0.92741668  1  0  -0.64477  0  2.121197  0  0  -0.596465  0  2.418624  0  0  -0.618223  0  2.399794  0  -1.314848  0  -0.342785  -0.580983  0  2.431077  0
O  O103  1  0.12112526  0.62963010  0.57257977  1  0  -0.644764  0  2.121232  0  0  -0.596455  0  2.418658  0  0  -0.618211  0  2.399829  0  -1.314775  0  -0.342767  -0.580973  0  2.431111  0
O  O104  1  0.49234094  0.62452299  0.93404638  1  0  -0.627147  0  2.057996  0  0  -0.584791  0  2.345448  0  0  -0.606012  0  2.32828  0  -1.278702  0  -0.334973  -0.569685  0  2.35683  0
O  O105  1  0.99234179  0.37547776  0.56595357  1  0  -0.627167  0  2.058022  0  0  -0.584817  0  2.345478  0  0  -0.606036  0  2.328309  0  -1.278721  0  -0.334973  -0.56971  0  2.356861  0
O  O106  1  0.50766398  0.37547857  0.06594824  1  0  -0.627212  0  2.058311  0  0  -0.58483  0  2.345717  0  0  -0.60605  0  2.328541  0  -1.278751  0  -0.334953  -0.569723  0  2.357102  0
O  O107  1  0.00766206  0.62452380  0.43404967  1  0  -0.627208  0  2.058105  0  0  -0.584851  0  2.345565  0  0  -0.606071  0  2.328391  0  -1.278696  0  -0.334997  -0.569746  0  2.356952  0
O  O108  1  0.64245389  0.62907864  0.06056750  1  0  -0.609425  0  2.036551  0  0  -0.571454  0  2.321762  0  0  -0.592482  0  2.306244  0  -1.308339  0  -0.32957  -0.556547  0  2.332045  0
O  O109  1  0.14245411  0.37091969  0.43943244  1  0  -0.609444  0  2.036407  0  0  -0.571475  0  2.321627  0  0  -0.592503  0  2.306109  0  -1.308286  0  -0.329549  -0.556568  0  2.331909  0
O  O110  1  0.35754674  0.37092454  0.93943062  1  0  -0.609451  0  2.036661  0  0  -0.571453  0  2.321861  0  0  -0.592484  0  2.306341  0  -1.308197  0  -0.329549  -0.556545  0  2.332143  0
O  O111  1  0.85754652  0.62907945  0.56056894  1  0  -0.609462  0  2.036637  0  0  -0.571492  0  2.321865  0  0  -0.592519  0  2.306343  0  -1.308394  0  -0.329567  -0.556585  0  2.332148  0
O  O112  1  0.12716427  0.33524107  0.76455663  1  0  -0.623888  0  2.084043  0  0  -0.584576  0  2.372718  0  0  -0.604679  0  2.355336  0  -1.314263  0  -0.332255  -0.570349  0  2.384238  0
O  O113  1  0.62716620  0.66475887  0.73544249  1  0  -0.623928  0  2.084081  0  0  -0.584625  0  2.372781  0  0  -0.60473  0  2.3554  0  -1.314307  0  -0.33226  -0.570401  0  2.384304  0
O  O114  1  0.87283422  0.66475968  0.23544271  1  0  -0.623821  0  2.084127  0  0  -0.584523  0  2.372837  0  0  -0.604628  0  2.35546  0  -1.314298  0  -0.332235  -0.57029  0  2.384337  0
O  O115  1  0.37283337  0.33524026  0.26455703  1  0  -0.623886  0  2.084073  0  0  -0.584602  0  2.372802  0  0  -0.604708  0  2.355422  0  -1.314259  0  -0.332251  -0.570376  0  2.384318  0
O  O116  1  0.02690399  0.26442721  0.87725041  1  0  -0.607022  0  2.010864  0  0  -0.57156  0  2.284408  0  0  -0.59106  0  2.268979  0  -1.315142  0  -0.331901  -0.557777  0  2.294615  0
O  O117  1  0.52690056  0.73557354  0.62275077  1  0  -0.607007  0  2.010794  0  0  -0.571567  0  2.284361  0  0  -0.59107  0  2.268934  0  -1.315075  0  -0.331917  -0.557785  0  2.294569  0
O  O118  1  0.97309558  0.73557354  0.12275015  1  0  -0.606974  0  2.010818  0  0  -0.571524  0  2.284349  0  0  -0.59102  0  2.268915  0  -1.315097  0  -0.331884  -0.557746  0  2.294565  0
O  O119  1  0.47310008  0.26442559  0.37724876  1  0  -0.607031  0  2.010893  0  0  -0.571589  0  2.284439  0  0  -0.591098  0  2.269026  0  -1.314973  0  -0.33193  -0.557808  0  2.294649  0
O  O120  1  0.18307953  0.15046085  0.76189382  1  0  -0.619164  0  1.980395  0  0  -0.585655  0  2.224182  0  0  -0.603841  0  2.210678  0  -1.327304  0  -0.341271  -0.572776  0  2.233073  0
O  O121  1  0.68308038  0.84953990  0.73810675  1  0  -0.619214  0  1.98035  0  0  -0.585706  0  2.224131  0  0  -0.603896  0  2.210634  0  -1.327303  0  -0.341298  -0.572831  0  2.233025  0
O  O122  1  0.81691896  0.84953909  0.23810715  1  0  -0.619208  0  1.980366  0  0  -0.585695  0  2.224123  0  0  -0.60389  0  2.210637  0  -1.327274  0  -0.341305  -0.572817  0  2.233015  0
O  O123  1  0.31691918  0.15046004  0.26189422  1  0  -0.619181  0  1.980332  0  0  -0.585683  0  2.224093  0  0  -0.603876  0  2.210603  0  -1.327288  0  -0.341283  -0.572809  0  2.23299  0
F  F124  1  0.37738218  0.84200295  0.04189552  1  0  -0.231079  0  1.202642  0  0  -0.187918  0  1.369149  0  0  -0.197299  0  1.352264  0  -0.617381  0  -0.092092  -0.181072  0  1.381034  0
F  F125  1  0.87737446  0.15799780  0.45810504  1  0  -0.231065  0  1.202763  0  0  -0.187887  0  1.369257  0  0  -0.197266  0  1.352374  0  -0.617431  0  -0.092079  -0.181041  0  1.381142  0
F  F126  1  0.62262060  0.15799699  0.95809929  1  0  -0.230972  0  1.202712  0  0  -0.187842  0  1.369198  0  0  -0.197214  0  1.352327  0  -0.617375  0  -0.09207  -0.180996  0  1.381083  0
F  F127  1  0.12262296  0.84200295  0.54189798  1  0  -0.231048  0  1.20271  0  0  -0.187908  0  1.369191  0  0  -0.197279  0  1.352315  0  -0.61741  0  -0.092101  -0.181059  0  1.381076  0
F  F128  1  0.61208205  0.84759360  0.03356049  1  0  -0.235346  0  1.200003  0  0  -0.184656  0  1.360627  0  0  -0.194909  0  1.345393  0  -0.618661  0  -0.091716  -0.177194  0  1.371293  0
F  F129  1  0.11207477  0.15240634  0.46644232  1  0  -0.235337  0  1.199924  0  0  -0.184661  0  1.360551  0  0  -0.194911  0  1.34532  0  -0.618589  0  -0.091742  -0.177198  0  1.371216  0
F  F130  1  0.38791965  0.15241038  0.96644092  1  0  -0.23525  0  1.200079  0  0  -0.184609  0  1.360696  0  0  -0.194852  0  1.345478  0  -0.618606  0  -0.091716  -0.177146  0  1.371361  0
F  F131  1  0.88792051  0.84759117  0.53356171  1  0  -0.235258  0  1.200002  0  0  -0.18462  0  1.360623  0  0  -0.194865  0  1.345402  0  -0.618576  0  -0.091722  -0.177156  0  1.371289  0
F  F132  1  0.50896778  0.84520338  0.15443399  1  0  -0.220144  0  1.21396  0  0  -0.18791  0  1.392371  0  0  -0.197343  0  1.375832  0  -0.609912  0  -0.092029  -0.181026  0  1.403984  0
F  F133  1  0.00896371  0.15479413  0.34556757  1  0  -0.220111  0  1.214015  0  0  -0.187877  0  1.392421  0  0  -0.197307  0  1.375885  0  -0.609862  0  -0.092008  -0.180992  0  1.404034  0
F  F134  1  0.49102750  0.15479413  0.84556450  1  0  -0.220098  0  1.214079  0  0  -0.187871  0  1.392455  0  0  -0.197295  0  1.37593  0  -0.60987  0  -0.092022  -0.180987  0  1.404068  0
F  F135  1  0.99103692  0.84520742  0.65443628  1  0  -0.220133  0  1.214015  0  0  -0.187912  0  1.392389  0  0  -0.197336  0  1.375861  0  -0.609806  0  -0.092026  -0.181026  0  1.404002  0
F  F136  1  0.85683624  0.11077077  0.74039819  1  0  -0.23902  0  1.20765  0  0  -0.194882  0  1.371214  0  0  -0.204623  0  1.355521  0  -0.625912  0  -0.093644  -0.187865  0  1.382221  0
F  F137  1  0.35683860  0.88923159  0.75960280  1  0  -0.238993  0  1.207745  0  0  -0.194889  0  1.371262  0  0  -0.204626  0  1.355576  0  -0.625917  0  -0.093637  -0.18787  0  1.382271  0
F  F138  1  0.14316011  0.88923240  0.25960301  1  0  -0.239013  0  1.207646  0  0  -0.194879  0  1.371241  0  0  -0.204617  0  1.355551  0  -0.625859  0  -0.093641  -0.187862  0  1.382245  0
F  F139  1  0.64316096  0.11076754  0.24039427  1  0  -0.238991  0  1.20769  0  0  -0.194815  0  1.371295  0  0  -0.204553  0  1.355607  0  -0.625878  0  -0.093604  -0.1878  0  1.382298  0
F  F140  1  0.96809681  0.14630385  0.63335532  1  0  -0.22774  0  1.19231  0  0  -0.197936  0  1.365209  0  0  -0.207002  0  1.348741  0  -0.617644  0  -0.102577  -0.191395  0  1.376717  0
F  F141  1  0.46809703  0.85370014  0.86664670  1  0  -0.227615  0  1.19245  0  0  -0.197853  0  1.365307  0  0  -0.206915  0  1.348847  0  -0.617707  0  -0.102551  -0.191311  0  1.376814  0
F  F142  1  0.03190275  0.85369529  0.36664605  1  0  -0.227719  0  1.192418  0  0  -0.197908  0  1.36534  0  0  -0.206971  0  1.348876  0  -0.617666  0  -0.102562  -0.191369  0  1.376844  0
F  F143  1  0.53190039  0.14630627  0.13335288  1  0  -0.227654  0  1.192505  0  0  -0.197828  0  1.365462  0  0  -0.206891  0  1.349  0  -0.617712  0  -0.102508  -0.191289  0  1.376965  0
F  F144  1  0.82854275  0.26848718  0.72202498  1  0  -0.222466  0  1.228449  0  0  -0.182202  0  1.406758  0  0  -0.191105  0  1.38871  0  -0.621998  0  -0.087206  -0.175816  0  1.419467  0
F  F145  1  0.32854297  0.73151437  0.77797764  1  0  -0.222435  0  1.228541  0  0  -0.182169  0  1.406772  0  0  -0.191067  0  1.388731  0  -0.621954  0  -0.087164  -0.175782  0  1.419482  0
F  F146  1  0.17146002  0.73151518  0.27797601  1  0  -0.222453  0  1.228487  0  0  -0.182137  0  1.406784  0  0  -0.191037  0  1.38874  0  -0.62199  0  -0.087133  -0.175752  0  1.41949  0
F  F147  1  0.67145873  0.26848638  0.22202231  1  0  -0.222482  0  1.228492  0  0  -0.182141  0  1.406818  0  0  -0.191041  0  1.388773  0  -0.622005  0  -0.08716  -0.175757  0  1.419523  0
