# generated using pymatgen
data_Zn4H2C24S4Cl2O13F4
_symmetry_space_group_name_H-M   'P 1'
_cell_length_a   19.70090173
_cell_length_b   19.74912954
_cell_length_c   33.42340846
_cell_angle_alpha   79.01588254
_cell_angle_beta   79.15375010
_cell_angle_gamma   63.90848575
_symmetry_Int_Tables_number   1
_chemical_formula_structural   Zn4H2C24S4Cl2O13F4
_chemical_formula_sum   'Zn16 H8 C96 S16 Cl8 O52 F16'
_cell_volume   11384.42166830
_cell_formula_units_Z   4
loop_
 _symmetry_equiv_pos_site_id
 _symmetry_equiv_pos_as_xyz
  1  'x, y, z'
loop_
 _atom_site_type_symbol
 _atom_site_label
 _atom_site_symmetry_multiplicity
 _atom_site_fract_x
 _atom_site_fract_y
 _atom_site_fract_z
 _atom_site_occupancy
 _atom_site_pbe_bader_charge
 _atom_site_pbe_bader_spin_density
 _atom_site_pbe_cm5_charge
 _atom_site_pbe_ddec_charge
 _atom_site_pbe_ddec_spin_density
 _atom_site_pbe_ddec_sum_bond_order
 _atom_site_pbe_magmom
Zn  Zn0  1  0.05450732  0.40095051  0.47788900  1  1.315864  0  0.673013  0.972341  0  2.336036  0
Zn  Zn1  1  0.98497160  0.48378919  0.56059084  1  1.31127  0  0.677098  0.970049  0  2.351826  0
Zn  Zn2  1  0.05935932  0.56031043  0.48213005  1  1.322014  0  0.675203  0.968786  0  2.376153  0
Zn  Zn3  1  0.90074901  0.55571214  0.47955049  1  1.322517  0  0.674851  0.967555  0  2.380797  0
Zn  Zn4  1  0.69505218  0.34876971  0.27233212  1  1.321357  0  0.672573  0.971006  0  2.338259  0
Zn  Zn5  1  0.68989774  0.18907087  0.26600703  1  1.313973  0  0.675053  0.971186  0  2.346011  0
Zn  Zn6  1  0.76833145  0.26724156  0.19014362  1  1.318264  0  0.675097  0.968333  0  2.377685  0
Zn  Zn7  1  0.84834588  0.19391044  0.27145881  1  1.31668  0  0.676851  0.966495  0  2.384969  0
Zn  Zn8  1  0.26560959  0.76567244  0.68943691  1  1.312405  0  0.677193  0.969962  0  2.353329  0
Zn  Zn9  1  0.34926013  0.69666981  0.77180849  1  1.317393  0  0.674966  0.971722  0  2.345102  0
Zn  Zn10  1  0.19292327  0.84890470  0.77087900  1  1.319249  0  0.672612  0.968466  0  2.370896  0
Zn  Zn11  1  0.19112451  0.68917369  0.76793091  1  1.323121  0  0.675177  0.96878  0  2.375882  0
Zn  Zn12  1  0.55941393  0.06164161  0.98409239  1  1.312694  0  0.674952  0.970617  0  2.346713  0
Zn  Zn13  1  0.40169181  0.05366335  0.97715140  1  1.320657  0  0.677305  0.969804  0  2.353746  0
Zn  Zn14  1  0.55720122  0.90133071  0.97906990  1  1.318136  0  0.672791  0.968332  0  2.372452  0
Zn  Zn15  1  0.48134105  0.98313913  0.05989555  1  1.320852  0  0.675466  0.969368  0  2.375914  0
H  H16  1  0.74998866  0.44854801  0.34903492  1  0.150684  0  0.113951  0.135809  0  0.992278  0
H  H17  1  0.99926960  0.30232227  0.40090889  1  0.152781  0  0.113775  0.135932  0  0.992679  0
H  H18  1  0.20053877  0.69999365  0.60186212  1  0.133017  0  0.114962  0.136814  0  0.99105  0
H  H19  1  0.04934629  0.55019371  0.64817315  1  0.135015  0  0.114953  0.136669  0  0.990818  0
H  H20  1  0.64795733  0.14868634  0.04969814  1  0.123095  0  0.11436  0.136331  0  0.991925  0
H  H21  1  0.60232270  0.10111264  0.20036451  1  0.120727  0  0.11468  0.136903  0  0.991803  0
H  H22  1  0.30340273  0.99866700  0.90111192  1  0.121792  0  0.115193  0.138106  0  0.990209  0
H  H23  1  0.44739625  0.75046552  0.84887720  1  0.143937  0  0.114727  0.137196  0  0.992024  0
C  C24  1  0.06162852  0.31670933  0.56142512  1  1.605888  0  0.218166  0.631906  0  4.217717  0
C  C25  1  0.07006199  0.57069510  0.56795921  1  1.576201  0  0.230291  0.618291  0  4.152389  0
C  C26  1  0.18328983  0.43889487  0.43835649  1  1.582085  0  0.217041  0.63011  0  4.214863  0
C  C27  1  0.93708017  0.68380825  0.43866152  1  1.586037  0  0.217056  0.628352  0  4.222549  0
C  C28  1  0.92919186  0.43224941  0.43105466  1  1.575239  0  0.230837  0.619285  0  4.151801  0
C  C29  1  0.81723758  0.56120647  0.56245587  1  1.580775  0  0.21755  0.629817  0  4.219019  0
C  C30  1  0.56649637  0.31027921  0.31112871  1  1.61029  0  0.217069  0.630478  0  4.217621  0
C  C31  1  0.68261035  0.18114158  0.17991825  1  1.563587  0  0.23112  0.618756  0  4.150649  0
C  C32  1  0.68951457  0.43354837  0.18885954  1  1.594735  0  0.217095  0.630116  0  4.218955  0
C  C33  1  0.93469359  0.18838583  0.18917561  1  1.566638  0  0.216796  0.62755  0  4.222113  0
C  C34  1  0.81994759  0.31829672  0.31917833  1  1.588004  0  0.230364  0.617751  0  4.151952  0
C  C35  1  0.81144328  0.06585232  0.31098503  1  1.589552  0  0.217241  0.62949  0  4.220945  0
C  C36  1  0.43291154  0.68931738  0.68824882  1  1.585172  0  0.217161  0.630075  0  4.218768  0
C  C37  1  0.31682338  0.82159328  0.81899400  1  1.572228  0  0.230187  0.618027  0  4.152652  0
C  C38  1  0.18816568  0.93299305  0.68791098  1  1.58347  0  0.217443  0.630062  0  4.219038  0
C  C39  1  0.06575139  0.81040270  0.81119532  1  1.623588  0  0.216779  0.628724  0  4.222845  0
C  C40  1  0.17995814  0.67938152  0.68204569  1  1.58155  0  0.23025  0.618096  0  4.152562  0
C  C41  1  0.31371374  0.56676514  0.81173293  1  1.579364  0  0.217837  0.632517  0  4.213578  0
C  C42  1  0.43773678  0.18350246  0.93861917  1  1.585521  0  0.217704  0.630231  0  4.218842  0
C  C43  1  0.43399862  0.92773677  0.93083399  1  1.58198  0  0.231807  0.619125  0  4.151695  0
C  C44  1  0.68396201  0.94079166  0.93934470  1  1.59231  0  0.217296  0.629904  0  4.218279  0
C  C45  1  0.56110492  0.81652717  0.06185256  1  1.608792  0  0.216654  0.628348  0  4.221383  0
C  C46  1  0.56746006  0.06889349  0.07012877  1  1.584457  0  0.230797  0.618047  0  4.151218  0
C  C47  1  0.31511264  0.06123608  0.05996447  1  1.5788  0  0.217095  0.62962  0  4.221918  0
C  C48  1  0.89828487  0.40601861  0.40220306  1  -0.027917  0  -0.012191  -0.071381  0  3.915363  0
C  C49  1  0.85092422  0.34481519  0.34782786  1  0.057858  0  -0.012027  -0.071487  0  3.916795  0
C  C50  1  0.82685618  0.44769500  0.38716551  1  0.089672  0  0.022759  0.137274  0  4.011266  0
C  C51  1  0.92243559  0.30317456  0.36279090  1  0.030308  0  0.02281  0.136712  0  4.013167  0
C  C52  1  0.80496324  0.41648156  0.36058569  1  0.018483  0  -0.08387  -0.150353  0  3.950263  0
C  C53  1  0.94428012  0.33439827  0.38938651  1  0.030747  0  -0.08319  -0.150075  0  3.951198  0
C  C54  1  0.09971901  0.60017314  0.59579375  1  -0.019216  0  -0.012396  -0.072141  0  3.917528  0
C  C55  1  0.15016322  0.65002425  0.65423235  1  -0.019313  0  -0.012014  -0.071605  0  3.916003  0
C  C56  1  0.14312005  0.64314453  0.58270965  1  0.072378  0  0.022544  0.135525  0  4.014863  0
C  C57  1  0.10676561  0.60704319  0.66731594  1  0.074232  0  0.022425  0.135548  0  4.013048  0
C  C58  1  0.16714156  0.66691740  0.61192030  1  0.05925  0  -0.082246  -0.146886  0  3.944374  0
C  C59  1  0.08271391  0.58329784  0.63810765  1  0.062048  0  -0.08233  -0.146755  0  3.944837  0
C  C60  1  0.30441472  0.45216685  0.40062139  1  0.55382  0  0.104924  0.257009  0  4.066746  0
C  C61  1  0.44565940  0.29668376  0.34925840  1  0.619112  0  0.104405  0.257173  0  4.069078  0
C  C62  1  0.25817649  0.41375118  0.41376028  1  -0.064686  0  -0.034143  -0.245342  0  3.963295  0
C  C63  1  0.49188037  0.33506931  0.33603610  1  -0.143365  0  -0.033999  -0.245542  0  3.962244  0
C  C64  1  0.37726897  0.33873516  0.37286606  1  -0.150828  0  -0.029154  -0.119959  0  4.120097  0
C  C65  1  0.37293221  0.40999823  0.37714649  1  -0.10998  0  -0.029044  -0.118507  0  4.11893  0
C  C66  1  0.72499702  0.57641851  0.62949470  1  0.640491  0  0.104896  0.258439  0  4.070697  0
C  C67  1  0.52520298  0.67298975  0.62120407  1  0.648522  0  0.105099  0.257683  0  4.066848  0
C  C68  1  0.74254909  0.58556844  0.58718666  1  -0.13883  0  -0.034551  -0.247768  0  3.966554  0
C  C69  1  0.50766959  0.66413672  0.66354644  1  -0.093137  0  -0.035068  -0.246305  0  3.963803  0
C  C70  1  0.60423423  0.64124254  0.60843063  1  -0.185248  0  -0.029079  -0.120329  0  4.119941  0
C  C71  1  0.64596040  0.60805078  0.64223850  1  -0.114323  0  -0.029292  -0.120108  0  4.119572  0
C  C72  1  0.07738449  0.22453891  0.62857189  1  0.657683  0  0.104829  0.25759  0  4.068426  0
C  C73  1  0.17343375  0.02507713  0.62078498  1  0.61096  0  0.105111  0.257589  0  4.070644  0
C  C74  1  0.08658589  0.24201155  0.58622405  1  -0.097931  0  -0.034659  -0.245973  0  3.964394  0
C  C75  1  0.16400045  0.00760471  0.66310888  1  -0.134491  0  -0.034245  -0.245676  0  3.966134  0
C  C76  1  0.14207074  0.10395310  0.60784774  1  -0.088153  0  -0.029134  -0.11917  0  4.118719  0
C  C77  1  0.10877990  0.14565810  0.64151631  1  -0.189114  0  -0.029174  -0.120582  0  4.120521  0
C  C78  1  0.84403589  0.80134712  0.39742048  1  0.5602  0  0.105066  0.258283  0  4.066767  0
C  C79  1  0.90398021  0.94874506  0.35268954  1  0.548946  0  0.105246  0.258491  0  4.068471  0
C  C80  1  0.91224470  0.75835709  0.41387672  1  -0.090641  0  -0.034326  -0.246053  0  3.968398  0
C  C81  1  0.83585816  0.99157779  0.33607235  1  -0.086825  0  -0.034316  -0.245566  0  3.966913  0
C  C82  1  0.90765389  0.87921333  0.37504715  1  -0.105207  0  -0.029091  -0.121572  0  4.12134  0
C  C83  1  0.84044968  0.87078280  0.37498430  1  -0.114684  0  -0.029092  -0.11939  0  4.119354  0
C  C84  1  0.65463214  0.15362285  0.15024373  1  -0.000289  0  -0.011276  -0.070312  0  3.913395  0
C  C85  1  0.59559945  0.09623397  0.09981876  1  0.00526  0  -0.011751  -0.070874  0  3.913953  0
C  C86  1  0.66749757  0.16705945  0.10699504  1  0.083049  0  0.022873  0.137131  0  4.012865  0
C  C87  1  0.58273745  0.08278407  0.14306912  1  0.084453  0  0.022973  0.137432  0  4.013855  0
C  C88  1  0.63802415  0.13835256  0.08297635  1  0.037023  0  -0.083089  -0.148901  0  3.949179  0
C  C89  1  0.61225813  0.11146197  0.16708616  1  0.038722  0  -0.08376  -0.150201  0  3.949949  0
C  C90  1  0.67331562  0.52526365  0.12162778  1  0.600325  0  0.105052  0.258738  0  4.065113  0
C  C91  1  0.57631702  0.72477430  0.12902526  1  0.590136  0  0.104982  0.257615  0  4.070547  0
C  C92  1  0.66404305  0.50811365  0.16400341  1  -0.126484  0  -0.034781  -0.245851  0  3.964943  0
C  C93  1  0.58585209  0.74196424  0.08668768  1  -0.090937  0  -0.034167  -0.244766  0  3.965125  0
C  C94  1  0.60800577  0.64597686  0.14209838  1  -0.116013  0  -0.029354  -0.119909  0  4.12044  0
C  C95  1  0.64160312  0.60405896  0.10852305  1  -0.135104  0  -0.028888  -0.120456  0  4.120449  0
C  C96  1  0.08119319  0.12455944  0.17662084  1  0.608275  0  0.105721  0.259075  0  4.067193  0
C  C97  1  0.16855878  0.12571996  0.07258695  1  0.558559  0  0.104763  0.258193  0  4.070547  0
C  C98  1  0.00900503  0.16369467  0.16417073  1  -0.120682  0  -0.034077  -0.245078  0  3.968277  0
C  C99  1  0.24076719  0.08653781  0.08496399  1  -0.089424  0  -0.034707  -0.246962  0  3.96851  0
C  C100  1  0.10997201  0.13998112  0.10573204  1  -0.150528  0  -0.029327  -0.119581  0  4.120766  0
C  C101  1  0.13983018  0.11048637  0.14348894  1  -0.165119  0  -0.028855  -0.121096  0  4.120345  0
C  C102  1  0.34395475  0.85178987  0.84777290  1  -0.011319  0  -0.011721  -0.069991  0  3.913555  0
C  C103  1  0.40687225  0.89738150  0.90215597  1  -0.032356  0  -0.011542  -0.069438  0  3.914033  0
C  C104  1  0.30296920  0.92290376  0.86288769  1  0.08888  0  0.022471  0.137122  0  4.012552  0
C  C105  1  0.44783213  0.82625488  0.88706959  1  0.090101  0  0.023119  0.137441  0  4.013085  0
C  C106  1  0.33496190  0.94394358  0.88947800  1  0.073612  0  -0.082567  -0.149547  0  3.948291  0
C  C107  1  0.41583431  0.80520789  0.86048272  1  0.03673  0  -0.083669  -0.150834  0  3.951279  0
C  C108  1  0.40652033  0.44837698  0.85291968  1  0.55919  0  0.104093  0.256147  0  4.070532  0
C  C109  1  0.34542170  0.30144642  0.89698843  1  0.553516  0  0.104991  0.258538  0  4.067846  0
C  C110  1  0.33856653  0.49189582  0.83630226  1  -0.088061  0  -0.034564  -0.246305  0  3.964113  0
C  C111  1  0.41331047  0.25809005  0.91373277  1  -0.06818  0  -0.034625  -0.246718  0  3.964178  0
C  C112  1  0.34230381  0.37092116  0.87474221  1  -0.11007  0  -0.029227  -0.120889  0  4.119519  0
C  C113  1  0.40968241  0.37885007  0.87508214  1  -0.11364  0  -0.029052  -0.118949  0  4.11933  0
C  C114  1  0.94470147  0.79752652  0.84950258  1  0.598747  0  0.10484  0.257485  0  4.069381  0
C  C115  1  0.80468778  0.95393078  0.90061634  1  0.555531  0  0.103855  0.255879  0  4.071534  0
C  C116  1  0.99113967  0.83559652  0.83597736  1  -0.143199  0  -0.034417  -0.245576  0  3.965453  0
C  C117  1  0.75822196  0.91592692  0.91419477  1  -0.091407  0  -0.034401  -0.244999  0  3.965306  0
C  C118  1  0.87274089  0.91137396  0.87697427  1  -0.106781  0  -0.028963  -0.119957  0  4.12133  0
C  C119  1  0.87650414  0.84015215  0.87305644  1  -0.101141  0  -0.028736  -0.118474  0  4.118139  0
S  S120  1  0.29883200  0.32412195  0.39727528  1  0.315978  0  0.100486  0.181509  0  2.744842  0
S  S121  1  0.45135347  0.42460665  0.35268624  1  0.31299  0  0.100052  0.180852  0  2.743951  0
S  S122  1  0.66114027  0.63364220  0.56210759  1  0.311902  0  0.1021  0.184364  0  2.746804  0
S  S123  1  0.58909407  0.61599196  0.68857772  1  0.300422  0  0.10105  0.182295  0  2.74693  0
S  S124  1  0.13465379  0.16069099  0.56141389  1  0.296183  0  0.099868  0.180684  0  2.746825  0
S  S125  1  0.11594439  0.08892625  0.68794607  1  0.308045  0  0.101211  0.182604  0  2.746485  0
S  S126  1  0.97372517  0.80317889  0.40194054  1  0.316499  0  0.102826  0.185539  0  2.746172  0
S  S127  1  0.77454778  0.94658739  0.34791964  1  0.312437  0  0.101082  0.182285  0  2.745443  0
S  S128  1  0.61543654  0.58957956  0.18862694  1  0.293658  0  0.100459  0.181306  0  2.746356  0
S  S129  1  0.63447184  0.66052115  0.06200966  1  0.311313  0  0.101562  0.183108  0  2.745113  0
S  S130  1  0.01209536  0.18411142  0.11097469  1  0.343586  0  0.102338  0.183557  0  2.748631  0
S  S131  1  0.23774046  0.06640790  0.13819926  1  0.366771  0  0.101735  0.183863  0  2.748036  0
S  S132  1  0.27674665  0.44738300  0.84778192  1  0.310065  0  0.102447  0.184317  0  2.746851  0
S  S133  1  0.47507532  0.30260712  0.90221823  1  0.313696  0  0.100903  0.182179  0  2.747394  0
S  S134  1  0.95119635  0.92544507  0.85214479  1  0.310995  0  0.101147  0.182555  0  2.747894  0
S  S135  1  0.79800473  0.82615546  0.89789601  1  0.304815  0  0.101084  0.18195  0  2.748093  0
Cl  Cl136  1  0.76269535  0.53671712  0.39925877  1  -0.163025  0  -0.006036  -0.064681  0  1.480872  0
Cl  Cl137  1  0.98677293  0.21438434  0.35052776  1  -0.168343  0  -0.003223  -0.060942  0  1.482891  0
Cl  Cl138  1  0.16983737  0.66907987  0.53209675  1  -0.166036  0  -0.005463  -0.06387  0  1.481203  0
Cl  Cl139  1  0.08027269  0.58088108  0.71794006  1  -0.1662  0  -0.005464  -0.063947  0  1.480372  0
Cl  Cl140  1  0.71801697  0.21769897  0.08070399  1  -0.166242  0  -0.006034  -0.064838  0  1.48039  0
Cl  Cl141  1  0.53209280  0.03227692  0.16933984  1  -0.165358  0  -0.005772  -0.064557  0  1.481048  0
Cl  Cl142  1  0.21403555  0.98786184  0.85068547  1  -0.170547  0  -0.006953  -0.066464  0  1.479967  0
Cl  Cl143  1  0.53689318  0.76143025  0.89920391  1  -0.172359  0  -0.007829  -0.067356  0  1.479182  0
O  O144  1  0.00045243  0.49903717  0.50015047  1  -1.223934  0  -0.569962  -1.032807  0  2.520111  0
O  O145  1  0.07708323  0.31578991  0.52246868  1  -1.174187  0  -0.320169  -0.548392  0  2.318418  0
O  O146  1  0.03354063  0.53110542  0.58547546  1  -1.166856  0  -0.311148  -0.538072  0  2.327898  0
O  O147  1  0.15540860  0.50524315  0.44924314  1  -1.156774  0  -0.312587  -0.532285  0  2.328119  0
O  O148  1  0.02731723  0.37483453  0.58067029  1  -1.168957  0  -0.312652  -0.533781  0  2.324682  0
O  O149  1  0.15313849  0.39132717  0.44644394  1  -1.161409  0  -0.319476  -0.547876  0  2.314778  0
O  O150  1  0.08321637  0.58715803  0.52952621  1  -1.16421  0  -0.309864  -0.542102  0  2.422398  0
O  O151  1  0.00458045  0.65629513  0.44876383  1  -1.161861  0  -0.317922  -0.542303  0  2.327003  0
O  O152  1  0.88740003  0.49655341  0.44335574  1  -1.163733  0  -0.310435  -0.542208  0  2.427768  0
O  O153  1  0.88996598  0.65352387  0.44784097  1  -1.159434  0  -0.312471  -0.532415  0  2.329139  0
O  O154  1  0.99549357  0.38729391  0.44097427  1  -1.173978  0  -0.312624  -0.540761  0  2.320649  0
O  O155  1  0.87598391  0.52654455  0.58141974  1  -1.162655  0  -0.312551  -0.534316  0  2.321217  0
O  O156  1  0.81564213  0.57774101  0.52355420  1  -1.152908  0  -0.318132  -0.542  0  2.327802  0
O  O157  1  0.74909120  0.25047257  0.25030333  1  -1.227578  0  -0.569939  -1.03274  0  2.521312  0
O  O158  1  0.59664338  0.35785387  0.30357354  1  -1.167103  0  -0.319735  -0.546987  0  2.316565  0
O  O159  1  0.66491522  0.16384206  0.21805364  1  -1.166818  0  -0.312067  -0.539311  0  2.32386  0
O  O160  1  0.72581813  0.37560325  0.16959125  1  -1.159496  0  -0.312595  -0.531642  0  2.331185  0
O  O161  1  0.59407297  0.24457425  0.29946008  1  -1.164946  0  -0.313019  -0.53489  0  2.324235  0
O  O162  1  0.67270884  0.43419252  0.22778292  1  -1.147686  0  -0.319561  -0.547983  0  2.316807  0
O  O163  1  0.72133111  0.21916966  0.16506636  1  -1.150413  0  -0.310582  -0.542555  0  2.424566  0
O  O164  1  0.87689277  0.22521728  0.16924754  1  -1.160872  0  -0.318521  -0.54342  0  2.325673  0
O  O165  1  0.86137485  0.25353759  0.30740160  1  -1.170419  0  -0.308885  -0.539258  0  2.428767  0
O  O166  1  0.93421300  0.17120302  0.22791773  1  -1.127019  0  -0.310927  -0.529585  0  2.330031  0
O  O167  1  0.75389989  0.36343689  0.30892104  1  -1.175146  0  -0.313085  -0.540702  0  2.318031  0
O  O168  1  0.74517367  0.09250862  0.29931902  1  -1.173355  0  -0.319341  -0.547628  0  2.320062  0
O  O169  1  0.85804815  0.09669523  0.30313300  1  -1.140277  0  -0.311724  -0.530277  0  2.331198  0
O  O170  1  0.25041659  0.75005190  0.74988375  1  -1.225704  0  -0.570031  -1.033323  0  2.521342  0
O  O171  1  0.37451057  0.72322688  0.66898447  1  -1.152972  0  -0.311917  -0.532462  0  2.32346  0
O  O172  1  0.36263665  0.75651664  0.80806624  1  -1.168484  0  -0.311711  -0.539549  0  2.32652  0
O  O173  1  0.17114522  0.93423785  0.72679827  1  -1.163746  0  -0.31917  -0.544183  0  2.324374  0
O  O174  1  0.43406376  0.67439453  0.72721985  1  -1.171475  0  -0.319272  -0.547081  0  2.322238  0
O  O175  1  0.22325947  0.87461178  0.66891677  1  -1.154444  0  -0.312063  -0.533961  0  2.323393  0
O  O176  1  0.25115690  0.86243315  0.80783258  1  -1.165134  0  -0.310313  -0.54215  0  2.421141  0
O  O177  1  0.09481688  0.85886622  0.80233816  1  -1.174339  0  -0.318452  -0.543779  0  2.326997  0
O  O178  1  0.16604325  0.66368957  0.72048768  1  -1.165728  0  -0.309929  -0.542086  0  2.423084  0
O  O179  1  0.09462062  0.74355353  0.80090818  1  -1.161629  0  -0.311946  -0.531817  0  2.327075  0
O  O180  1  0.21732489  0.71814274  0.66450824  1  -1.17178  0  -0.311424  -0.538273  0  2.327858  0
O  O181  1  0.35978776  0.59828473  0.80350638  1  -1.150675  0  -0.313691  -0.537589  0  2.315972  0
O  O182  1  0.24683224  0.59323196  0.80090531  1  -1.169172  0  -0.317908  -0.543031  0  2.328617  0
O  O183  1  0.49995874  0.00048489  0.99972619  1  -1.226655  0  -0.570104  -1.032938  0  2.521953  0
O  O184  1  0.50361006  0.15760874  0.95067116  1  -1.168072  0  -0.319506  -0.546604  0  2.322755  0
O  O185  1  0.38891913  0.99365168  0.94086793  1  -1.168651  0  -0.312138  -0.539017  0  2.329164  0
O  O186  1  0.65465890  0.89251294  0.94750671  1  -1.166047  0  -0.318782  -0.543565  0  2.328304  0
O  O187  1  0.39194905  0.15173636  0.94585037  1  -1.158932  0  -0.311951  -0.532409  0  2.323502  0
O  O188  1  0.65575206  0.00684247  0.95064278  1  -1.163672  0  -0.313222  -0.535397  0  2.319459  0
O  O189  1  0.49888404  0.88621903  0.94283494  1  -1.169742  0  -0.310827  -0.542944  0  2.419851  0
O  O190  1  0.57990544  0.81561808  0.02304779  1  -1.17196  0  -0.318626  -0.543792  0  2.324668  0
O  O191  1  0.52884991  0.03074418  0.08496067  1  -1.170809  0  -0.310289  -0.542261  0  2.423635  0
O  O192  1  0.52358117  0.87471775  0.08083805  1  -1.167621  0  -0.312112  -0.532435  0  2.328552  0
O  O193  1  0.58493069  0.08645370  0.03199491  1  -1.16591  0  -0.311968  -0.538918  0  2.324114  0
O  O194  1  0.31589144  0.07624415  0.02111780  1  -1.153825  0  -0.312734  -0.534293  0  2.322816  0
O  O195  1  0.37270507  0.02589979  0.08016398  1  -1.166657  0  -0.317956  -0.542876  0  2.330635  0
F  F196  1  0.28736000  0.52215303  0.40887081  1  -0.614227  0  -0.083334  -0.100052  0  1.351136  0
F  F197  1  0.46263297  0.22674239  0.34094526  1  -0.617657  0  -0.084507  -0.10147  0  1.348802  0
F  F198  1  0.77658038  0.54144623  0.65628254  1  -0.628946  0  -0.083349  -0.100103  0  1.349  0
F  F199  1  0.47363150  0.70802625  0.59440193  1  -0.616623  0  -0.083594  -0.100365  0  1.347368  0
F  F200  1  0.04239281  0.27601288  0.65525036  1  -0.615286  0  -0.083652  -0.100348  0  1.348458  0
F  F201  1  0.20844090  0.97352938  0.59414754  1  -0.624682  0  -0.083643  -0.100305  0  1.349279  0
F  F202  1  0.78650340  0.78048636  0.40177672  1  -0.611395  0  -0.084041  -0.101466  0  1.347607  0
F  F203  1  0.96142345  0.96967242  0.34844551  1  -0.616408  0  -0.082737  -0.099405  0  1.35093  0
F  F204  1  0.70856252  0.47358454  0.09507031  1  -0.612814  0  -0.083229  -0.10058  0  1.348547  0
F  F205  1  0.54110541  0.77643973  0.15557979  1  -0.619368  0  -0.083668  -0.100689  0  1.350797  0
F  F206  1  0.09550619  0.10185408  0.21581695  1  -0.615095  0  -0.083393  -0.100345  0  1.348744  0
F  F207  1  0.15415535  0.14839906  0.03340442  1  -0.613024  0  -0.083178  -0.100169  0  1.348493  0
F  F208  1  0.46423349  0.46889719  0.84890958  1  -0.612672  0  -0.084329  -0.101147  0  1.347257  0
F  F209  1  0.28760897  0.28106525  0.90109675  1  -0.614184  0  -0.083603  -0.100629  0  1.347868  0
F  F210  1  0.96130677  0.72751474  0.84146539  1  -0.615124  0  -0.083528  -0.100664  0  1.350079  0
F  F211  1  0.78818628  0.02388050  0.90871734  1  -0.613833  0  -0.083909  -0.100705  0  1.348171  0
