# generated using pymatgen
data_ZnH10C16NO4
_symmetry_space_group_name_H-M   'P 1'
_cell_length_a   10.98017491
_cell_length_b   19.74136882
_cell_length_c   21.62405392
_cell_angle_alpha   90.00002646
_cell_angle_beta   100.63162203
_cell_angle_gamma   89.99995436
_symmetry_Int_Tables_number   1
_chemical_formula_structural   ZnH10C16NO4
_chemical_formula_sum   'Zn8 H80 C128 N8 O32'
_cell_volume   4606.84568204
_cell_formula_units_Z   8
loop_
 _symmetry_equiv_pos_site_id
 _symmetry_equiv_pos_as_xyz
  1  'x, y, z'
loop_
 _atom_site_type_symbol
 _atom_site_label
 _atom_site_symmetry_multiplicity
 _atom_site_fract_x
 _atom_site_fract_y
 _atom_site_fract_z
 _atom_site_occupancy
 _atom_site_pbe_bader_charge
 _atom_site_pbe_bader_spin_density
 _atom_site_pbe_cm5_charge
 _atom_site_pbe_ddec_charge
 _atom_site_pbe_ddec_spin_density
 _atom_site_pbe_ddec_sum_bond_order
 _atom_site_pbe_magmom
Zn  Zn0  1  0.35362618  0.95083276  0.36386320  1  1.291091  0  0.67127  0.830549  0  2.383545  0
Zn  Zn1  1  0.64637249  0.45083337  0.13613647  1  1.291072  0  0.671233  0.830511  0  2.383616  0
Zn  Zn2  1  0.64637247  0.04916682  0.63613682  1  1.291107  0  0.671243  0.830538  0  2.383566  0
Zn  Zn3  1  0.35362615  0.54916723  0.86386308  1  1.291115  0  0.671255  0.83051  0  2.383613  0
Zn  Zn4  1  0.31617417  0.05040734  0.26602799  1  1.297156  0  0.668813  0.826746  0  2.418517  0
Zn  Zn5  1  0.68382503  0.55040804  0.23397156  1  1.297222  0  0.668828  0.826781  0  2.418561  0
Zn  Zn6  1  0.68382540  0.94959224  0.73397119  1  1.29719  0  0.668821  0.826758  0  2.418565  0
Zn  Zn7  1  0.31617455  0.44959255  0.76602854  1  1.297193  0  0.668805  0.826765  0  2.418531  0
H  H8  1  0.36730132  0.08137029  0.51813248  1  0.094303  0  0.106295  0.11061  0  1.025779  0
H  H9  1  0.63270004  0.58137013  0.98186677  1  0.094348  0  0.106275  0.110585  0  1.025803  0
H  H10  1  0.63270011  0.91862980  0.48186733  1  0.094272  0  0.106285  0.110578  0  1.02579  0
H  H11  1  0.36730231  0.41862996  0.01813313  1  0.09432  0  0.106301  0.110635  0  1.02574  0
H  H12  1  0.30942059  0.23913036  0.37894993  1  0.139062  0  0.108246  0.11458  0  0.989813  0
H  H13  1  0.69057929  0.73913049  0.12104977  1  0.139075  0  0.108261  0.114598  0  0.989812  0
H  H14  1  0.69057898  0.76086974  0.62105018  1  0.139066  0  0.108242  0.114578  0  0.989801  0
H  H15  1  0.30942122  0.26086960  0.87894996  1  0.139069  0  0.108253  0.1146  0  0.98982  0
H  H16  1  0.36354146  0.16490758  0.60198248  1  0.085546  0  0.104856  0.106916  0  1.018299  0
H  H17  1  0.63646071  0.66490788  0.89801687  1  0.085541  0  0.104852  0.106911  0  1.018302  0
H  H18  1  0.63646089  0.83509251  0.39801695  1  0.085535  0  0.104858  0.106905  0  1.018309  0
H  H19  1  0.36354072  0.33509272  0.10198294  1  0.085528  0  0.104842  0.106909  0  1.018289  0
H  H20  1  0.91608325  0.08319470  0.24483783  1  0.095054  0  0.103225  0.10862  0  1.001737  0
H  H21  1  0.08391591  0.58319517  0.25516219  1  0.095044  0  0.103218  0.108608  0  1.001735  0
H  H22  1  0.08391633  0.91680539  0.75516227  1  0.095045  0  0.103223  0.108616  0  1.001742  0
H  H23  1  0.91608366  0.41680543  0.74483745  1  0.095048  0  0.103238  0.108622  0  1.001706  0
H  H24  1  0.69007340  0.08281129  0.25309790  1  0.094304  0  0.099483  0.103272  0  1.011291  0
H  H25  1  0.30992576  0.58281166  0.24690166  1  0.094316  0  0.099506  0.103313  0  1.011241  0
H  H26  1  0.30992617  0.91718829  0.74690174  1  0.094307  0  0.099496  0.103277  0  1.011269  0
H  H27  1  0.69007289  0.41718843  0.75309836  1  0.094307  0  0.099503  0.103299  0  1.011233  0
H  H28  1  0.34146798  0.69588705  0.87879088  1  0.139506  0  0.120623  0.094879  0  0.996643  0
H  H29  1  0.65854899  0.19588612  0.62121124  1  0.139522  0  0.120594  0.09484  0  0.996654  0
H  H30  1  0.65854921  0.30411355  0.12121085  1  0.139526  0  0.120596  0.094843  0  0.996654  0
H  H31  1  0.34146819  0.80411295  0.37879142  1  0.139518  0  0.120635  0.094906  0  0.996627  0
H  H32  1  0.23171628  0.91358556  0.11193482  1  0.084067  0  0.102881  0.10505  0  1.008045  0
H  H33  1  0.76828707  0.41358624  0.38806480  1  0.084035  0  0.102869  0.105048  0  1.008025  0
H  H34  1  0.76828700  0.08641402  0.88806470  1  0.084045  0  0.102864  0.105041  0  1.008004  0
H  H35  1  0.23171621  0.58641435  0.61193472  1  0.084065  0  0.102872  0.105032  0  1.008025  0
H  H36  1  0.33242605  0.61226955  0.09169595  1  0.098538  0  0.11084  0.118996  0  1.016032  0
H  H37  1  0.66756843  0.11226978  0.40830319  1  0.098533  0  0.11082  0.118971  0  1.016021  0
H  H38  1  0.66756796  0.38773054  0.90830364  1  0.098545  0  0.110843  0.118989  0  1.01602  0
H  H39  1  0.33242466  0.88773082  0.59169585  1  0.098527  0  0.110835  0.118998  0  1.016021  0
H  H40  1  0.41499046  0.77079252  0.24649917  1  0.086372  0  0.099408  0.095638  0  1.03808  0
H  H41  1  0.58500938  0.27079271  0.25350191  1  0.086412  0  0.099426  0.095651  0  1.038107  0
H  H42  1  0.58500912  0.22920757  0.75350139  1  0.086399  0  0.099421  0.095639  0  1.038082  0
H  H43  1  0.41499112  0.72920738  0.74649874  1  0.086375  0  0.099415  0.095633  0  1.03809  0
H  H44  1  0.33556565  0.78054686  0.96374892  1  0.077703  0  0.110158  0.115161  0  0.999139  0
H  H45  1  0.66444842  0.28054588  0.53625251  1  0.077703  0  0.110138  0.115187  0  0.999233  0
H  H46  1  0.66444875  0.21945425  0.03625302  1  0.077704  0  0.110111  0.115146  0  0.999198  0
H  H47  1  0.33556598  0.71945319  0.46374943  1  0.077699  0  0.110159  0.11517  0  0.999133  0
H  H48  1  0.30200167  0.32473589  0.46305827  1  0.054767  0  0.102477  0.1024  0  1.000657  0
H  H49  1  0.69799809  0.82473598  0.03694145  1  0.054744  0  0.102498  0.102409  0  1.000669  0
H  H50  1  0.69799883  0.67526420  0.53694192  1  0.054745  0  0.102479  0.102381  0  1.00068  0
H  H51  1  0.30200241  0.17526411  0.96305874  1  0.054842  0  0.102491  0.102398  0  1.00067  0
H  H52  1  0.98390685  0.92173839  0.37929647  1  0.099563  0  0.105036  0.112556  0  0.996463  0
H  H53  1  0.01609371  0.42173877  0.12070337  1  0.099425  0  0.105053  0.112582  0  0.996452  0
H  H54  1  0.01609365  0.07826170  0.62070372  1  0.099573  0  0.105043  0.11257  0  0.996436  0
H  H55  1  0.98390586  0.57826183  0.87929627  1  0.099569  0  0.105041  0.11256  0  0.996443  0
H  H56  1  0.42359569  0.68715848  0.16070248  1  0.077922  0  0.10218  0.104147  0  1.029979  0
H  H57  1  0.57640982  0.18715871  0.33929864  1  0.077456  0  0.102153  0.104114  0  1.029942  0
H  H58  1  0.57640852  0.31284161  0.83929805  1  0.077864  0  0.102128  0.104065  0  1.029956  0
H  H59  1  0.42359532  0.81284138  0.66070244  1  0.077844  0  0.102169  0.104109  0  1.029919  0
H  H60  1  0.76024276  0.92397791  0.39055913  1  0.095988  0  0.099932  0.101407  0  1.037875  0
H  H61  1  0.23975687  0.42397767  0.10944062  1  0.09599  0  0.099944  0.101427  0  1.037833  0
H  H62  1  0.23975681  0.07602168  0.60944098  1  0.095999  0  0.099942  0.101421  0  1.037841  0
H  H63  1  0.76024270  0.57602192  0.89055902  1  0.095995  0  0.09994  0.101418  0  1.037849  0
H  H64  1  0.18742487  0.36612111  0.53811847  1  0.074001  0  0.112214  0.11895  0  0.994139  0
H  H65  1  0.81257612  0.86612136  0.96188132  1  0.074001  0  0.112192  0.118894  0  0.994191  0
H  H66  1  0.81257563  0.63387847  0.46188126  1  0.074005  0  0.112178  0.118872  0  0.994148  0
H  H67  1  0.18742531  0.13387873  0.03811803  1  0.073997  0  0.112208  0.118944  0  0.99415  0
H  H68  1  0.34853799  0.53543848  0.00234191  1  0.098193  0  0.124056  0.101119  0  0.996706  0
H  H69  1  0.65145011  0.03543927  0.49765660  1  0.098177  0  0.124102  0.101182  0  0.996796  0
H  H70  1  0.65145047  0.46456060  0.99765669  1  0.098177  0  0.124103  0.101186  0  0.996796  0
H  H71  1  0.34853741  0.96456133  0.50234192  1  0.098292  0  0.124055  0.101117  0  0.99673  0
H  H72  1  0.22968787  0.82949310  0.02607885  1  0.067119  0  0.100446  0.097646  0  1.009255  0
H  H73  1  0.77031837  0.32949433  0.47392101  1  0.067048  0  0.100448  0.097625  0  1.009234  0
H  H74  1  0.77031912  0.17050649  0.97392102  1  0.067061  0  0.100449  0.097613  0  1.009244  0
H  H75  1  0.22968676  0.67050678  0.52607868  1  0.06711  0  0.100452  0.097648  0  1.009265  0
H  H76  1  0.18608745  0.44265230  0.63049796  1  0.113074  0  0.12642  0.098622  0  0.972337  0
H  H77  1  0.81391250  0.94265301  0.86950176  1  0.113062  0  0.126421  0.098594  0  0.972356  0
H  H78  1  0.81391212  0.55734728  0.36950168  1  0.113068  0  0.126426  0.098587  0  0.972355  0
H  H79  1  0.18608707  0.05734759  0.13049788  1  0.113072  0  0.126423  0.098607  0  0.972342  0
H  H80  1  0.45041937  0.32747080  0.74468515  1  0.121299  0  0.122615  0.095072  0  1.009126  0
H  H81  1  0.54957982  0.82747106  0.75531445  1  0.121292  0  0.122608  0.09506  0  1.009117  0
H  H82  1  0.54957928  0.67252930  0.25531486  1  0.121284  0  0.122581  0.095024  0  1.009165  0
H  H83  1  0.45041883  0.17252853  0.24468510  1  0.121298  0  0.122618  0.095065  0  1.009124  0
H  H84  1  0.46635051  0.24662987  0.65741524  1  0.098707  0  0.110089  0.116646  0  1.024084  0
H  H85  1  0.53365156  0.74662917  0.84258460  1  0.098712  0  0.110081  0.116645  0  1.024064  0
H  H86  1  0.53365092  0.75337073  0.34258503  1  0.098707  0  0.110058  0.116614  0  1.024121  0
H  H87  1  0.46635080  0.25337041  0.15741530  1  0.098706  0  0.110085  0.116638  0  1.02408  0
C  C88  1  0.33781702  0.15503995  0.44317071  1  0.030767  0  -0.014154  -0.027359  0  3.951707  0
C  C89  1  0.66218297  0.65504057  0.05682989  1  0.030587  0  -0.014156  -0.027267  0  3.95164  0
C  C90  1  0.66218255  0.84496015  0.55682847  1  0.030578  0  -0.014181  -0.027422  0  3.95173  0
C  C91  1  0.33781754  0.34495953  0.94317123  1  0.030624  0  -0.014102  -0.027222  0  3.951552  0
C  C92  1  0.33088471  0.25089604  0.53853258  1  -0.05874  0  -0.011769  0.050538  0  4.018137  0
C  C93  1  0.66911643  0.75089585  0.96146717  1  -0.058734  0  -0.011783  0.050509  0  4.018226  0
C  C94  1  0.66911672  0.74910405  0.46146723  1  -0.058738  0  -0.011795  0.050474  0  4.018213  0
C  C95  1  0.33088500  0.24910424  0.03853264  1  -0.058756  0  -0.011788  0.050523  0  4.018239  0
C  C96  1  0.32772845  0.29945449  0.58981609  1  -0.033555  0  0.01864  0.125108  0  3.98452  0
C  C97  1  0.67227541  0.79945528  0.91018533  1  -0.03316  0  0.018592  0.125021  0  3.984475  0
C  C98  1  0.67227576  0.70054459  0.41018537  1  -0.033188  0  0.018588  0.125031  0  3.984502  0
C  C99  1  0.32772602  0.20054481  0.08981448  1  -0.033226  0  0.018641  0.125091  0  3.98455  0
C  C100  1  0.32405194  0.84731305  0.18430565  1  0.107598  0  -0.012287  -0.020064  0  3.945719  0
C  C101  1  0.67595150  0.34731374  0.31569442  1  0.107594  0  -0.012332  -0.020133  0  3.945658  0
C  C102  1  0.67594948  0.15268602  0.81569416  1  0.107585  0  -0.012344  -0.020111  0  3.945562  0
C  C103  1  0.32404993  0.65268686  0.68430539  1  0.107623  0  -0.012296  -0.020108  0  3.945768  0
C  C104  1  0.96211109  0.00185992  0.31104050  1  -0.051996  0  -0.014667  -0.023404  0  3.956786  0
C  C105  1  0.03789003  0.50185936  0.18895967  1  -0.052009  0  -0.01465  -0.023334  0  3.95668  0
C  C106  1  0.03788941  0.99814017  0.68895969  1  -0.051997  0  -0.014671  -0.023418  0  3.956804  0
C  C107  1  0.96211140  0.49813972  0.81104014  1  -0.051988  0  -0.014661  -0.023405  0  3.95678  0
C  C108  1  0.35269639  0.13460470  0.50609253  1  -0.011493  0  -0.080429  -0.081863  0  3.973276  0
C  C109  1  0.64730490  0.63460453  0.99390672  1  -0.011464  0  -0.080411  -0.08185  0  3.973316  0
C  C110  1  0.64730504  0.86539539  0.49390728  1  -0.011417  0  -0.080378  -0.08171  0  3.973305  0
C  C111  1  0.35269653  0.36539556  0.00609309  1  -0.011531  0  -0.080404  -0.08185  0  3.973281  0
C  C112  1  0.57662502  0.00200691  0.32524950  1  1.545923  0  0.210332  0.580114  0  4.190551  0
C  C113  1  0.42337332  0.50200719  0.17474995  1  1.545915  0  0.210314  0.58009  0  4.190504  0
C  C114  1  0.42337363  0.99799268  0.67474959  1  1.546005  0  0.21034  0.580117  0  4.190513  0
C  C115  1  0.57662626  0.49799341  0.82525061  1  1.545988  0  0.210331  0.580161  0  4.190544  0
C  C116  1  0.34178895  0.10291842  0.39309128  1  1.566299  0  0.213229  0.584524  0  4.189391  0
C  C117  1  0.65821111  0.60291856  0.10690883  1  1.566596  0  0.213208  0.584453  0  4.189375  0
C  C118  1  0.65821063  0.89708167  0.60690882  1  1.566613  0  0.213248  0.584597  0  4.189296  0
C  C119  1  0.34178847  0.39708204  0.89309173  1  1.566627  0  0.213224  0.584517  0  4.189342  0
C  C120  1  0.31957467  0.22378898  0.42803049  1  -0.108916  0  -0.079386  -0.081387  0  3.967192  0
C  C121  1  0.68042523  0.72378909  0.07196873  1  -0.10876  0  -0.079391  -0.081428  0  3.967361  0
C  C122  1  0.68042583  0.77621111  0.57196923  1  -0.108735  0  -0.079402  -0.081427  0  3.967246  0
C  C123  1  0.31957528  0.27621100  0.92803099  1  -0.108756  0  -0.079438  -0.081521  0  3.967274  0
C  C124  1  0.32747659  0.75237686  0.08718925  1  -0.006879  0  -0.005547  0.06308  0  3.991628  0
C  C125  1  0.67252883  0.25237759  0.41281189  1  -0.006811  0  -0.005499  0.063112  0  3.991373  0
C  C126  1  0.67252762  0.24762273  0.91281128  1  -0.006818  0  -0.005445  0.063094  0  3.991458  0
C  C127  1  0.32747630  0.74762301  0.58718919  1  -0.006856  0  -0.005517  0.063141  0  3.991527  0
C  C128  1  0.33265948  0.70400583  0.03584874  1  0.043168  0  0.02029  0.119559  0  3.974883  0
C  C129  1  0.66734416  0.20400609  0.46415267  1  0.043247  0  0.020214  0.119506  0  3.974694  0
C  C130  1  0.66734566  0.29599376  0.96415234  1  0.043252  0  0.020188  0.119525  0  3.974698  0
C  C131  1  0.33266005  0.79599400  0.53584879  1  0.043165  0  0.020259  0.11953  0  3.974898  0
C  C132  1  0.35078558  0.18196465  0.55324867  1  -0.063872  0  -0.087266  -0.12911  0  3.975545  0
C  C133  1  0.64921658  0.68196496  0.94675116  1  -0.063987  0  -0.087294  -0.129157  0  3.975731  0
C  C134  1  0.64921677  0.81803494  0.44675123  1  -0.06397  0  -0.087271  -0.129138  0  3.975686  0
C  C135  1  0.35078578  0.31803563  0.05324920  1  -0.063877  0  -0.087301  -0.1292  0  3.975638  0
C  C136  1  0.32721781  0.89973851  0.23501796  1  1.568329  0  0.21435  0.592084  0  4.175831  0
C  C137  1  0.67278187  0.39973765  0.26498363  1  1.568415  0  0.214358  0.592186  0  4.175819  0
C  C138  1  0.67278178  0.10026310  0.76498353  1  1.568448  0  0.214399  0.592217  0  4.175615  0
C  C139  1  0.32721864  0.60026193  0.73501841  1  1.568461  0  0.21437  0.592126  0  4.175851  0
C  C140  1  0.88014865  0.04806442  0.27593097  1  -0.025208  0  -0.086347  -0.097779  0  3.987572  0
C  C141  1  0.11985056  0.54806436  0.22406904  1  -0.025221  0  -0.086368  -0.097798  0  3.987474  0
C  C142  1  0.11985093  0.95193516  0.72406913  1  -0.025215  0  -0.08637  -0.097815  0  3.98762  0
C  C143  1  0.88014809  0.45193523  0.77593097  1  -0.025215  0  -0.086369  -0.097813  0  3.98757  0
C  C144  1  0.75569323  0.04829949  0.28098261  1  -0.062879  0  -0.09012  -0.102001  0  3.993553  0
C  C145  1  0.24430505  0.54829937  0.21901685  1  -0.062874  0  -0.090139  -0.102042  0  3.993566  0
C  C146  1  0.24430542  0.95170009  0.71901648  1  -0.06288  0  -0.090105  -0.101933  0  3.993542  0
C  C147  1  0.75569360  0.45170022  0.78098316  1  -0.06289  0  -0.090139  -0.101983  0  3.993523  0
C  C148  1  0.71191870  0.00322766  0.32208708  1  -0.021369  0  -0.020181  -0.034919  0  3.977072  0
C  C149  1  0.28807964  0.50322800  0.17791284  1  -0.021364  0  -0.020199  -0.034959  0  3.977076  0
C  C150  1  0.28807995  0.99677141  0.67791201  1  -0.021363  0  -0.020204  -0.034987  0  3.977102  0
C  C151  1  0.71191993  0.49677158  0.82208727  1  -0.021301  0  -0.020191  -0.034983  0  3.977123  0
C  C152  1  0.09641853  0.00099796  0.30580773  1  1.572044  0  0.213559  0.593103  0  4.172493  0
C  C153  1  0.90358074  0.50099804  0.19419319  1  1.571946  0  0.213611  0.593171  0  4.172339  0
C  C154  1  0.90358105  0.99900162  0.69419329  1  1.571932  0  0.213589  0.593154  0  4.172376  0
C  C155  1  0.09641884  0.49900256  0.80580784  1  1.572047  0  0.213544  0.59311  0  4.172452  0
C  C156  1  0.34062269  0.68018856  0.92706791  1  0.446096  0  0.050693  0.095496  0  3.953953  0
C  C157  1  0.65938873  0.18018811  0.57293323  1  0.445888  0  0.050738  0.095631  0  3.953761  0
C  C158  1  0.65938893  0.31981204  0.07293331  1  0.445866  0  0.050718  0.095611  0  3.953776  0
C  C159  1  0.34062289  0.81981097  0.42706845  1  0.44608  0  0.050674  0.095449  0  3.953989  0
C  C160  1  0.27219592  0.86350798  0.12191460  1  -0.113496  0  -0.083597  -0.086039  0  3.990998  0
C  C161  1  0.72780749  0.36350867  0.37808501  1  -0.113536  0  -0.083605  -0.086066  0  3.990908  0
C  C162  1  0.72780735  0.13649161  0.87808493  1  -0.11353  0  -0.083588  -0.086067  0  3.990876  0
C  C163  1  0.27219579  0.63649193  0.62191497  1  -0.113521  0  -0.083597  -0.086013  0  3.991027  0
C  C164  1  0.33635002  0.63361709  0.04568025  1  -0.039278  0  -0.075448  -0.164933  0  3.91189  0
C  C165  1  0.66364907  0.13361735  0.45431933  1  -0.039347  0  -0.075411  -0.164825  0  3.911714  0
C  C166  1  0.66364863  0.36638249  0.95431931  1  -0.039336  0  -0.075382  -0.164784  0  3.911653  0
C  C167  1  0.33634865  0.86638274  0.54568014  1  -0.039261  0  -0.075424  -0.164895  0  3.911836  0
C  C168  1  0.37552196  0.78289198  0.19782397  1  -0.122253  0  -0.083933  -0.088851  0  3.979039  0
C  C169  1  0.62447972  0.28289218  0.30217637  1  -0.12246  0  -0.083909  -0.088811  0  3.979035  0
C  C170  1  0.62447854  0.21710760  0.80217621  1  -0.122452  0  -0.083909  -0.088815  0  3.979002  0
C  C171  1  0.37552264  0.71710792  0.69782399  1  -0.122295  0  -0.083891  -0.088761  0  3.979092  0
C  C172  1  0.33508790  0.72666356  0.97444864  1  -0.064396  0  -0.082864  -0.179937  0  3.961333  0
C  C173  1  0.66492346  0.22666360  0.52555252  1  -0.064271  0  -0.082782  -0.179959  0  3.961201  0
C  C174  1  0.66492372  0.27333653  0.02555305  1  -0.064257  0  -0.082788  -0.179967  0  3.961164  0
C  C175  1  0.33508816  0.77333649  0.47444870  1  -0.064408  0  -0.082884  -0.179978  0  3.961377  0
C  C176  1  0.31488301  0.27123150  0.47519212  1  -0.002817  0  -0.089737  -0.134816  0  3.98648  0
C  C177  1  0.68511775  0.77123158  0.02480767  1  -0.002807  0  -0.08972  -0.134772  0  3.986532  0
C  C178  1  0.68511842  0.72876860  0.52480769  1  -0.002799  0  -0.089705  -0.134722  0  3.986495  0
C  C179  1  0.31488368  0.22876851  0.97519261  1  -0.002894  0  -0.089724  -0.134749  0  3.986553  0
C  C180  1  0.91861806  0.95704497  0.35230310  1  -0.052044  0  -0.083859  -0.091628  0  3.972377  0
C  C181  1  0.08138154  0.45704533  0.14769804  1  -0.051907  0  -0.083876  -0.0917  0  3.972499  0
C  C182  1  0.08138152  0.04295461  0.64769746  1  -0.052049  0  -0.083862  -0.091645  0  3.972391  0
C  C183  1  0.91861804  0.54295476  0.85230298  1  -0.052045  0  -0.083845  -0.091605  0  3.972362  0
C  C184  1  0.37835670  0.73607911  0.14997622  1  -0.026207  0  -0.084287  -0.122686  0  3.95649  0
C  C185  1  0.62164504  0.23607933  0.35002364  1  -0.025473  0  -0.084297  -0.122691  0  3.95638  0
C  C186  1  0.62164565  0.26392149  0.85002322  1  -0.025927  0  -0.084272  -0.12262  0  3.956374  0
C  C187  1  0.37835732  0.76392026  0.64997672  1  -0.026119  0  -0.084305  -0.122707  0  3.956508  0
C  C188  1  0.79465498  0.95821361  0.35828418  1  -0.040157  0  -0.088538  -0.100029  0  3.981237  0
C  C189  1  0.20534369  0.45821340  0.14171596  1  -0.040163  0  -0.088505  -0.099969  0  3.981179  0
C  C190  1  0.20534367  0.04178648  0.64171584  1  -0.040176  0  -0.088539  -0.100012  0  3.981227  0
C  C191  1  0.79465589  0.54178618  0.85828414  1  -0.040227  0  -0.08854  -0.10003  0  3.981254  0
C  C192  1  0.24907987  0.35618005  0.58273932  1  0.022012  0  -0.082936  -0.185795  0  3.956828  0
C  C193  1  0.75092113  0.85617980  0.91726001  1  0.02159  0  -0.082896  -0.18566  0  3.956848  0
C  C194  1  0.75091970  0.64382004  0.41726032  1  0.021614  0  -0.082868  -0.185627  0  3.956842  0
C  C195  1  0.24908030  0.14382029  0.08273934  1  0.021634  0  -0.082928  -0.185795  0  3.956894  0
C  C196  1  0.34390228  0.59019532  0.99604406  1  0.536963  0  0.059864  0.113535  0  3.903489  0
C  C197  1  0.65609352  0.09019535  0.50395560  1  0.537085  0  0.059811  0.113362  0  3.903674  0
C  C198  1  0.65609359  0.40980477  0.00395616  1  0.537095  0  0.059823  0.113358  0  3.903596  0
C  C199  1  0.34390235  0.90980474  0.49604416  1  0.536874  0  0.059866  0.113513  0  3.903506  0
C  C200  1  0.27300042  0.81657555  0.07415033  1  -0.036086  0  -0.09052  -0.132625  0  3.993878  0
C  C201  1  0.72700491  0.31657678  0.42584990  1  -0.036076  0  -0.09052  -0.13258  0  3.993798  0
C  C202  1  0.72700471  0.18342352  0.92584937  1  -0.03606  0  -0.090531  -0.132558  0  3.99384  0
C  C203  1  0.27300022  0.68342382  0.57415025  1  -0.036074  0  -0.090526  -0.132659  0  3.993877  0
C  C204  1  0.24659358  0.39846488  0.63382094  1  0.455282  0  0.055909  0.101229  0  3.943641  0
C  C205  1  0.75340643  0.89846511  0.86617877  1  0.455317  0  0.055925  0.101234  0  3.943647  0
C  C206  1  0.75340599  0.60153471  0.36617823  1  0.455347  0  0.055902  0.101223  0  3.94368  0
C  C207  1  0.24659407  0.10153499  0.13382095  1  0.455283  0  0.055989  0.101328  0  3.943678  0
C  C208  1  0.39466870  0.33382142  0.69789404  1  0.478267  0  0.056031  0.107864  0  3.929652  0
C  C209  1  0.60533048  0.83382168  0.80210604  1  0.478239  0  0.05602  0.107816  0  3.929618  0
C  C210  1  0.60532995  0.66617867  0.30210552  1  0.478247  0  0.056037  0.107843  0  3.929672  0
C  C211  1  0.39466910  0.16617790  0.19789407  1  0.478168  0  0.056018  0.107829  0  3.929643  0
C  C212  1  0.40243724  0.28930322  0.64928427  1  -0.056758  0  -0.081847  -0.184902  0  3.942968  0
C  C213  1  0.59756477  0.78930249  0.85071605  1  -0.056675  0  -0.081826  -0.184842  0  3.942789  0
C  C214  1  0.59756419  0.71069738  0.35071601  1  -0.056693  0  -0.0818  -0.184828  0  3.942845  0
C  C215  1  0.40243665  0.21069709  0.14928376  1  -0.056587  0  -0.081842  -0.184876  0  3.942814  0
N  N216  1  0.34603276  0.61291460  0.93749972  1  -1.266546  0  -0.327419  -0.216747  0  3.540877  0
N  N217  1  0.65396949  0.11291365  0.56250008  1  -1.266596  0  -0.327415  -0.216727  0  3.540821  0
N  N218  1  0.65396960  0.38708600  0.06250018  1  -1.26662  0  -0.32742  -0.216724  0  3.540759  0
N  N219  1  0.34603286  0.88708492  0.43749982  1  -1.266529  0  -0.327397  -0.216701  0  3.540861  0
N  N220  1  0.31762197  0.38742714  0.69061078  1  -1.244111  0  -0.325406  -0.205222  0  3.525855  0
N  N221  1  0.68237714  0.88742737  0.80938931  1  -1.244102  0  -0.325381  -0.20517  0  3.525874  0
N  N222  1  0.68237668  0.61257346  0.30938924  1  -1.244113  0  -0.325369  -0.205147  0  3.525916  0
N  N223  1  0.31762244  0.11257272  0.19061033  1  -1.244122  0  -0.325454  -0.205221  0  3.525946  0
O  O224  1  0.36229096  0.88098247  0.29197601  1  -1.163018  0  -0.318297  -0.550231  0  2.297564  0
O  O225  1  0.63770781  0.38098312  0.20802410  1  -1.163117  0  -0.318299  -0.550331  0  2.297603  0
O  O226  1  0.63770862  0.11901762  0.70802409  1  -1.163187  0  -0.318343  -0.550347  0  2.297544  0
O  O227  1  0.36229084  0.61901697  0.79197546  1  -1.163158  0  -0.318294  -0.550246  0  2.297684  0
O  O228  1  0.54206546  0.96586815  0.36780555  1  -1.161586  0  -0.314785  -0.542095  0  2.314605  0
O  O229  1  0.45793412  0.46586834  0.13219421  1  -1.16159  0  -0.314748  -0.542023  0  2.314664  0
O  O230  1  0.45793411  0.03413194  0.63219409  1  -1.161629  0  -0.314762  -0.542043  0  2.314648  0
O  O231  1  0.54206453  0.53413125  0.86780627  1  -1.161616  0  -0.314743  -0.542028  0  2.3147  0
O  O232  1  0.34262804  0.12360390  0.33745150  1  -1.171411  0  -0.316698  -0.546808  0  2.304619  0
O  O233  1  0.65737107  0.62360407  0.16254807  1  -1.171688  0  -0.316713  -0.546818  0  2.304713  0
O  O234  1  0.65737154  0.87639619  0.66254814  1  -1.171689  0  -0.316711  -0.546841  0  2.304676  0
O  O235  1  0.34262758  0.37639602  0.83745148  1  -1.171683  0  -0.316716  -0.546846  0  2.304544  0
O  O236  1  0.16321775  0.95455341  0.33552473  1  -1.171655  0  -0.319644  -0.556599  0  2.339415  0
O  O237  1  0.83677999  0.45455344  0.16447531  1  -1.171646  0  -0.319679  -0.556641  0  2.339318  0
O  O238  1  0.83678183  0.04544668  0.66447537  1  -1.171633  0  -0.319651  -0.556614  0  2.339323  0
O  O239  1  0.16321680  0.54544665  0.83552407  1  -1.171674  0  -0.319662  -0.556612  0  2.339418  0
O  O240  1  0.13382957  0.04727437  0.27255002  1  -1.164028  0  -0.321857  -0.544345  0  2.306914  0
O  O241  1  0.86616963  0.54727499  0.22744999  1  -1.163917  0  -0.321883  -0.544397  0  2.306913  0
O  O242  1  0.86617000  0.95272521  0.72745008  1  -1.163924  0  -0.32188  -0.544371  0  2.306886  0
O  O243  1  0.13382902  0.45272561  0.77255003  1  -1.164019  0  -0.321833  -0.544338  0  2.306843  0
O  O244  1  0.50567377  0.03722889  0.28423124  1  -1.170991  0  -0.318589  -0.560654  0  2.371044  0
O  O245  1  0.49432544  0.53722966  0.21576784  1  -1.170956  0  -0.318597  -0.560678  0  2.37093  0
O  O246  1  0.49432580  0.96277070  0.71576794  1  -1.171026  0  -0.318586  -0.560654  0  2.370958  0
O  O247  1  0.50567320  0.46277094  0.78423171  1  -1.171018  0  -0.318614  -0.560722  0  2.370935  0
O  O248  1  0.34386632  0.04126616  0.41078406  1  -1.167399  0  -0.315299  -0.556927  0  2.359752  0
O  O249  1  0.65613290  0.54126630  0.08921549  1  -1.167392  0  -0.315267  -0.556897  0  2.359682  0
O  O250  1  0.65613233  0.95873393  0.58921549  1  -1.167399  0  -0.315302  -0.556966  0  2.35969  0
O  O251  1  0.34386575  0.45873380  0.91078407  1  -1.167406  0  -0.315288  -0.556917  0  2.359826  0
O  O252  1  0.29592373  0.95945777  0.21652847  1  -1.176942  0  -0.316758  -0.556084  0  2.341223  0
O  O253  1  0.70407493  0.45945843  0.28347120  1  -1.177024  0  -0.316772  -0.556111  0  2.341201  0
O  O254  1  0.70407492  0.04054181  0.78347062  1  -1.176986  0  -0.316777  -0.556142  0  2.341123  0
O  O255  1  0.29592372  0.54054166  0.71652835  1  -1.177027  0  -0.316789  -0.556118  0  2.341131  0
