# generated using pymatgen
data_Zn2H34C47(N2O3)3
_symmetry_space_group_name_H-M   'P 1'
_cell_length_a   9.70473029
_cell_length_b   9.70476229
_cell_length_c   13.05386246
_cell_angle_alpha   102.03430907
_cell_angle_beta   102.03428898
_cell_angle_gamma   109.82521684
_symmetry_Int_Tables_number   1
_chemical_formula_structural   Zn2H34C47(N2O3)3
_chemical_formula_sum   'Zn2 H34 C47 N6 O9'
_cell_volume   1077.81113069
_cell_formula_units_Z   1
loop_
 _symmetry_equiv_pos_site_id
 _symmetry_equiv_pos_as_xyz
  1  'x, y, z'
loop_
 _atom_site_type_symbol
 _atom_site_label
 _atom_site_symmetry_multiplicity
 _atom_site_fract_x
 _atom_site_fract_y
 _atom_site_fract_z
 _atom_site_occupancy
 _atom_site_hle17_bader_spin_density
 _atom_site_hle17_ddec_charge
 _atom_site_hle17_ddec_spin_density
 _atom_site_hle17_ddec_sum_bond_order
 _atom_site_hle17_magmom
 _atom_site_hse06_10hf_bader_spin_density
 _atom_site_hse06_10hf_ddec_charge
 _atom_site_hse06_10hf_ddec_spin_density
 _atom_site_hse06_10hf_ddec_sum_bond_order
 _atom_site_hse06_10hf_magmom
 _atom_site_hse06_bader_spin_density
 _atom_site_hse06_ddec_charge
 _atom_site_hse06_ddec_spin_density
 _atom_site_hse06_ddec_sum_bond_order
 _atom_site_hse06_magmom
 _atom_site_pbe_bader_spin_density
 _atom_site_pbe_cm5_charge
 _atom_site_pbe_ddec_charge
 _atom_site_pbe_ddec_spin_density
 _atom_site_pbe_ddec_sum_bond_order
 _atom_site_pbe_magmom
Zn  Zn0  1  0.22358920  0.35389663  0.34161879  1  0  1.03295  0  1.851895  0  0  0.838193  0  2.341243  0  0  0.884209  0  2.286285  0  0  0.705299  0.806593  0  2.37812  0
Zn  Zn1  1  0.64610025  0.77641100  0.65838103  1  0  1.032995  0  1.851891  0  0  0.838236  0  2.341211  0  0  0.884249  0  2.286259  0  0  0.705323  0.806649  0  2.378095  0
H  H2  1  0.09385466  0.27659362  0.08629576  1  0  0.099101  0  0.957355  0  0  0.110869  0  1.015916  0  0  0.113208  0  1.015284  0  0  0.102116  0.109451  0  1.016088  0
H  H3  1  0.72340140  0.90614174  0.91370704  1  0  0.099069  0  0.957375  0  0  0.110844  0  1.01593  0  0  0.11318  0  1.015303  0  0  0.102138  0.109428  0  1.0161  0
H  H4  1  0.05600927  0.16747243  0.88759870  1  0  0.069524  0  1.004767  0  0  0.079004  0  1.071018  0  0  0.080025  0  1.073586  0  0  0.085948  0.078328  0  1.069199  0
H  H5  1  0.83253073  0.94399099  0.11240364  1  0  0.069568  0  1.00474  0  0  0.079038  0  1.071008  0  0  0.080063  0  1.073569  0  0  0.085958  0.078362  0  1.069188  0
H  H6  1  0.18690503  0.00074032  0.82512227  1  0  0.08873  0  0.939731  0  0  0.100741  0  0.996636  0  0  0.103688  0  0.995435  0  0  0.099394  0.098583  0  0.997822  0
H  H7  1  0.99926156  0.81309122  0.17487760  1  0  0.088775  0  0.939732  0  0  0.100762  0  0.996657  0  0  0.103709  0  0.995456  0  0  0.099411  0.098603  0  0.997841  0
H  H8  1  0.35687607  0.93675104  0.95657083  1  0  0.126291  0  0.994927  0  0  0.132278  0  1.061785  0  0  0.136659  0  1.057958  0  0  0.103658  0.129453  0  1.063925  0
H  H9  1  0.06324949  0.64312007  0.04342604  1  0  0.12626  0  0.994905  0  0  0.132277  0  1.061731  0  0  0.136662  0  1.057904  0  0  0.103652  0.129452  0  1.063867  0
H  H10  1  0.49667455  0.06930265  0.40526571  1  0  0.119619  0  0.933141  0  0  0.135637  0  0.988541  0  0  0.138248  0  0.986919  0  0  0.106776  0.134091  0  0.989235  0
H  H11  1  0.93069488  0.50332757  0.59473430  1  0  0.119628  0  0.933141  0  0  0.135641  0  0.988571  0  0  0.13824  0  0.986965  0  0  0.106744  0.134095  0  0.989266  0
H  H12  1  0.39984106  0.18620830  0.44774592  1  0  0.108111  0  0.951031  0  0  0.123016  0  1.011208  0  0  0.12543  0  1.009672  0  0  0.103755  0.121388  0  1.012152  0
H  H13  1  0.81379334  0.60016324  0.55225438  1  0  0.108103  0  0.951043  0  0  0.123078  0  1.011139  0  0  0.125487  0  1.009605  0  0  0.10378  0.121449  0  1.012083  0
H  H14  1  0.71046631  0.29662371  0.40314655  1  0  0.056143  0  0.95536  0  0  0.075643  0  1.01331  0  0  0.075641  0  1.015789  0  0  0.083284  0.075513  0  1.011692  0
H  H15  1  0.70337181  0.28954040  0.59685464  1  0  0.056171  0  0.95529  0  0  0.075664  0  1.013243  0  0  0.075649  0  1.015733  0  0  0.083286  0.075534  0  1.011625  0
H  H16  1  0.59866474  0.40718063  0.40771469  1  0  0.068078  0  0.96355  0  0  0.082597  0  1.032155  0  0  0.082878  0  1.033758  0  0  0.08843  0.082545  0  1.030734  0
H  H17  1  0.59281478  0.40134061  0.59227792  1  0  0.068102  0  0.96364  0  0  0.082582  0  1.032254  0  0  0.082863  0  1.033851  0  0  0.088454  0.082529  0  1.030834  0
H  H18  1  0.46082608  0.88437245  0.11513411  1  0  0.112115  0  0.893558  0  0  0.131244  0  0.945481  0  0  0.132383  0  0.944464  0  0  0.128776  0.129623  0  0.946784  0
H  H19  1  0.11562498  0.53917199  0.88486404  1  0  0.112157  0  0.893559  0  0  0.131268  0  0.945486  0  0  0.132407  0  0.944467  0  0  0.128765  0.129618  0  0.946825  0
H  H20  1  0.47211355  0.90170858  0.25342004  1  0  0.108293  0  0.950721  0  0  0.116056  0  1.020864  0  0  0.117621  0  1.019806  0  0  0.120515  0.115026  0  1.021781  0
H  H21  1  0.09828969  0.52788482  0.74657830  1  0  0.108273  0  0.950715  0  0  0.11605  0  1.020844  0  0  0.117616  0  1.019782  0  0  0.120524  0.115023  0  1.021753  0
H  H22  1  0.66434854  0.21428721  0.12934110  1  0  0.125101  0  0.971972  0  0  0.130382  0  1.037796  0  0  0.134001  0  1.036691  0  0  0.11028  0.128055  0  1.038361  0
H  H23  1  0.78571191  0.33564852  0.87065836  1  0  0.125112  0  0.971998  0  0  0.130379  0  1.037835  0  0  0.133993  0  1.03673  0  0  0.11029  0.128052  0  1.038398  0
H  H24  1  0.94752942  0.36154886  0.19643765  1  0  0.090757  0  0.939217  0  0  0.098558  0  1.001543  0  0  0.101891  0  0.997886  0  0  0.122964  0.096391  0  1.003825  0
H  H25  1  0.63845082  0.05246884  0.80356280  1  0  0.090799  0  0.939147  0  0  0.098558  0  1.001514  0  0  0.101892  0  0.997855  0  0  0.122981  0.096393  0  1.003793  0
H  H26  1  0.00898157  0.09491090  0.39708552  1  0  0.077271  0  0.918524  0  0  0.090381  0  0.972092  0  0  0.092545  0  0.970488  0  0  0.121625  0.088951  0  0.973062  0
H  H27  1  0.90508680  0.99101706  0.60291340  1  0  0.077252  0  0.918556  0  0  0.090367  0  0.972122  0  0  0.092529  0  0.97052  0  0  0.121624  0.088938  0  0.973092  0
H  H28  1  0.72472352  0.94010530  0.34353931  1  0  0.112682  0  0.982299  0  0  0.119439  0  1.046916  0  0  0.121567  0  1.048173  0  0  0.107576  0.118164  0  1.045728  0
H  H29  1  0.05989224  0.27527425  0.65645874  1  0  0.11267  0  0.982316  0  0  0.119417  0  1.046945  0  0  0.121543  0  1.048206  0  0  0.107565  0.118141  0  1.045758  0
H  H30  1  0.34884130  0.48337450  0.04629143  1  0  0.095964  0  0.961876  0  0  0.104614  0  1.027061  0  0  0.10767  0  1.02597  0  0  0.102658  0.102153  0  1.028321  0
H  H31  1  0.51662453  0.65115960  0.95371037  1  0  0.09594  0  0.961897  0  0  0.104609  0  1.027065  0  0  0.107663  0  1.025977  0  0  0.102652  0.102149  0  1.028326  0
H  H32  1  0.81226939  0.53708752  0.19135737  1  0  0.102084  0  0.945706  0  0  0.111785  0  1.007019  0  0  0.115287  0  1.004467  0  0  0.108935  0.109216  0  1.009015  0
H  H33  1  0.46291130  0.18772892  0.80864307  1  0  0.102073  0  0.945681  0  0  0.111779  0  1.006996  0  0  0.115282  0  1.004445  0  0  0.108927  0.10921  0  1.008993  0
H  H34  1  0.80230133  0.66307755  0.37503399  1  0  0.100016  0  0.934823  0  0  0.113849  0  0.986918  0  0  0.117246  0  0.985316  0  0  0.106709  0.110796  0  0.989123  0
H  H35  1  0.33691794  0.19770050  0.62496883  1  0  0.100046  0  0.934809  0  0  0.113872  0  0.986905  0  0  0.117267  0  0.985306  0  0  0.106706  0.110821  0  0.989109  0
C  C36  1  0.25032880  0.16956145  0.13495560  1  0  0.151793  0  3.849273  0  0  0.146126  0  4.097987  0  0  0.149391  0  4.12315  0  0  0.081666  0.144094  0  4.081679  0
C  C37  1  0.83043688  0.74967266  0.86504303  1  0  0.151669  0  3.849142  0  0  0.146042  0  4.097749  0  0  0.149309  0  4.122909  0  0  0.081638  0.144012  0  4.081443  0
C  C38  1  0.15223754  0.20423298  0.05949383  1  0  -0.1541  0  3.769176  0  0  -0.169135  0  4.017985  0  0  -0.172884  0  4.039682  0  0  -0.099452  -0.16649  0  4.003553  0
C  C39  1  0.79576577  0.84776049  0.94050669  1  0  -0.154059  0  3.769057  0  0  -0.169131  0  4.017881  0  0  -0.17288  0  4.039579  0  0  -0.099509  -0.166488  0  4.00345  0
C  C40  1  0.13188893  0.14277905  0.94835951  1  0  -0.078615  0  3.802733  0  0  -0.094382  0  4.057467  0  0  -0.096719  0  4.082132  0  0  -0.103815  -0.092644  0  4.040871  0
C  C41  1  0.85722434  0.86811272  0.05164227  1  0  -0.078578  0  3.802639  0  0  -0.094341  0  4.057388  0  0  -0.096678  0  4.082049  0  0  -0.103787  -0.092604  0  4.04079  0
C  C42  1  0.20613358  0.04860159  0.91273270  1  0  -0.057523  0  3.767474  0  0  -0.075964  0  4.028287  0  0  -0.078553  0  4.051325  0  0  -0.094906  -0.073908  0  4.012581  0
C  C43  1  0.95140067  0.79386788  0.08726805  1  0  -0.057637  0  3.767546  0  0  -0.076058  0  4.028371  0  0  -0.078646  0  4.051405  0  0  -0.094932  -0.074003  0  4.012664  0
C  C44  1  0.30368978  0.01251909  0.98699838  1  0  -0.144749  0  3.740566  0  0  -0.166757  0  3.99708  0  0  -0.169388  0  4.016259  0  0  -0.096271  -0.164866  0  3.983677  0
C  C45  1  0.98748357  0.69631132  0.01300156  1  0  -0.144604  0  3.740475  0  0  -0.166678  0  3.99694  0  0  -0.169311  0  4.016122  0  0  -0.096252  -0.164785  0  3.983533  0
C  C46  1  0.32357978  0.07442880  0.09790167  1  0  0.103304  0  3.789659  0  0  0.092702  0  4.035827  0  0  0.095948  0  4.059099  0  0  0.09146  0.090668  0  4.019854  0
C  C47  1  0.92557474  0.67642662  0.90209848  1  0  0.103141  0  3.789772  0  0  0.09266  0  4.035784  0  0  0.095903  0  4.059058  0  0  0.091433  0.090625  0  4.01981  0
C  C48  1  0.38882655  0.14543285  0.28133450  1  0  0.39202  0  3.638689  0  0  0.357581  0  3.911382  0  0  0.378025  0  3.921924  0  0  0.243392  0.343722  0  3.904203  0
C  C49  1  0.85456676  0.61117560  0.71866438  1  0  0.392061  0  3.63856  0  0  0.357593  0  3.911346  0  0  0.378033  0  3.921888  0  0  0.243357  0.343735  0  3.904171  0
C  C50  1  0.47324746  0.17020604  0.39677741  1  0  -0.228013  0  3.68383  0  0  -0.265953  0  3.930869  0  0  -0.269986  0  3.939403  0  0  -0.15454  -0.263211  0  3.924889  0
C  C51  1  0.82979418  0.52675699  0.60322266  1  0  -0.228015  0  3.683729  0  0  -0.266037  0  3.930851  0  0  -0.270049  0  3.939357  0  0  -0.154518  -0.263295  0  3.924876  0
C  C52  1  0.62270719  0.31749989  0.43764347  1  0  -0.082294  0  3.655887  0  0  -0.120608  0  3.911964  0  0  -0.121154  0  3.925894  0  0  -0.165079  -0.120019  0  3.902127  0
C  C53  1  0.68249922  0.37729773  0.56235420  1  0  -0.082393  0  3.655929  0  0  -0.120628  0  3.911987  0  0  -0.121157  0  3.925907  0  0  -0.165111  -0.120039  0  3.902151  0
C  C54  1  0.49983463  0.96847991  0.19689306  1  0  -0.049393  0  3.632629  0  0  -0.11441  0  3.878431  0  0  -0.110251  0  3.887234  0  0  -0.040552  -0.117038  0  3.872792  0
C  C55  1  0.03151906  0.50016333  0.80310534  1  0  -0.049398  0  3.632626  0  0  -0.114405  0  3.87842  0  0  -0.11024  0  3.887217  0  0  -0.040538  -0.117016  0  3.872777  0
C  C56  1  0.67072538  0.06243036  0.23093991  1  0  0.136024  0  3.699306  0  0  0.150246  0  3.939757  0  0  0.154895  0  3.960392  0  0  0.01916  0.147721  0  3.925451  0
C  C57  1  0.93756773  0.32927364  0.76905811  1  0  0.136028  0  3.699351  0  0  0.150268  0  3.939788  0  0  0.154919  0  3.960422  0  0  0.019169  0.147746  0  3.925471  0
C  C58  1  0.73450739  0.18238190  0.18905281  1  0  -0.160855  0  3.67856  0  0  -0.18137  0  3.929121  0  0  -0.188982  0  3.949322  0  0  -0.07844  -0.17644  0  3.91514  0
C  C59  1  0.81761699  0.26549115  0.81094834  1  0  -0.160866  0  3.678595  0  0  -0.181379  0  3.929157  0  0  -0.188987  0  3.949357  0  0  -0.07845  -0.176449  0  3.915175  0
C  C60  1  0.89289450  0.26494999  0.22496685  1  0  0.139476  0  3.6841  0  0  0.108713  0  3.934902  0  0  0.115647  0  3.952358  0  0  0.056321  0.103727  0  3.923278  0
C  C61  1  0.73504603  0.10710464  0.77503162  1  0  0.13942  0  3.684102  0  0  0.108699  0  3.934902  0  0  0.115634  0  3.952356  0  0  0.056294  0.103712  0  3.92328  0
C  C62  1  0.92765706  0.11679701  0.33797262  1  0  0.133212  0  3.719534  0  0  0.101946  0  3.970271  0  0  0.109031  0  3.988107  0  0  0.053185  0.097449  0  3.957572  0
C  C63  1  0.88320059  0.07234146  0.66202593  1  0  0.133221  0  3.719571  0  0  0.101946  0  3.970323  0  0  0.109032  0  3.988158  0  0  0.05316  0.097448  0  3.957624  0
C  C64  1  0.77052032  0.03021739  0.30723103  1  0  -0.162619  0  3.701452  0  0  -0.178494  0  3.945169  0  0  -0.186445  0  3.967336  0  0  -0.078359  -0.173115  0  3.929189  0
C  C65  1  0.96978000  0.22947849  0.69276756  1  0  -0.162617  0  3.701495  0  0  -0.178495  0  3.945241  0  0  -0.186447  0  3.967409  0  0  -0.078348  -0.173116  0  3.929262  0
C  C66  1  0.57032437  0.72697148  0.42566236  1  0  0.637528  0  3.9389  0  0  0.585976  0  4.24272  0  0  0.619473  0  4.234132  0  0  0.202457  0.56321  0  4.248067  0
C  C67  1  0.27303007  0.42968136  0.57433906  1  0  0.637561  0  3.938767  0  0  0.585964  0  4.242648  0  0  0.619479  0  4.234038  0  0  0.202486  0.563196  0  4.247997  0
C  C68  1  0.56859847  0.64021914  0.31464244  1  0  -0.057123  0  3.715647  0  0  -0.045191  0  3.954599  0  0  -0.047591  0  3.972647  0  0  -0.008086  -0.044036  0  3.943323  0
C  C69  1  0.35978065  0.43140535  0.68535992  1  0  -0.057088  0  3.715529  0  0  -0.045068  0  3.954428  0  0  -0.047473  0  3.972472  0  0  -0.008003  -0.043916  0  3.943157  0
C  C70  1  0.28938057  0.59682282  0.22846489  1  0  0.661695  0  3.9357  0  0  0.608964  0  4.240954  0  0  0.6429  0  4.23216  0  0  0.206612  0.585918  0  4.245993  0
C  C71  1  0.40317465  0.71062040  0.77153675  1  0  0.661664  0  3.935947  0  0  0.608949  0  4.241221  0  0  0.642886  0  4.232427  0  0  0.206592  0.585901  0  4.246261  0
C  C72  1  0.43992506  0.58816029  0.22142359  1  0  -0.082006  0  3.73763  0  0  -0.06644  0  3.97474  0  0  -0.071784  0  3.994813  0  0  -0.013045  -0.063595  0  3.962622  0
C  C73  1  0.41184159  0.56007859  0.77857985  1  0  -0.081963  0  3.737573  0  0  -0.066488  0  3.974793  0  0  -0.071834  0  3.994869  0  0  -0.013042  -0.063638  0  3.962677  0
C  C74  1  0.44908139  0.52338012  0.11800822  1  0  -0.087452  0  3.71557  0  0  -0.117986  0  3.962289  0  0  -0.117298  0  3.981846  0  0  -0.077844  -0.118289  0  3.950276  0
C  C75  1  0.47662225  0.55091789  0.88199383  1  0  -0.087471  0  3.715599  0  0  -0.118004  0  3.962353  0  0  -0.117316  0  3.981913  0  0  -0.077886  -0.118314  0  3.950342  0
C  C76  1  0.58126144  0.50164324  0.10654964  1  0  -0.034302  0  3.764221  0  0  -0.017914  0  4.00242  0  0  -0.023889  0  4.025172  0  0  -0.018985  -0.014318  0  3.987937  0
C  C77  1  0.49835837  0.41873896  0.89345164  1  0  -0.03425  0  3.764282  0  0  -0.017828  0  4.00243  0  0  -0.023802  0  4.025183  0  0  -0.018916  -0.014229  0  3.987947  0
C  C78  1  0.70860760  0.55177685  0.20040983  1  0  -0.062201  0  3.723538  0  0  -0.089187  0  3.981182  0  0  -0.087618  0  3.999566  0  0  -0.078784  -0.089952  0  3.968349  0
C  C79  1  0.44822394  0.29139570  0.79959098  1  0  -0.062216  0  3.723577  0  0  -0.089222  0  3.98124  0  0  -0.087653  0  3.99962  0  0  -0.078808  -0.089988  0  3.968412  0
C  C80  1  0.70252339  0.62188255  0.30261032  1  0  -0.088941  0  3.754256  0  0  -0.111164  0  4.010124  0  0  -0.113319  0  4.028988  0  0  -0.087808  -0.109712  0  3.997701  0
C  C81  1  0.37811906  0.29748117  0.69739161  1  0  -0.088998  0  3.754278  0  0  -0.111225  0  4.010139  0  0  -0.113378  0  4.029003  0  0  -0.08783  -0.10977  0  3.997712  0
C  C82  1  0.58590102  0.41410027  0.00000090  1  0  0.394286  0  3.706661  0  0  0.375054  0  3.967166  0  0  0.397477  0  3.969218  0  0  0.166425  0.359063  0  3.967297  0
N  N83  1  0.29416595  0.21262373  0.24949266  1  0  -0.506837  0  3.202854  0  0  -0.435508  0  3.505988  0  0  -0.459263  0  3.515938  0  0  -0.358192  -0.42007  0  3.499468  0
N  N84  1  0.78737282  0.70583275  0.75050450  1  0  -0.506822  0  3.202668  0  0  -0.43552  0  3.505831  0  0  -0.459266  0  3.515764  0  0  -0.358166  -0.420085  0  3.49932  0
N  N85  1  0.40887013  0.06091408  0.19230854  1  0  -0.144673  0  3.456531  0  0  -0.060126  0  3.677072  0  0  -0.077025  0  3.699047  0  0  -0.230475  -0.048516  0  3.661829  0
N  N86  1  0.93908252  0.59113021  0.80769109  1  0  -0.144619  0  3.456418  0  0  -0.060122  0  3.676968  0  0  -0.07702  0  3.698946  0  0  -0.230462  -0.048509  0  3.661719  0
N  N87  1  0.98847627  0.23259671  0.29778354  1  0  -0.333522  0  3.312268  0  0  -0.252149  0  3.593253  0  0  -0.270185  0  3.606772  0  0  -0.328254  -0.2402  0  3.58428  0
N  N88  1  0.76740197  0.01152373  0.70221696  1  0  -0.333484  0  3.312304  0  0  -0.252102  0  3.593269  0  0  -0.270139  0  3.60679  0  0  -0.328218  -0.240152  0  3.584295  0
O  O89  1  0.22089922  0.52673649  0.28963682  1  0  -0.669591  0  2.063298  0  0  -0.594763  0  2.346452  0  0  -0.623357  0  2.326781  0  0  -0.344083  -0.574727  0  2.359246  0
O  O90  1  0.47325850  0.77909987  0.71036184  1  0  -0.669596  0  2.06338  0  0  -0.594763  0  2.346529  0  0  -0.623357  0  2.326861  0  0  -0.344067  -0.574729  0  2.359329  0
O  O91  1  0.23631976  0.66734255  0.17310425  1  0  -0.584623  0  1.921284  0  0  -0.543498  0  2.145  0  0  -0.565954  0  2.136031  0  0  -0.31395  -0.527288  0  2.150425  0
O  O92  1  0.33265815  0.76368108  0.82689945  1  0  -0.584619  0  1.921393  0  0  -0.543493  0  2.145118  0  0  -0.565948  0  2.136148  0  0  -0.31396  -0.527282  0  2.150543  0
O  O93  1  0.53156396  0.83758092  0.43392448  1  0  -0.583724  0  1.883836  0  0  -0.544344  0  2.095026  0  0  -0.566073  0  2.086694  0  0  -0.315283  -0.529183  0  2.09994  0
O  O94  1  0.16242162  0.46844471  0.56607762  1  0  -0.583761  0  1.88377  0  0  -0.544358  0  2.094973  0  0  -0.566095  0  2.086632  0  0  -0.315336  -0.529197  0  2.099888  0
O  O95  1  0.62205242  0.67957762  0.50566984  1  0  -0.656315  0  2.086652  0  0  -0.574887  0  2.369612  0  0  -0.604566  0  2.353267  0  0  -0.330315  -0.554237  0  2.379658  0
O  O96  1  0.32041858  0.37794754  0.49433058  1  0  -0.656342  0  2.08652  0  0  -0.574926  0  2.369546  0  0  -0.60461  0  2.353191  0  0  -0.330349  -0.55427  0  2.379586  0
O  O97  1  0.66418462  0.33581593  0.00000075  1  0  -0.471058  0  1.929698  0  0  -0.427634  0  2.136365  0  0  -0.443903  0  2.132413  0  0  -0.259279  -0.416984  0  2.139847  0
