# generated using pymatgen
data_CuH10C6(NO2)4
_symmetry_space_group_name_H-M   'P 1'
_cell_length_a   6.24134674
_cell_length_b   14.48085259
_cell_length_c   14.48129884
_cell_angle_alpha   90.00021859
_cell_angle_beta   90.00119845
_cell_angle_gamma   89.99872024
_symmetry_Int_Tables_number   1
_chemical_formula_structural   CuH10C6(NO2)4
_chemical_formula_sum   'Cu4 H40 C24 N16 O32'
_cell_volume   1308.82010971
_cell_formula_units_Z   4
loop_
 _symmetry_equiv_pos_site_id
 _symmetry_equiv_pos_as_xyz
  1  'x, y, z'
loop_
 _atom_site_type_symbol
 _atom_site_label
 _atom_site_symmetry_multiplicity
 _atom_site_fract_x
 _atom_site_fract_y
 _atom_site_fract_z
 _atom_site_occupancy
 _atom_site_hle17_ddec_charge
 _atom_site_hle17_ddec_spin_density
 _atom_site_hle17_ddec_sum_bond_order
 _atom_site_hle17_magmom
 _atom_site_hse06_10hf_ddec_charge
 _atom_site_hse06_10hf_ddec_spin_density
 _atom_site_hse06_10hf_ddec_sum_bond_order
 _atom_site_hse06_10hf_magmom
 _atom_site_hse06_ddec_charge
 _atom_site_hse06_ddec_spin_density
 _atom_site_hse06_ddec_sum_bond_order
 _atom_site_hse06_magmom
 _atom_site_pbe_cm5_charge
 _atom_site_pbe_ddec_charge
 _atom_site_pbe_ddec_spin_density
 _atom_site_pbe_ddec_sum_bond_order
 _atom_site_pbe_magmom
Cu  Cu0  1  0.99999066  0.13378440  0.13378230  1  0.782582  0.674865  1.967341  0.469  0.752037  0.774673  2.38908  0.591  0.847814  0.858456  2.309477  0.684  0.737094  0.693972  0.71069  2.443922  0.527
Cu  Cu1  1  0.50001066  0.86620923  0.86621911  1  0.78238  0.67489  1.967712  0.469  0.751924  0.774701  2.389328  0.591  0.847699  0.858499  2.30979  0.684  0.737059  0.693807  0.710708  2.444235  0.527
Cu  Cu2  1  0.24998028  0.63378535  0.36621262  1  0.782349  -0.674876  1.967489  -0.469  0.751787  -0.774674  2.389194  -0.591  0.847643  -0.858473  2.309564  -0.684  0.736973  0.69375  -0.710725  2.44409  -0.527
Cu  Cu3  1  0.75000875  0.36621489  0.63378438  1  0.782448  -0.674885  1.967509  -0.469  0.751877  -0.774678  2.389219  -0.591  0.847717  -0.858474  2.309638  -0.684  0.737063  0.693863  -0.710695  2.444057  -0.527
H  H4  1  0.36230872  0.32511972  0.24367797  1  0.082857  -9.7e-05  0.953065  0.0  0.088566  -0.000152  1.018402  0.0  0.091679  -0.00013  1.016133  0.0  0.118445  0.086357  -0.000162  1.020138  0.0
H  H5  1  0.86235458  0.67487664  0.75632353  1  0.082985  -9.6e-05  0.952943  0.0  0.088596  -0.000152  1.018383  0.0  0.091696  -0.00013  1.016122  0.0  0.118446  0.086385  -0.000162  1.020113  0.0
H  H6  1  0.88765418  0.82511672  0.25632873  1  0.082943  0.000102  0.953027  0.0  0.088575  0.000152  1.018455  0.0  0.091666  0.00013  1.016197  0.0  0.118449  0.08637  0.000162  1.020187  0.0
H  H7  1  0.38770492  0.17488976  0.74367715  1  0.082984  0.000105  0.95301  0.0  0.08863  0.000152  1.018384  0.0  0.091734  0.00013  1.016129  0.0  0.118471  0.086426  0.000162  1.020119  0.0
H  H8  1  0.13769934  0.75631864  0.67488768  1  0.082946  -0.000104  0.953079  0.0  0.088597  -0.000152  1.018451  0.0  0.0917  -0.00013  1.016203  0.0  0.118468  0.086389  -0.000162  1.020181  0.0
H  H9  1  0.63766831  0.24368132  0.32511655  1  0.082881  -0.000103  0.953112  0.0  0.088508  -0.000152  1.018546  0.0  0.091605  -0.00013  1.01629  0.0  0.118427  0.086298  -0.000162  1.02028  0.0
H  H10  1  0.61229389  0.74367728  0.17488984  1  0.083028  0.000102  0.95304  0.0  0.088664  0.000152  1.018413  0.0  0.091776  0.00013  1.016148  0.0  0.118462  0.086457  0.000162  1.020144  0.0
H  H11  1  0.11234432  0.25633192  0.82511554  1  0.082973  0.000104  0.953004  0.0  0.088609  0.000152  1.01842  0.0  0.091703  0.00013  1.016152  0.0  0.118485  0.086407  0.000162  1.020147  0.0
H  H12  1  0.96700286  0.82850182  0.07203279  1  0.356403  -0.000421  0.911266  0.0  0.331193  -0.000164  0.983185  0.0  0.34198  -0.0001  0.973083  0.0  0.303047  0.323538  -0.000231  0.990292  0.0
H  H13  1  0.46702872  0.17149696  0.92796762  1  0.356526  -0.000422  0.911143  0.0  0.331143  -0.000164  0.983307  0.0  0.341928  -0.0001  0.973204  0.0  0.303046  0.323497  -0.000231  0.990394  0.0
H  H14  1  0.28298070  0.32850010  0.42796494  1  0.356481  0.000423  0.911164  0.0  0.331121  0.000164  0.983304  0.0  0.341908  0.0001  0.973197  0.0  0.303002  0.32347  0.000231  0.990397  0.0
H  H15  1  0.78297968  0.67149636  0.57203305  1  0.356403  0.000422  0.911238  0.0  0.331144  0.000164  0.983233  0.0  0.34193  0.0001  0.973132  0.0  0.303018  0.323495  0.000231  0.990321  0.0
H  H16  1  0.53296013  0.92797068  0.17149372  1  0.356451  -0.000422  0.911184  0.0  0.331102  -0.000164  0.983294  0.0  0.341888  -0.000101  0.973189  0.0  0.303025  0.323457  -0.000231  0.990376  0.0
H  H17  1  0.03297836  0.07203516  0.82850678  1  0.356401  -0.000424  0.911172  0.0  0.331148  -0.000164  0.983168  0.0  0.341936  -0.0001  0.973064  0.0  0.303021  0.323493  -0.00023  0.990274  0.0
H  H18  1  0.21702813  0.57202661  0.67148538  1  0.35616  0.000422  0.91144  0.0  0.330955  0.000164  0.983348  0.0  0.341744  0.0001  0.973241  0.0  0.302972  0.323309  0.000231  0.990426  0.0
H  H19  1  0.71701681  0.42796981  0.32850993  1  0.356282  0.000421  0.911296  0.0  0.330989  0.000164  0.98334  0.0  0.341782  0.0001  0.973231  0.0  0.302971  0.323338  0.000231  0.990435  0.0
H  H20  1  0.92256603  0.85682043  0.95657001  1  0.335085  -2.1e-05  0.914294  0.0  0.311767  0.000143  0.987791  0.0  0.31857  7.8e-05  0.982464  0.0  0.305505  0.306639  0.000193  0.992134  0.0
H  H21  1  0.42256326  0.14317810  0.04342653  1  0.335175  -1.8e-05  0.914242  0.0  0.31187  0.000142  0.987705  0.0  0.318672  7.8e-05  0.982381  0.0  0.305549  0.306743  0.000193  0.99204  0.0
H  H22  1  0.32743622  0.35682233  0.54342722  1  0.335152  2.1e-05  0.914233  0.0  0.311877  -0.000143  0.987667  0.0  0.31868  -7.8e-05  0.982341  0.0  0.305549  0.306748  -0.000193  0.992007  0.0
H  H23  1  0.82742964  0.64317714  0.45657119  1  0.335155  2.1e-05  0.914252  0.0  0.311846  -0.000142  0.987714  0.0  0.318648  -7.8e-05  0.98239  0.0  0.305552  0.306714  -0.000193  0.992066  0.0
H  H24  1  0.57742250  0.04342925  0.14317226  1  0.335162  -2e-05  0.914248  0.0  0.311856  0.000142  0.987707  0.0  0.318657  7.8e-05  0.982384  0.0  0.305569  0.306725  0.000193  0.992061  0.0
H  H25  1  0.07743109  0.95656924  0.85682864  1  0.335137  -2.2e-05  0.914256  0.0  0.311854  0.000143  0.987687  0.0  0.318657  7.8e-05  0.982361  0.0  0.30557  0.306725  0.000193  0.992027  0.0
H  H26  1  0.17255760  0.45656396  0.64316774  1  0.335061  2e-05  0.914345  0.0  0.311699  -0.000143  0.987878  0.0  0.318502  -7.8e-05  0.98256  0.0  0.305526  0.306565  -0.000193  0.992231  0.0
H  H27  1  0.67255620  0.54343359  0.35682922  1  0.335103  2e-05  0.914337  0.0  0.311773  -0.000143  0.987837  0.0  0.318579  -7.8e-05  0.982517  0.0  0.305514  0.306643  -0.000193  0.992188  0.0
H  H28  1  0.18873392  0.95082681  0.22962713  1  0.389463  -0.000295  0.816365  -0.001  0.364783  3.8e-05  0.887391  0.0  0.374336  -2.4e-05  0.876035  0.0  0.334451  0.357767  0.000118  0.895671  0.0
H  H29  1  0.68873028  0.04915539  0.77037137  1  0.389266  -0.000295  0.81659  -0.001  0.3646  3.8e-05  0.887549  0.0  0.374148  -2.4e-05  0.876211  0.0  0.33437  0.357588  0.000119  0.895826  0.0
H  H30  1  0.06123814  0.45082795  0.27036571  1  0.38928  0.000296  0.816453  0.001  0.36459  -3.8e-05  0.887495  0.0  0.374157  2.4e-05  0.876131  0.0  0.33433  0.357573  -0.000119  0.895772  0.0
H  H31  1  0.56124423  0.54918520  0.72962055  1  0.389444  0.000295  0.816418  0.001  0.364739  -3.8e-05  0.887492  0.0  0.374296  2.4e-05  0.876128  0.0  0.334372  0.357716  -0.000119  0.895773  0.0
H  H32  1  0.31125589  0.77036342  0.04915183  1  0.389296  -0.000294  0.816421  -0.001  0.3646  3.8e-05  0.887474  0.0  0.37417  -2.4e-05  0.876103  0.0  0.334313  0.357581  0.000119  0.895756  0.0
H  H33  1  0.81124036  0.22963276  0.95082364  1  0.389313  -0.000295  0.816524  -0.001  0.364622  3.8e-05  0.887557  0.0  0.374184  -2.4e-05  0.876197  0.0  0.33434  0.357601  0.000119  0.895839  0.0
H  H34  1  0.43872666  0.72963133  0.54915446  1  0.389326  0.000295  0.81652  0.001  0.364643  -3.8e-05  0.887519  0.0  0.374194  2.4e-05  0.876171  0.0  0.334364  0.357625  -0.000119  0.8958  0.0
H  H35  1  0.93874501  0.27036497  0.45083325  1  0.389342  0.000295  0.816389  0.001  0.364647  -3.8e-05  0.887453  0.0  0.374204  2.4e-05  0.87609  0.0  0.334391  0.357626  -0.000119  0.895732  0.0
H  H36  1  0.22395703  0.27434622  0.11446161  1  0.393612  -0.000233  0.833976  0.0  0.377501  -0.000144  0.890132  0.0  0.387445  -0.00014  0.87874  0.0  0.321065  0.370324  -0.000131  0.89854  0.0
H  H37  1  0.72399516  0.72564944  0.88553998  1  0.39384  -0.000233  0.833518  0.0  0.377668  -0.000144  0.889756  0.0  0.387614  -0.000139  0.878345  0.0  0.321063  0.37049  -0.000131  0.898163  0.0
H  H38  1  0.02601591  0.77434313  0.38553953  1  0.393787  0.000233  0.833676  0.0  0.377661  0.000144  0.889847  0.0  0.387606  0.00014  0.878447  0.0  0.321107  0.370489  0.000131  0.898256  0.0
H  H39  1  0.52603455  0.22565932  0.61446366  1  0.39369  0.000234  0.833636  0.0  0.37758  0.000144  0.889813  0.0  0.387526  0.000139  0.878409  0.0  0.321077  0.370404  0.00013  0.898228  0.0
H  H40  1  0.27604721  0.88553835  0.72566096  1  0.393737  -0.000234  0.833874  0.0  0.377626  -0.000144  0.890029  0.0  0.387568  -0.000139  0.878635  0.0  0.321096  0.370452  -0.000131  0.898432  0.0
H  H41  1  0.77603475  0.11446301  0.27434112  1  0.393757  -0.000234  0.833631  0.0  0.377636  -0.000144  0.889804  0.0  0.387582  -0.000139  0.878399  0.0  0.321102  0.370464  -0.000131  0.898216  0.0
H  H42  1  0.47395159  0.61446191  0.22566478  1  0.393718  0.000234  0.833927  0.0  0.377626  0.000144  0.890054  0.0  0.387568  0.00014  0.878666  0.0  0.321131  0.370455  0.000131  0.898456  0.0
H  H43  1  0.97397122  0.38554440  0.77433501  1  0.393827  0.000232  0.833722  0.0  0.377714  0.000144  0.889852  0.0  0.387656  0.000139  0.878457  0.0  0.321151  0.370538  0.00013  0.898257  0.0
C  C44  1  0.00583906  0.96678981  0.03946587  1  0.347894  0.004952  3.874147  0.005  0.315308  0.006145  4.152899  0.007  0.336003  0.004031  4.16417  0.005  0.238995  0.301879  0.008078  4.144658  0.009
C  C45  1  0.50586273  0.03321008  0.96053437  1  0.347983  0.004956  3.873853  0.005  0.315231  0.006144  4.152879  0.007  0.335925  0.004029  4.164138  0.005  0.238905  0.301789  0.008076  4.144656  0.009
C  C46  1  0.24413219  0.46678227  0.46053186  1  0.347912  -0.004961  3.874121  -0.005  0.315152  -0.006147  4.153069  -0.007  0.335852  -0.004032  4.16432  -0.005  0.238944  0.301716  -0.008081  4.144839  -0.009
C  C47  1  0.74413342  0.53321457  0.53946509  1  0.34801  -0.004958  3.874048  -0.005  0.315245  -0.006147  4.153023  -0.007  0.33595  -0.004031  4.164265  -0.005  0.238933  0.30181  -0.00808  4.144789  -0.009
C  C48  1  0.49413113  0.96053222  0.03320904  1  0.347999  0.004957  3.874082  0.005  0.315224  0.006144  4.153107  0.007  0.335937  0.004031  4.164314  0.005  0.238967  0.301789  0.008077  4.14487  0.009
C  C49  1  0.99414035  0.03946698  0.96679232  1  0.347832  0.004959  3.874309  0.005  0.3151  0.006145  4.153214  0.007  0.335796  0.004031  4.164479  0.005  0.23891  0.301661  0.008078  4.144986  0.009
C  C50  1  0.25584747  0.53946039  0.53320854  1  0.34781  -0.004958  3.874113  -0.005  0.315223  -0.006145  4.152932  -0.007  0.335925  -0.004031  4.164204  -0.005  0.239014  0.301785  -0.008078  4.144705  -0.009
C  C51  1  0.75586500  0.46053772  0.46678713  1  0.347835  -0.004949  3.874074  -0.005  0.315188  -0.006146  4.152943  -0.007  0.335893  -0.00403  4.164211  -0.005  0.238955  0.30175  -0.008079  4.144711  -0.009
C  C52  1  0.22712270  0.20013752  0.29533821  1  0.645349  -0.002663  3.817802  -0.005  0.598227  0.000973  4.132294  0.0  0.634547  0.000657  4.125219  0.0  0.207501  0.573396  0.001316  4.136636  0.0
C  C53  1  0.72715505  0.79986018  0.70466272  1  0.645286  -0.002668  3.818417  -0.005  0.598268  0.000973  4.13275  0.0  0.63459  0.000661  4.125672  0.0  0.207452  0.573434  0.001317  4.137072  0.0
C  C54  1  0.02285238  0.70014483  0.20464952  1  0.645473  0.00268  3.818129  0.005  0.598398  -0.000973  4.132511  0.0  0.63472  -0.000661  4.125432  0.0  0.207528  0.573569  -0.001316  4.136842  0.0
C  C55  1  0.52291257  0.29986249  0.79534880  1  0.644891  0.002659  3.818284  0.005  0.597838  -0.000975  4.132701  0.0  0.634149  -0.00066  4.125641  0.0  0.207275  0.573007  -0.001318  4.137034  0.0
C  C56  1  0.27292597  0.70465413  0.79986181  1  0.644815  -0.002668  3.817922  -0.005  0.597981  0.000973  4.132058  0.0  0.634294  0.00066  4.124992  0.0  0.207415  0.573144  0.001317  4.136382  0.0
C  C57  1  0.77286408  0.29534657  0.20014231  1  0.645282  -0.002664  3.818117  -0.005  0.59826  0.000972  4.132441  0.0  0.634581  0.000659  4.125361  0.0  0.207481  0.57343  0.001316  4.136773  0.0
C  C58  1  0.47709391  0.79535470  0.29986014  1  0.64494  0.002665  3.818294  0.005  0.597887  -0.000974  4.132705  0.0  0.634198  -0.00066  4.125644  0.0  0.207332  0.573063  -0.001319  4.137033  0.0
C  C59  1  0.97714965  0.20464951  0.70014451  1  0.645364  0.002662  3.818149  0.005  0.598274  -0.000974  4.13259  0.0  0.634598  -0.00066  4.125506  0.0  0.207475  0.57344  -0.001317  4.136941  0.0
C  C60  1  0.38319035  0.25119991  0.22892442  1  0.059791  -0.000328  3.609909  0.0  0.031683  -0.000185  3.866101  0.0  0.032148  -0.000255  3.874236  0.0  -0.007946  0.031301  -0.000126  3.860446  0.0
C  C61  1  0.88323157  0.74879694  0.77108004  1  0.059397  -0.00033  3.610371  0.0  0.031343  -0.000185  3.866462  0.0  0.031808  -0.000257  3.874603  0.0  -0.008042  0.030969  -0.000126  3.860791  0.0
C  C62  1  0.86678589  0.75119648  0.27107786  1  0.059483  0.000301  3.609965  0.0  0.031413  0.000187  3.866125  0.0  0.03189  0.000257  3.874256  0.0  -0.00811  0.031033  0.000126  3.860468  0.0
C  C63  1  0.36682740  0.24880951  0.72892645  1  0.059618  0.000303  3.610037  0.0  0.031559  0.000187  3.866143  0.0  0.032023  0.000256  3.874291  0.0  -0.007975  0.031181  0.000127  3.860487  0.0
C  C64  1  0.11683660  0.77106871  0.74880778  1  0.059772  -0.0003  3.610222  0.0  0.031647  -0.000184  3.86627  0.0  0.032108  -0.000256  3.874417  0.0  -0.007965  0.031267  -0.000125  3.860605  0.0
C  C65  1  0.61679646  0.22892732  0.25119764  1  0.0597  -0.000301  3.610029  0.0  0.031612  -0.000184  3.866209  0.0  0.032081  -0.000255  3.874345  0.0  -0.007959  0.031237  -0.000126  3.860544  0.0
C  C66  1  0.63317129  0.72892818  0.24880938  1  0.059434  0.000316  3.610267  0.0  0.031408  0.000186  3.866335  0.0  0.031871  0.000257  3.874479  0.0  -0.007962  0.031031  0.000127  3.860672  0.0
C  C67  1  0.13321592  0.27108150  0.75119757  1  0.059504  0.0003  3.609853  0.0  0.031433  0.000187  3.866026  0.0  0.031913  0.000255  3.874148  0.0  -0.008114  0.031053  0.000127  3.860371  0.0
N  N68  1  0.06568088  0.00186167  0.11959248  1  -0.285172  0.062942  3.185284  0.076  -0.272968  0.05069  3.536282  0.065  -0.302887  0.041523  3.549769  0.057  -0.318863  -0.256213  0.055478  3.529598  0.068
N  N69  1  0.56568419  0.99813348  0.88040900  1  -0.28494  0.062936  3.185041  0.076  -0.272702  0.050692  3.53605  0.065  -0.30262  0.041524  3.549564  0.057  -0.318683  -0.255925  0.05548  3.529355  0.068
N  N70  1  0.18430100  0.50186322  0.38040002  1  -0.285117  -0.062947  3.18488  -0.076  -0.272842  -0.050701  3.535898  -0.065  -0.302758  -0.041528  3.549421  -0.057  -0.318873  -0.256087  -0.055486  3.529224  -0.068
N  N71  1  0.68431415  0.49813491  0.61959360  1  -0.285253  -0.062943  3.185345  -0.076  -0.272981  -0.050693  3.53637  -0.065  -0.302917  -0.041524  3.549887  -0.057  -0.318836  -0.256226  -0.055484  3.529689  -0.068
N  N72  1  0.43430480  0.88040510  0.99813517  1  -0.285187  0.062929  3.185403  0.076  -0.272929  0.050687  3.536422  0.065  -0.302828  0.041518  3.549931  0.057  -0.318823  -0.256151  0.055476  3.529712  0.068
N  N73  1  0.93430179  0.11959539  0.00186286  1  -0.285128  0.062926  3.185373  0.076  -0.272866  0.050692  3.536382  0.065  -0.302767  0.041522  3.549865  0.057  -0.318832  -0.2561  0.055482  3.529689  0.068
N  N74  1  0.31567467  0.61959205  0.49812994  1  -0.284882  -0.062932  3.184887  -0.076  -0.272724  -0.050688  3.535924  -0.065  -0.302664  -0.041519  3.549446  -0.057  -0.318724  -0.255976  -0.055473  3.529268  -0.068
N  N75  1  0.81568345  0.38040339  0.50186768  1  -0.285189  -0.062957  3.184975  -0.076  -0.272983  -0.050697  3.536006  -0.065  -0.302924  -0.041527  3.549526  -0.057  -0.318869  -0.25622  -0.055486  3.529321  -0.068
N  N76  1  0.95736626  0.87945319  0.02174868  1  -0.604009  0.015552  3.142722  0.017  -0.5729  0.007562  3.385962  0.008  -0.592599  0.004976  3.382398  0.006  -0.5588  -0.559766  0.009729  3.388726  0.01
N  N77  1  0.45736660  0.12054776  0.97824819  1  -0.604321  0.015541  3.142586  0.017  -0.573027  0.007558  3.386072  0.008  -0.592722  0.004972  3.382507  0.006  -0.558822  -0.559898  0.009723  3.388843  0.01
N  N78  1  0.29262594  0.37945364  0.47824442  1  -0.604136  -0.015558  3.142844  -0.017  -0.572908  -0.00756  3.386275  -0.008  -0.592594  -0.004975  3.382703  -0.006  -0.558777  -0.559778  -0.009725  3.389035  -0.01
N  N79  1  0.79261393  0.62054686  0.52174884  1  -0.604175  -0.015543  3.142923  -0.017  -0.572943  -0.007557  3.386211  -0.008  -0.592637  -0.004974  3.382637  -0.006  -0.558833  -0.559812  -0.009724  3.388977  -0.01
N  N80  1  0.54261584  0.97825141  0.12054470  1  -0.604272  0.015548  3.142736  0.017  -0.572939  0.00756  3.38609  0.008  -0.592634  0.004975  3.382517  0.006  -0.558861  -0.559815  0.009725  3.388863  0.01
N  N81  1  0.04261816  0.02174950  0.87945727  1  -0.60408  0.015566  3.142686  0.017  -0.572908  0.00756  3.385988  0.008  -0.592606  0.004975  3.382425  0.006  -0.558816  -0.559772  0.009728  3.388752  0.01
N  N82  1  0.20736843  0.52174637  0.62053539  1  -0.603675  -0.015542  3.142963  -0.017  -0.572497  -0.007559  3.38632  -0.008  -0.592201  -0.004975  3.382772  -0.006  -0.558701  -0.559365  -0.009724  3.389067  -0.01
N  N83  1  0.70736817  0.47824945  0.37946052  1  -0.603876  -0.015535  3.143028  -0.017  -0.572581  -0.007557  3.386271  -0.008  -0.592296  -0.004972  3.382726  -0.006  -0.558678  -0.559451  -0.00972  3.389038  -0.01
O  O84  1  0.05979165  0.93812784  0.19233634  1  -0.368289  0.025197  2.040602  0.031  -0.323285  0.014287  2.267967  0.019  -0.337772  0.009077  2.263925  0.012  -0.266076  -0.312111  0.018886  2.271196  0.024
O  O85  1  0.55980032  0.06186737  0.80766303  1  -0.368204  0.025195  2.040585  0.031  -0.323167  0.014287  2.267955  0.019  -0.337656  0.009076  2.263917  0.012  -0.26605  -0.312005  0.018882  2.271184  0.024
O  O86  1  0.19018425  0.43813131  0.30765852  1  -0.368111  -0.025205  2.040654  -0.031  -0.323107  -0.014291  2.268012  -0.019  -0.337657  -0.009077  2.264011  -0.012  -0.265924  -0.311928  -0.018887  2.271236  -0.024
O  O87  1  0.69020079  0.56186952  0.69233516  1  -0.368274  -0.025199  2.040809  -0.031  -0.323247  -0.014291  2.268147  -0.019  -0.33774  -0.009079  2.264115  -0.012  -0.266006  -0.312068  -0.018892  2.271365  -0.024
O  O88  1  0.44018095  0.80765757  0.06186960  1  -0.368094  0.025186  2.040584  0.031  -0.323071  0.014283  2.267911  0.019  -0.337612  0.009073  2.263897  0.012  -0.26589  -0.311898  0.018878  2.271129  0.024
O  O89  1  0.94018913  0.19234217  0.93813194  1  -0.368138  0.025198  2.040649  0.031  -0.323111  0.014288  2.267969  0.019  -0.337629  0.009077  2.26394  0.012  -0.265924  -0.311938  0.018885  2.271194  0.024
O  O90  1  0.30980219  0.69233447  0.56186535  1  -0.368381  -0.025189  2.040657  -0.031  -0.323309  -0.014287  2.268033  -0.019  -0.3378  -0.009077  2.264003  -0.012  -0.266101  -0.312134  -0.018882  2.271263  -0.024
O  O91  1  0.80980366  0.30765828  0.43813497  1  -0.368124  -0.025199  2.040512  -0.031  -0.323101  -0.01429  2.267881  -0.019  -0.337589  -0.009078  2.263843  -0.012  -0.266007  -0.311933  -0.018886  2.271107  -0.024
O  O92  1  0.09649944  0.13898977  0.26335417  1  -0.613819  0.073376  2.093895  0.095  -0.580003  0.048342  2.369183  0.068  -0.621043  0.038517  2.355767  0.057  -0.34167  -0.55328  0.05366  2.378771  0.072
O  O93  1  0.59652860  0.86101060  0.73665106  1  -0.61377  0.073402  2.094138  0.095  -0.580033  0.048352  2.369406  0.068  -0.621074  0.038522  2.356002  0.057  -0.341596  -0.553302  0.053677  2.378995  0.072
O  O94  1  0.15348994  0.63898969  0.23663679  1  -0.613838  -0.073406  2.093755  -0.095  -0.580061  -0.048353  2.369028  -0.068  -0.621119  -0.038522  2.355623  -0.057  -0.341635  -0.553342  -0.053671  2.378627  -0.072
O  O95  1  0.65352793  0.36101702  0.76336138  1  -0.613623  -0.073373  2.093665  -0.095  -0.579831  -0.048342  2.36891  -0.068  -0.620881  -0.038512  2.355521  -0.057  -0.341593  -0.553119  -0.053659  2.378502  -0.072
O  O96  1  0.40353462  0.73663376  0.86101584  1  -0.613566  0.073366  2.093978  0.095  -0.579855  0.048337  2.369151  0.068  -0.620888  0.038512  2.355754  0.057  -0.341673  -0.553124  0.05366  2.378728  0.072
O  O97  1  0.90348430  0.26336013  0.13899295  1  -0.613782  0.073382  2.094031  0.095  -0.580016  0.048344  2.36929  0.068  -0.621057  0.038518  2.355872  0.057  -0.341613  -0.553289  0.053665  2.37887  0.072
O  O98  1  0.34648010  0.76336632  0.36101627  1  -0.613715  -0.073378  2.093652  -0.095  -0.579916  -0.048341  2.368891  -0.068  -0.620968  -0.038513  2.355497  -0.057  -0.341661  -0.553198  -0.053655  2.378489  -0.072
O  O99  1  0.84651375  0.23663780  0.63898922  1  -0.613789  -0.073396  2.093691  -0.095  -0.579981  -0.048352  2.368936  -0.068  -0.62104  -0.038518  2.355535  -0.057  -0.341619  -0.553265  -0.053671  2.378541  -0.072
O  O100  1  0.23249953  0.22249752  0.37884598  1  -0.589421  0.015103  1.937588  0.019  -0.551356  0.008179  2.160205  0.011  -0.575294  0.004899  2.148148  0.007  -0.315089  -0.533951  0.011312  2.167769  0.015
O  O101  1  0.73253391  0.77750772  0.62116121  1  -0.589219  0.01511  1.937859  0.019  -0.551259  0.008181  2.160412  0.011  -0.575193  0.004899  2.148359  0.007  -0.315088  -0.533858  0.011315  2.167967  0.015
O  O102  1  0.01746481  0.72249697  0.12115634  1  -0.589283  -0.015089  1.938187  -0.019  -0.551282  -0.008174  2.16075  -0.011  -0.575215  -0.004895  2.148691  -0.007  -0.315059  -0.53388  -0.011303  2.168307  -0.015
O  O103  1  0.51755727  0.27749935  0.87884539  1  -0.589148  -0.015079  1.938015  -0.019  -0.551091  -0.008174  2.16058  -0.011  -0.57502  -0.004896  2.148528  -0.007  -0.31495  -0.533687  -0.011302  2.16813  -0.015
O  O104  1  0.26757775  0.62114522  0.77748795  1  -0.589124  0.015105  1.937386  0.019  -0.551239  0.00818  2.159878  0.011  -0.575175  0.0049  2.14782  0.007  -0.315057  -0.533837  0.011315  2.16743  0.015
O  O105  1  0.76748705  0.37885209  0.22250300  1  -0.589285  0.015097  1.937731  0.019  -0.551285  0.008178  2.160288  0.011  -0.57522  0.004898  2.148228  0.007  -0.315072  -0.533882  0.011312  2.167845  0.015
O  O106  1  0.48244910  0.87885178  0.27749907  1  -0.589072  -0.015087  1.937902  -0.019  -0.551041  -0.008174  2.16048  -0.011  -0.574968  -0.004896  2.148425  -0.007  -0.314924  -0.533646  -0.011301  2.168038  -0.015
O  O107  1  0.98252612  0.12115790  0.72250494  1  -0.589252  -0.01508  1.938306  -0.019  -0.55125  -0.008173  2.160895  -0.011  -0.57518  -0.004896  2.148837  -0.007  -0.31502  -0.533849  -0.011301  2.168462  -0.015
O  O108  1  0.34312186  0.23409113  0.13287964  1  -0.541031  -0.000821  2.083028  0.0  -0.49447  -0.000861  2.301973  0.0  -0.51095  -0.000997  2.287776  -0.001  -0.389113  -0.4828  -0.000648  2.31201  0.0
O  O109  1  0.84316671  0.76590059  0.86712583  1  -0.54115  -0.000821  2.082739  0.0  -0.494498  -0.000861  2.301603  0.0  -0.510974  -0.000999  2.287402  -0.001  -0.389054  -0.482824  -0.000648  2.311643  0.0
O  O110  1  0.90685523  0.73408697  0.36712465  1  -0.541118  0.000826  2.08269  0.0  -0.494523  0.00086  2.301587  0.0  -0.511009  0.000997  2.287385  0.001  -0.389094  -0.482861  0.000648  2.311639  0.0
O  O111  1  0.40687538  0.26591655  0.63287934  1  -0.540963  0.000823  2.082648  0.0  -0.494441  0.000861  2.301594  0.0  -0.510929  0.000998  2.287405  0.001  -0.389071  -0.482779  0.000648  2.311644  0.0
O  O112  1  0.15689645  0.86711814  0.76591780  1  -0.541066  -0.000823  2.083002  0.0  -0.494526  -0.000863  2.301937  0.0  -0.511001  -0.000999  2.287736  -0.001  -0.389074  -0.48286  -0.000649  2.311979  0.0
O  O113  1  0.65686355  0.13287957  0.23408937  1  -0.541224  -0.000822  2.082725  0.0  -0.494641  -0.000862  2.301654  0.0  -0.51112  -0.000998  2.287446  -0.001  -0.389164  -0.482974  -0.000647  2.311702  0.0
O  O114  1  0.59312346  0.63287606  0.26591590  1  -0.540993  0.000822  2.082906  0.0  -0.494486  0.000861  2.301832  0.0  -0.51097  0.000997  2.287642  0.001  -0.389153  -0.482825  0.000648  2.311876  0.0
O  O115  1  0.09314322  0.36712780  0.73408653  1  -0.541284  0.000824  2.082835  0.0  -0.494663  0.00086  2.301701  0.0  -0.511146  0.000998  2.287505  0.001  -0.389201  -0.483004  0.000648  2.311746  0.0
