# generated using pymatgen
data_ZnH12C8(N5O2)2
_symmetry_space_group_name_H-M   'P 1'
_cell_length_a   6.51963778
_cell_length_b   8.46828557
_cell_length_c   12.62198310
_cell_angle_alpha   89.99994578
_cell_angle_beta   89.99986012
_cell_angle_gamma   89.99993116
_symmetry_Int_Tables_number   1
_chemical_formula_structural   ZnH12C8(N5O2)2
_chemical_formula_sum   'Zn2 H24 C16 N20 O8'
_cell_volume   696.86163741
_cell_formula_units_Z   2
loop_
 _symmetry_equiv_pos_site_id
 _symmetry_equiv_pos_as_xyz
  1  'x, y, z'
loop_
 _atom_site_type_symbol
 _atom_site_label
 _atom_site_symmetry_multiplicity
 _atom_site_fract_x
 _atom_site_fract_y
 _atom_site_fract_z
 _atom_site_occupancy
 _atom_site_hle17_bader_spin_density
 _atom_site_hle17_ddec_charge
 _atom_site_hle17_ddec_spin_density
 _atom_site_hle17_ddec_sum_bond_order
 _atom_site_hle17_magmom
 _atom_site_hse06_10hf_bader_spin_density
 _atom_site_hse06_10hf_ddec_charge
 _atom_site_hse06_10hf_ddec_spin_density
 _atom_site_hse06_10hf_ddec_sum_bond_order
 _atom_site_hse06_10hf_magmom
 _atom_site_hse06_bader_spin_density
 _atom_site_hse06_ddec_charge
 _atom_site_hse06_ddec_spin_density
 _atom_site_hse06_ddec_sum_bond_order
 _atom_site_hse06_magmom
 _atom_site_pbe_bader_spin_density
 _atom_site_pbe_cm5_charge
 _atom_site_pbe_ddec_charge
 _atom_site_pbe_ddec_spin_density
 _atom_site_pbe_ddec_sum_bond_order
 _atom_site_pbe_magmom
Zn  Zn0  1  0.50000132  0.95848504  0.50000005  1  0  1.038441  0  1.832578  0  0  0.848877  0  2.305108  0  0  0.894508  0  2.249859  0  0  0.728186  0.816943  0  2.343238  0
Zn  Zn1  1  0.00000304  0.04151490  0.00000078  1  0  1.038443  0  1.832561  0  0  0.848897  0  2.305083  0  0  0.894528  0  2.249834  0  0  0.728189  0.816964  0  2.343212  0
H  H2  1  0.33237782  0.84050114  0.83325369  1  0  0.361762  0  0.910485  0  0  0.336275  0  0.984517  0  0  0.345223  0  0.976241  0  0  0.303494  0.329967  0  0.990327  0
H  H3  1  0.66762500  0.84050028  0.16674648  1  0  0.361767  0  0.910497  0  0  0.336284  0  0.984521  0  0  0.345233  0  0.976245  0  0  0.303486  0.329977  0  0.990331  0
H  H4  1  0.83237737  0.15950014  0.66674806  1  0  0.361848  0  0.910423  0  0  0.33629  0  0.984554  0  0  0.345239  0  0.976275  0  0  0.303485  0.329981  0  0.990365  0
H  H5  1  0.16762497  0.15949950  0.33325413  1  0  0.361748  0  0.910519  0  0  0.336261  0  0.984545  0  0  0.345211  0  0.97627  0  0  0.303487  0.329954  0  0.990355  0
H  H6  1  0.31057925  0.95555522  0.71539422  1  0  0.353658  0  0.899413  0  0  0.332391  0  0.966227  0  0  0.340292  0  0.959517  0  0  0.308105  0.326793  0  0.970987  0
H  H7  1  0.68942186  0.95555417  0.28460668  1  0  0.353775  0  0.899255  0  0  0.332445  0  0.966164  0  0  0.340346  0  0.959453  0  0  0.308112  0.326848  0  0.970923  0
H  H8  1  0.81057843  0.04444608  0.78460677  1  0  0.353803  0  0.899223  0  0  0.332468  0  0.966132  0  0  0.340369  0  0.959421  0  0  0.308127  0.32687  0  0.97089  0
H  H9  1  0.18942256  0.04444559  0.21539391  1  0  0.353678  0  0.899364  0  0  0.332412  0  0.966174  0  0  0.340313  0  0.959464  0  0  0.308115  0.326814  0  0.970931  0
H  H10  1  0.52329796  0.62235060  0.89241867  1  0  0.09726  0  0.931319  0  0  0.1054  0  0.991313  0  0  0.107725  0  0.99013  0  0  0.127144  0.10369  0  0.992263  0
H  H11  1  0.47670366  0.62234999  0.10758244  1  0  0.097335  0  0.931249  0  0  0.10544  0  0.99127  0  0  0.107766  0  0.990087  0  0  0.127147  0.103731  0  0.99222  0
H  H12  1  0.02329405  0.37764743  0.60758189  1  0  0.097341  0  0.931256  0  0  0.105485  0  0.991236  0  0  0.107808  0  0.990055  0  0  0.127158  0.103774  0  0.992186  0
H  H13  1  0.97670335  0.37765068  0.39241858  1  0  0.097268  0  0.931306  0  0  0.105408  0  0.991296  0  0  0.107732  0  0.990114  0  0  0.127142  0.103697  0  0.992246  0
H  H14  1  0.75445836  0.41073509  0.82737572  1  0  0.110185  0  0.965018  0  0  0.124191  0  1.03913  0  0  0.12596  0  1.03858  0  0  0.090422  0.122887  0  1.03954  0
H  H15  1  0.24554052  0.41073343  0.17262473  1  0  0.110177  0  0.965016  0  0  0.124184  0  1.039121  0  0  0.125953  0  1.03857  0  0  0.090417  0.12288  0  1.039531  0
H  H16  1  0.25445688  0.58926626  0.67261979  1  0  0.110216  0  0.964988  0  0  0.124224  0  1.039104  0  0  0.125994  0  1.038551  0  0  0.090444  0.122921  0  1.039516  0
H  H17  1  0.74554019  0.58926509  0.32737579  1  0  0.110182  0  0.96502  0  0  0.124189  0  1.039126  0  0  0.125958  0  1.038576  0  0  0.090422  0.122886  0  1.039536  0
H  H18  1  0.79208587  0.45355120  0.96366013  1  0  0.119242  0  0.968908  0  0  0.136174  0  1.037157  0  0  0.137566  0  1.037468  0  0  0.093411  0.135085  0  1.037032  0
H  H19  1  0.20791449  0.45355213  0.03634108  1  0  0.11923  0  0.968885  0  0  0.136146  0  1.037155  0  0  0.137537  0  1.037469  0  0  0.093405  0.135069  0  1.037015  0
H  H20  1  0.29208049  0.54644421  0.53633771  1  0  0.119244  0  0.968959  0  0  0.136247  0  1.037123  0  0  0.13764  0  1.037433  0  0  0.09343  0.135162  0  1.036994  0
H  H21  1  0.70791205  0.54644879  0.46366028  1  0  0.119244  0  0.968896  0  0  0.136174  0  1.037148  0  0  0.137566  0  1.037459  0  0  0.093408  0.135084  0  1.037022  0
H  H22  1  0.97412222  0.52333509  0.86862580  1  0  0.115402  0  0.953084  0  0  0.129881  0  1.022839  0  0  0.131593  0  1.022864  0  0  0.090348  0.128586  0  1.02294  0
H  H23  1  0.02587956  0.52333723  0.13137537  1  0  0.115397  0  0.953119  0  0  0.129869  0  1.022866  0  0  0.131581  0  1.02289  0  0  0.090348  0.128574  0  1.022967  0
H  H24  1  0.47411958  0.47666252  0.63137022  1  0  0.115435  0  0.953097  0  0  0.129918  0  1.022848  0  0  0.131629  0  1.022876  0  0  0.090363  0.128623  0  1.02295  0
H  H25  1  0.52587767  0.47666386  0.36862622  1  0  0.115399  0  0.953085  0  0  0.129876  0  1.022837  0  0  0.131588  0  1.022863  0  0  0.090345  0.128581  0  1.022936  0
C  C26  1  0.55302228  0.80918073  0.71686297  1  0  0.549212  0  3.840979  0  0  0.488889  0  4.12257  0  0  0.513855  0  4.131782  0  0  0.356095  0.472121  0  4.116043  0
C  C27  1  0.44697906  0.80918109  0.28313722  1  0  0.549493  0  3.840749  0  0  0.489114  0  4.122409  0  0  0.514085  0  4.131611  0  0  0.356197  0.472336  0  4.115897  0
C  C28  1  0.05302243  0.19081963  0.78313754  1  0  0.549524  0  3.840732  0  0  0.489151  0  4.122364  0  0  0.514124  0  4.131563  0  0  0.356252  0.472372  0  4.115854  0
C  C29  1  0.94698140  0.19081961  0.21686384  1  0  0.549235  0  3.840999  0  0  0.488924  0  4.12258  0  0  0.513887  0  4.131793  0  0  0.356141  0.472148  0  4.116064  0
C  C30  1  0.68390200  0.64938789  0.87229731  1  0  0.026292  0  3.61051  0  0  0.009045  0  3.846427  0  0  0.008451  0  3.858541  0  0  0.024009  0.00946  0  3.838229  0
C  C31  1  0.31609958  0.64938740  0.12770298  1  0  0.026169  0  3.610799  0  0  0.008969  0  3.846655  0  0  0.008361  0  3.858779  0  0  0.024029  0.009382  0  3.838459  0
C  C32  1  0.18389804  0.35061117  0.62770225  1  0  0.02624  0  3.610622  0  0  0.008996  0  3.84652  0  0  0.008398  0  3.858637  0  0  0.024008  0.009411  0  3.838322  0
C  C33  1  0.81609941  0.35061224  0.37229745  1  0  0.026228  0  3.610659  0  0  0.009006  0  3.846548  0  0  0.008403  0  3.858666  0  0  0.024019  0.009421  0  3.838349  0
C  C34  1  0.75517102  0.77802895  0.95047274  1  0  0.664041  0  3.831777  0  0  0.610349  0  4.13581  0  0  0.643437  0  4.128817  0  0  0.219188  0.58779  0  4.13993  0
C  C35  1  0.24483190  0.77802746  0.04952747  1  0  0.664102  0  3.831829  0  0  0.610449  0  4.135781  0  0  0.643554  0  4.128766  0  0  0.219187  0.587889  0  4.139902  0
C  C36  1  0.25516915  0.22197004  0.54952752  1  0  0.664099  0  3.831811  0  0  0.61043  0  4.135807  0  0  0.643528  0  4.128801  0  0  0.219195  0.58787  0  4.139927  0
C  C37  1  0.74483002  0.22197106  0.45047146  1  0  0.664036  0  3.831843  0  0  0.61034  0  4.135864  0  0  0.643442  0  4.128852  0  0  0.219157  0.58778  0  4.139983  0
C  C38  1  0.81143525  0.49945901  0.88327654  1  0  -0.32139  0  3.669001  0  0  -0.409193  0  3.918828  0  0  -0.411597  0  3.92825  0  0  -0.24604  -0.407135  0  3.912247  0
C  C39  1  0.18856656  0.49945984  0.11672465  1  0  -0.321353  0  3.669102  0  0  -0.409137  0  3.918925  0  0  -0.411538  0  3.928345  0  0  -0.246033  -0.407087  0  3.912336  0
C  C40  1  0.31143264  0.50053875  0.61672128  1  0  -0.321479  0  3.669111  0  0  -0.409357  0  3.918933  0  0  -0.411758  0  3.928349  0  0  -0.246126  -0.407298  0  3.912336  0
C  C41  1  0.68856457  0.50054110  0.38327594  1  0  -0.321363  0  3.669024  0  0  -0.409171  0  3.918854  0  0  -0.411575  0  3.928275  0  0  -0.246041  -0.407117  0  3.91228  0
N  N42  1  0.62372581  0.83221141  0.61729616  1  0  -0.440415  0  3.160329  0  0  -0.366831  0  3.47971  0  0  -0.389439  0  3.48406  0  0  -0.262429  -0.351656  0  3.476664  0
N  N43  1  0.37627549  0.83221287  0.38270402  1  0  -0.440521  0  3.160311  0  0  -0.366918  0  3.479717  0  0  -0.389528  0  3.484066  0  0  -0.262446  -0.351739  0  3.476676  0
N  N44  1  0.12372553  0.16778889  0.88270427  1  0  -0.440474  0  3.160274  0  0  -0.366886  0  3.479682  0  0  -0.389495  0  3.484029  0  0  -0.262437  -0.351707  0  3.476641  0
N  N45  1  0.87627527  0.16778790  0.11729712  1  0  -0.440423  0  3.160268  0  0  -0.366865  0  3.479667  0  0  -0.389472  0  3.484019  0  0  -0.262436  -0.351686  0  3.476624  0
N  N46  1  0.68469367  0.70623418  0.76321856  1  0  -0.105776  0  3.451841  0  0  -0.024401  0  3.67926  0  0  -0.04034  0  3.701118  0  0  -0.130195  -0.014033  0  3.664631  0
N  N47  1  0.31530936  0.70623354  0.23678250  1  0  -0.105844  0  3.451731  0  0  -0.024472  0  3.67918  0  0  -0.040406  0  3.701033  0  0  -0.13028  -0.014099  0  3.664555  0
N  N48  1  0.18469082  0.29376724  0.73678259  1  0  -0.10591  0  3.451832  0  0  -0.024527  0  3.679278  0  0  -0.040465  0  3.701129  0  0  -0.130286  -0.014154  0  3.664652  0
N  N49  1  0.81530825  0.29376728  0.26321873  1  0  -0.105702  0  3.451797  0  0  -0.024349  0  3.679232  0  0  -0.040279  0  3.70108  0  0  -0.1302  -0.013976  0  3.664605  0
N  N50  1  0.79780766  0.74364205  0.60591435  1  0  -0.024984  0  2.960254  0  0  -0.03168  0  3.263754  0  0  -0.025135  0  3.26971  0  0  -0.073046  -0.035909  0  3.259791  0
N  N51  1  0.20219378  0.74364247  0.39408589  1  0  -0.024917  0  2.960278  0  0  -0.031622  0  3.263775  0  0  -0.025075  0  3.269733  0  0  -0.073026  -0.03585  0  3.259812  0
N  N52  1  0.29780719  0.25635808  0.89408507  1  0  -0.024978  0  2.9603  0  0  -0.03167  0  3.263789  0  0  -0.025125  0  3.269748  0  0  -0.073056  -0.0359  0  3.25983  0
N  N53  1  0.70219347  0.25635845  0.10591548  1  0  -0.024923  0  2.960267  0  0  -0.031603  0  3.263755  0  0  -0.025057  0  3.269712  0  0  -0.073019  -0.035833  0  3.259792  0
N  N54  1  0.83617314  0.66861734  0.69198402  1  0  -0.068306  0  2.864404  0  0  -0.07292  0  3.157039  0  0  -0.069771  0  3.164268  0  0  -0.063805  -0.075035  0  3.152376  0
N  N55  1  0.16382995  0.66861674  0.30801626  1  0  -0.068372  0  2.86441  0  0  -0.072974  0  3.157031  0  0  -0.069829  0  3.164263  0  0  -0.063815  -0.075087  0  3.152367  0
N  N56  1  0.33617143  0.33138394  0.80801613  1  0  -0.068319  0  2.864469  0  0  -0.072929  0  3.157092  0  0  -0.069784  0  3.164325  0  0  -0.063797  -0.075044  0  3.152429  0
N  N57  1  0.66382912  0.33138422  0.19198515  1  0  -0.06841  0  2.864434  0  0  -0.073021  0  3.157065  0  0  -0.069877  0  3.164296  0  0  -0.063843  -0.075134  0  3.152402  0
N  N58  1  0.38780435  0.87492608  0.76038237  1  0  -0.684219  0  3.080101  0  0  -0.648843  0  3.321415  0  0  -0.669583  0  3.315199  0  0  -0.568493  -0.634484  0  3.325544  0
N  N59  1  0.61219688  0.87492635  0.23961778  1  0  -0.684406  0  3.079947  0  0  -0.648966  0  3.321358  0  0  -0.66971  0  3.315135  0  0  -0.568507  -0.634603  0  3.325491  0
N  N60  1  0.88780515  0.12507515  0.73961852  1  0  -0.68454  0  3.079895  0  0  -0.649029  0  3.321352  0  0  -0.669773  0  3.315128  0  0  -0.568555  -0.634666  0  3.325487  0
N  N61  1  0.11219417  0.12507467  0.26038290  1  0  -0.68423  0  3.080176  0  0  -0.648842  0  3.321471  0  0  -0.669584  0  3.315256  0  0  -0.568512  -0.63448  0  3.3256  0
O  O62  1  0.75344148  0.74458598  0.04679304  1  0  -0.609132  0  1.976958  0  0  -0.555915  0  2.201713  0  0  -0.580141  0  2.193877  0  0  -0.305512  -0.539028  0  2.20665  0
O  O63  1  0.24655536  0.74458322  0.95320719  1  0  -0.609096  0  1.976924  0  0  -0.55589  0  2.201646  0  0  -0.580122  0  2.193805  0  0  -0.305474  -0.539002  0  2.206583  0
O  O64  1  0.25344380  0.25541490  0.45320509  1  0  -0.609172  0  1.976853  0  0  -0.555974  0  2.201608  0  0  -0.580205  0  2.193768  0  0  -0.305541  -0.539089  0  2.206546  0
O  O65  1  0.74655533  0.25541578  0.54679308  1  0  -0.609167  0  1.976868  0  0  -0.555928  0  2.201624  0  0  -0.58016  0  2.193782  0  0  -0.305514  -0.539041  0  2.206561  0
O  O66  1  0.81388593  0.91121175  0.91082041  1  0  -0.662079  0  2.093911  0  0  -0.587266  0  2.36851  0  0  -0.615366  0  2.352492  0  0  -0.326784  -0.56759  0  2.378893  0
O  O67  1  0.18611832  0.91121026  0.08917972  1  0  -0.662132  0  2.09387  0  0  -0.587367  0  2.368474  0  0  -0.61547  0  2.352447  0  0  -0.326841  -0.567693  0  2.378869  0
O  O68  1  0.31388408  0.08878955  0.58918057  1  0  -0.662052  0  2.093985  0  0  -0.587262  0  2.368575  0  0  -0.615365  0  2.352554  0  0  -0.32676  -0.567582  0  2.378953  0
O  O69  1  0.68611684  0.08878832  0.41081929  1  0  -0.662068  0  2.093945  0  0  -0.587259  0  2.368542  0  0  -0.615362  0  2.352519  0  0  -0.326772  -0.567583  0  2.378929  0
