# generated using pymatgen
data_CuH10(C4O5)2
_symmetry_space_group_name_H-M   'P 1'
_cell_length_a   7.51300290
_cell_length_b   8.26536977
_cell_length_c   9.78271622
_cell_angle_alpha   90.00033378
_cell_angle_beta   89.99984952
_cell_angle_gamma   83.11413242
_symmetry_Int_Tables_number   1
_chemical_formula_structural   CuH10(C4O5)2
_chemical_formula_sum   'Cu2 H20 C16 O20'
_cell_volume   603.10281655
_cell_formula_units_Z   2
loop_
 _symmetry_equiv_pos_site_id
 _symmetry_equiv_pos_as_xyz
  1  'x, y, z'
loop_
 _atom_site_type_symbol
 _atom_site_label
 _atom_site_symmetry_multiplicity
 _atom_site_fract_x
 _atom_site_fract_y
 _atom_site_fract_z
 _atom_site_occupancy
 _atom_site_hle17_ddec_charge
 _atom_site_hle17_ddec_spin_density
 _atom_site_hle17_ddec_sum_bond_order
 _atom_site_hle17_magmom
 _atom_site_hse06_10hf_ddec_charge
 _atom_site_hse06_10hf_ddec_spin_density
 _atom_site_hse06_10hf_ddec_sum_bond_order
 _atom_site_hse06_10hf_magmom
 _atom_site_hse06_ddec_charge
 _atom_site_hse06_ddec_spin_density
 _atom_site_hse06_ddec_sum_bond_order
 _atom_site_hse06_magmom
 _atom_site_pbe_cm5_charge
 _atom_site_pbe_ddec_charge
 _atom_site_pbe_ddec_spin_density
 _atom_site_pbe_ddec_sum_bond_order
 _atom_site_pbe_magmom
Cu  Cu0  1  0.23816555  0.22472008  0.25687876  1  0.991713  -0.736607  1.65236  -0.539  0.990191  -0.830067  2.036285  -0.671  1.076566  -0.89684  1.978229  -0.757  0.729579  0.908693  -0.777912  2.117018  -0.611
Cu  Cu1  1  0.76183657  0.77527266  0.75687744  1  0.991692  0.736613  1.652326  0.539  0.990223  0.830067  2.036264  0.671  1.076535  0.896832  1.978228  0.757  0.729577  0.908684  0.777915  2.116966  0.611
H  H2  1  0.44107320  0.41145371  0.21763949  1  0.393216  0.000524  0.870513  0.001  0.371927  2.6e-05  0.937185  0.001  0.382568  0.000154  0.925936  0.001  0.311675  0.364552  -0.000132  0.944265  0.0
H  H3  1  0.55892661  0.58854566  0.71763851  1  0.393212  -0.000525  0.870535  -0.001  0.371924  -2.6e-05  0.937209  -0.001  0.382566  -0.000154  0.925952  -0.001  0.311675  0.364547  0.000132  0.944289  0.0
H  H4  1  0.92416811  0.32178920  0.89413569  1  0.398059  0.000125  0.872839  0.0  0.366759  1.5e-05  0.952354  0.0  0.379774  1e-05  0.938814  0.0  0.305526  0.357387  7e-06  0.96217  0.0
H  H5  1  0.07582341  0.67821446  0.39412404  1  0.398177  -0.000126  0.872644  0.0  0.366789  -1.6e-05  0.952282  0.0  0.379869  -1e-05  0.938659  0.0  0.305543  0.357413  -7e-06  0.962102  0.0
H  H6  1  0.97182207  0.36784062  0.38617253  1  0.401442  -1.4e-05  0.861319  0.001  0.375258  -0.000376  0.938255  0.0  0.387038  -0.000184  0.925485  0.0  0.312347  0.366894  -0.000568  0.946493  0.0
H  H7  1  0.02818056  0.63215524  0.88616830  1  0.40139  1.2e-05  0.861328  -0.001  0.375168  0.000376  0.938308  0.0  0.386942  0.000184  0.925553  0.0  0.312308  0.366802  0.000568  0.946544  0.0
H  H8  1  0.55057584  0.06127978  0.63617933  1  0.406702  9.2e-05  0.889585  0.0  0.375217  0.0  0.967998  0.0  0.389336  -5e-06  0.951849  0.0  0.301322  0.365339  -2.7e-05  0.977559  0.0
H  H9  1  0.44942679  0.93871423  0.13618686  1  0.406716  -9.2e-05  0.889604  0.0  0.375301  -0.0  0.967889  0.0  0.389419  5e-06  0.95173  0.0  0.301345  0.365424  2.7e-05  0.97745  0.0
H  H10  1  0.40503291  0.50293028  0.00717508  1  0.096356  -0.000357  0.944611  0.0  0.104277  -0.00047  1.002197  -0.001  0.106886  -0.000309  0.999887  0.0  0.123715  0.102173  -0.000651  1.00431  -0.001
H  H11  1  0.59495768  0.49708206  0.50716666  1  0.096342  0.000357  0.944579  0.0  0.104303  0.00047  1.002152  0.001  0.106913  0.000309  0.999842  0.0  0.123715  0.102196  0.000651  1.004276  0.001
H  H12  1  0.52314774  0.14541345  0.94042563  1  0.143517  2.5e-05  0.928736  0.0  0.154369  3.1e-05  0.986323  0.0  0.157885  2.3e-05  0.984854  0.0  0.10959  0.151827  1.1e-05  0.987544  0.0
H  H13  1  0.47684820  0.85459524  0.44043312  1  0.14357  -2.5e-05  0.928767  0.0  0.154448  -3.1e-05  0.986288  0.0  0.157967  -2.3e-05  0.984811  0.0  0.109616  0.151901  -1.1e-05  0.98752  0.0
H  H14  1  0.42366316  0.28057488  0.81367070  1  0.145421  -0.00042  0.932983  -0.001  0.15319  -0.000308  0.998416  -0.001  0.156729  -0.000158  0.996587  0.0  0.114109  0.150169  -0.000458  1.000575  -0.001
H  H15  1  0.57633194  0.71943786  0.31367053  1  0.145527  0.000426  0.932837  0.001  0.153262  0.000308  0.998299  0.001  0.156805  0.000158  0.996461  0.0  0.114125  0.15024  0.000458  1.000458  0.001
H  H16  1  0.06624216  0.32357421  0.59059311  1  0.086222  -3.3e-05  0.895865  0.0  0.095625  -0.000295  0.950897  0.0  0.09803  -0.000242  0.949319  0.0  0.125203  0.093746  -0.000249  0.952305  0.0
H  H17  1  0.93376365  0.67642506  0.09058981  1  0.086353  3.4e-05  0.895917  0.0  0.095674  0.000295  0.950973  0.0  0.098086  0.000242  0.949399  0.0  0.125242  0.093797  0.000249  0.952378  0.0
H  H18  1  0.00225261  0.97111817  0.52147556  1  0.140695  -6e-06  0.926287  0.0  0.152938  -6e-06  0.984105  0.0  0.156214  -3e-06  0.982376  0.0  0.111329  0.150629  -1.8e-05  0.985391  0.0
H  H19  1  0.99776643  0.02887807  0.02146968  1  0.140676  1.2e-05  0.926235  0.0  0.152955  6e-06  0.984061  0.0  0.156228  3e-06  0.982334  0.0  0.111304  0.150651  1.8e-05  0.985348  0.0
H  H20  1  0.04151896  0.04257288  0.68626541  1  0.142755  -0.000598  0.900847  -0.001  0.15488  -0.000463  0.959682  -0.001  0.157934  -0.000301  0.957582  0.0  0.119103  0.15289  -0.000608  0.960796  -0.001
H  H21  1  0.95847851  0.95743038  0.18625804  1  0.142755  0.000603  0.900897  0.001  0.154931  0.000463  0.959709  0.001  0.157988  0.0003  0.957601  0.0  0.119118  0.152936  0.000608  0.960832  0.001
C  C22  1  0.18433787  0.36832834  0.00496874  1  0.64089  0.004758  3.798832  0.007  0.592819  0.00018  4.110963  0.002  0.62919  0.000303  4.104268  0.002  0.222818  0.567931  1.1e-05  4.113038  0.002
C  C23  1  0.81565178  0.63167448  0.50496114  1  0.640753  -0.004756  3.798768  -0.007  0.592793  -0.000182  4.110749  -0.002  0.629161  -0.000304  4.104057  -0.002  0.222772  0.567897  -1.3e-05  4.112826  -0.002
C  C24  1  0.38576862  0.37392191  0.01859056  1  0.11527  0.000262  3.594877  0.001  0.093565  -0.001107  3.844606  0.0  0.096512  -0.000802  3.85325  0.0  -0.002894  0.091388  -0.001421  3.837899  0.0
C  C25  1  0.61422860  0.62608703  0.51858635  1  0.115547  -0.000257  3.594695  -0.001  0.093698  0.001106  3.844453  0.0  0.096645  0.0008  3.853095  0.0  -0.002864  0.091524  0.001421  3.837752  0.0
C  C26  1  0.49780970  0.27387821  0.91084835  1  -0.321956  -0.000701  3.612975  -0.001  -0.364817  -0.000596  3.852518  -0.001  -0.372356  -0.000269  3.85794  0.0  -0.163426  -0.359756  -0.000537  3.849901  0.0
C  C27  1  0.50219082  0.72612770  0.41085096  1  -0.322127  0.000688  3.613027  0.001  -0.364937  0.000597  3.852513  0.001  -0.372493  0.000271  3.857924  0.0  -0.163387  -0.359881  0.000537  3.849901  0.0
C  C28  1  0.66834563  0.34892988  0.88752565  1  0.7507  -0.00011  3.718612  0.0  0.706169  -0.00017  4.018644  0.0  0.74082  -0.000116  4.007885  0.0  0.243916  0.681966  -0.000179  4.025897  0.0
C  C29  1  0.33165407  0.65107221  0.38752812  1  0.75069  0.000102  3.718978  0.0  0.706227  0.00017  4.018853  0.0  0.740927  0.000117  4.008031  0.0  0.243922  0.68203  0.000179  4.026105  0.0
C  C30  1  0.28766305  0.15182364  0.52694872  1  0.630353  0.004342  3.815133  0.007  0.584692  -0.00015  4.125088  0.001  0.620549  2.7e-05  4.119064  0.001  0.221101  0.560359  -0.00049  4.126881  0.001
C  C31  1  0.71233993  0.84817119  0.02694952  1  0.630316  -0.004351  3.815318  -0.007  0.584757  0.000151  4.125082  -0.001  0.620628  -2.6e-05  4.119038  -0.001  0.221041  0.560422  0.000491  4.126876  -0.001
C  C32  1  0.08757890  0.21266888  0.52765450  1  0.129653  -0.000561  3.602996  0.001  0.104992  -0.001549  3.859286  0.0  0.108587  -0.001114  3.867006  0.0  0.00146  0.102283  -0.00178  3.852901  0.0
C  C33  1  0.91243058  0.78733026  0.02765030  1  0.129205  0.000564  3.603682  -0.001  0.104689  0.001548  3.859796  0.0  0.108251  0.001116  3.867551  0.0  0.001452  0.101983  0.00178  3.853404  0.0
C  C34  1  0.98439827  0.08067463  0.58596419  1  -0.330294  -0.000965  3.661755  -0.001  -0.377571  -0.000865  3.912004  -0.001  -0.384366  -0.00051  3.918268  0.0  -0.163328  -0.3724  -0.001139  3.907165  -0.001
C  C35  1  0.01560757  0.91932603  0.08596160  1  -0.330015  0.000949  3.661904  0.001  -0.377539  0.000865  3.912225  0.001  -0.384337  0.00051  3.918533  0.0  -0.163343  -0.372362  0.001139  3.90739  0.001
C  C36  1  0.78773530  0.13791191  0.60394527  1  0.729416  -0.000583  3.75127  -0.001  0.686572  -0.000247  4.050885  0.0  0.719862  -0.000151  4.041167  0.0  0.231874  0.663307  -0.000323  4.056766  0.0
C  C37  1  0.21226118  0.86208148  0.10395825  1  0.729143  0.000586  3.751741  0.001  0.68654  0.000246  4.051069  0.0  0.71982  0.000151  4.041356  0.0  0.231961  0.663279  0.000323  4.056946  0.0
O  O38  1  0.09951154  0.31567077  0.10626236  1  -0.575796  -0.087035  2.064813  -0.116  -0.557912  -0.051097  2.351043  -0.074  -0.599495  -0.038492  2.340244  -0.059  -0.325534  -0.525759  -0.058633  2.359407  -0.082
O  O39  1  0.90049027  0.68432211  0.60626360  1  -0.575769  0.08705  2.064679  0.116  -0.557942  0.051106  2.350875  0.074  -0.599517  0.038498  2.340071  0.059  -0.325554  -0.525781  0.058644  2.359219  0.082
O  O40  1  0.10425183  0.41846772  0.89604097  1  -0.593468  -0.019899  1.944289  -0.025  -0.548942  -0.008282  2.163318  -0.011  -0.576606  -0.004014  2.152981  -0.005  -0.301665  -0.527891  -0.014004  2.168832  -0.018
O  O41  1  0.89574369  0.58153555  0.39603467  1  -0.59353  0.019895  1.944323  0.025  -0.548969  0.008281  2.163281  0.011  -0.57666  0.004014  2.152939  0.005  -0.301665  -0.52792  0.014002  2.168798  0.018
O  O42  1  0.44733226  0.31766733  0.15279167  1  -0.525584  -0.053455  2.08391  -0.07  -0.486712  -0.038544  2.317972  -0.055  -0.514117  -0.028275  2.306544  -0.043  -0.384933  -0.464504  -0.045367  2.326443  -0.062
O  O43  1  0.55266851  0.68233341  0.65279331  1  -0.52566  0.053463  2.083791  0.07  -0.486801  0.038549  2.31792  0.055  -0.514193  0.028281  2.306482  0.043  -0.384962  -0.464587  0.045373  2.326382  0.062
O  O44  1  0.66454241  0.49530576  0.85820538  1  -0.627772  -0.001303  2.006252  -0.001  -0.597004  -0.000885  2.245807  0.0  -0.619909  -0.000776  2.232321  0.0  -0.30184  -0.578813  -0.000971  2.255012  0.0
O  O45  1  0.33545942  0.50468768  0.35821540  1  -0.627858  0.00131  2.006239  0.001  -0.597126  0.000884  2.24578  0.0  -0.620047  0.000775  2.232273  0.0  -0.301893  -0.578935  0.000971  2.254989  0.0
O  O46  1  0.82049883  0.25229803  0.90318459  1  -0.534774  -0.000194  2.080394  0.0  -0.48089  -0.00011  2.29017  0.0  -0.504588  -5.9e-05  2.276459  0.0  -0.318407  -0.464373  -0.00019  2.299773  0.0
O  O47  1  0.17949533  0.74770263  0.40317134  1  -0.534808  0.000189  2.080507  0.0  -0.480921  0.000112  2.290385  0.0  -0.504689  6e-05  2.27656  0.0  -0.318398  -0.46439  0.00019  2.299965  0.0
O  O48  1  0.37164109  0.13989372  0.41250409  1  -0.56427  -0.087811  2.049586  -0.116  -0.547044  -0.050376  2.331488  -0.072  -0.587573  -0.037934  2.320863  -0.057  -0.322452  -0.516084  -0.056839  2.340379  -0.079
O  O49  1  0.62836103  0.86010474  0.91250207  1  -0.564263  0.087814  2.049355  0.116  -0.54708  0.05037  2.331225  0.072  -0.587597  0.037931  2.32058  0.057  -0.322483  -0.516112  0.056833  2.340096  0.079
O  O50  1  0.35980066  0.11150287  0.63994748  1  -0.545434  -0.017868  1.996262  -0.023  -0.502339  -0.007766  2.21505  -0.011  -0.530264  -0.003687  2.206343  -0.005  -0.288011  -0.482322  -0.011989  2.220278  -0.016
O  O51  1  0.64020588  0.88849190  0.13994525  1  -0.545372  0.017861  1.996468  0.023  -0.502363  0.007765  2.215186  0.011  -0.530282  0.003686  2.206462  0.005  -0.287978  -0.482346  0.011985  2.220418  0.016
O  O52  1  0.02811881  0.25212616  0.38901769  1  -0.546175  -0.054346  2.145941  -0.072  -0.508464  -0.041329  2.401403  -0.06  -0.535994  -0.031749  2.386017  -0.049  -0.383926  -0.485403  -0.04801  2.412233  -0.066
O  O53  1  0.97188910  0.74787039  0.88901685  1  -0.546061  0.054344  2.146021  0.072  -0.508333  0.041326  2.401494  0.06  -0.535835  0.031747  2.386112  0.049  -0.383915  -0.485267  0.048007  2.412301  0.066
O  O54  1  0.72318582  0.28110372  0.59387193  1  -0.560155  0.002039  1.939143  0.003  -0.517515  0.000808  2.153425  0.001  -0.538176  0.000327  2.145268  0.001  -0.289946  -0.503149  0.001603  2.159306  0.002
O  O55  1  0.27680391  0.71889545  0.09388995  1  -0.559916  -0.002041  1.939423  -0.003  -0.517361  -0.000808  2.15358  -0.001  -0.538014  -0.000327  2.145424  -0.001  -0.289923  -0.50302  -0.001604  2.159478  -0.002
O  O56  1  0.69000752  0.01755424  0.63382483  1  -0.616648  0.003496  2.15524  0.006  -0.574187  0.003684  2.410436  0.006  -0.600971  0.002544  2.389514  0.005  -0.33827  -0.551018  0.004671  2.42336  0.007
O  O57  1  0.30998973  0.98244150  0.13382692  1  -0.616741  -0.003499  2.155367  -0.006  -0.574354  -0.003684  2.410363  -0.006  -0.601153  -0.002544  2.389466  -0.005  -0.338385  -0.551187  -0.004672  2.423294  -0.007
