# generated using pymatgen
data_CoH20C22(N2O)4
_symmetry_space_group_name_H-M   'P 1'
_cell_length_a   8.45539460
_cell_length_b   8.70014256
_cell_length_c   18.04428165
_cell_angle_alpha   97.08399263
_cell_angle_beta   93.47935458
_cell_angle_gamma   100.35397860
_symmetry_Int_Tables_number   1
_chemical_formula_structural   CoH20C22(N2O)4
_chemical_formula_sum   'Co2 H40 C44 N16 O8'
_cell_volume   1291.13555232
_cell_formula_units_Z   2
loop_
 _symmetry_equiv_pos_site_id
 _symmetry_equiv_pos_as_xyz
  1  'x, y, z'
loop_
 _atom_site_type_symbol
 _atom_site_label
 _atom_site_symmetry_multiplicity
 _atom_site_fract_x
 _atom_site_fract_y
 _atom_site_fract_z
 _atom_site_occupancy
 _atom_site_pbe_bader_charge
 _atom_site_pbe_bader_spin_density
 _atom_site_pbe_cm5_charge
 _atom_site_pbe_ddec_charge
 _atom_site_pbe_ddec_spin_density
 _atom_site_pbe_ddec_sum_bond_order
 _atom_site_pbe_magmom
Co  Co0  1  0.49999856  0.49999907  0.00000068  1  1.263145  2.587778  0.671973  0.712673  2.793618  2.686445  2.572
Co  Co1  1  0.00000287  0.00000203  0.49999909  1  1.274542  2.601334  0.687233  0.727997  2.810565  2.706385  2.587
H  H2  1  0.10001092  0.30955095  0.23271860  1  0.133194  5.8e-05  0.105373  0.108601  -1.5e-05  1.036901  0.0
H  H3  1  0.89999172  0.69045008  0.76728086  1  0.133527  5.8e-05  0.105377  0.108588  -1.5e-05  1.036894  0.0
H  H4  1  0.59114845  0.22641377  0.10242749  1  0.113945  0.000405  0.113908  0.108806  -7e-06  1.037996  0.0
H  H5  1  0.40884805  0.77358018  0.89757029  1  0.114013  0.000405  0.113887  0.1088  -7e-06  1.038009  0.0
H  H6  1  0.66357690  0.88983335  0.99289511  1  0.112106  0.000295  0.122356  0.116064  -5.1e-05  1.001309  0.0
H  H7  1  0.33642271  0.11016420  0.00710740  1  0.112059  0.000295  0.122341  0.11601  -5.1e-05  1.001247  0.0
H  H8  1  0.69522882  0.71882983  0.50599979  1  0.117037  0.000401  0.118299  0.112949  -2.2e-05  1.022672  0.0
H  H9  1  0.30476364  0.28117363  0.49400174  1  0.117062  0.000401  0.118294  0.112935  -2.2e-05  1.022668  0.0
H  H10  1  0.81484136  0.98634908  0.34002700  1  0.547591  0.000341  0.312361  0.252917  -5e-05  1.022849  0.0
H  H11  1  0.18515751  0.01365080  0.65997340  1  0.547581  0.000341  0.312378  0.252921  -5e-05  1.022851  0.0
H  H12  1  0.03447934  0.11098332  0.10250215  1  0.057675  0.000349  0.099956  0.107907  0.000131  0.972248  0.0
H  H13  1  0.96552048  0.88901538  0.89749877  1  0.057703  0.000349  0.099979  0.107949  0.000131  0.972183  0.0
H  H14  1  0.60864344  0.36751713  0.21043298  1  0.080748  0.000124  0.100362  0.095453  -1e-06  1.025929  0.0
H  H15  1  0.39135805  0.63247801  0.78956668  1  0.080743  0.000124  0.100377  0.095473  -1e-06  1.025984  0.0
H  H16  1  0.81392531  0.43218599  0.93308245  1  0.57588  0.000277  0.304015  0.258688  -0.000138  1.041315  0.0
H  H17  1  0.18608066  0.56781981  0.06692069  1  0.575461  0.000277  0.304039  0.25869  -0.000138  1.041317  0.0
H  H18  1  0.73638425  0.57169582  0.13208702  1  0.512342  0.000449  0.346201  0.278813  -7.1e-05  0.919808  0.0
H  H19  1  0.26361865  0.42830049  0.86791219  1  0.512359  0.000449  0.34622  0.278855  -7.1e-05  0.919788  0.0
H  H20  1  0.63968278  0.20888163  0.31392535  1  0.073882  9e-06  0.098919  0.102326  1.6e-05  1.01879  0.0
H  H21  1  0.36031352  0.79111118  0.68607459  1  0.073862  9e-06  0.098916  0.10234  1.6e-05  1.018764  0.0
H  H22  1  0.92273550  0.82645454  0.19841742  1  0.125155  0.000717  0.129104  0.128199  0.000274  0.98456  0.0
H  H23  1  0.07726716  0.17354059  0.80158116  1  0.125155  0.000717  0.129113  0.12822  0.000274  0.984502  0.0
H  H24  1  0.02206150  0.27205418  0.98290926  1  0.117567  0.000687  0.116232  0.105896  0.000239  1.06927  0.0
H  H25  1  0.97794634  0.72795517  0.01709469  1  0.11757  0.000687  0.116265  0.105929  0.000239  1.069167  0.0
H  H26  1  0.90246353  0.14862311  0.17081790  1  0.06565  0.000312  0.098675  0.109479  0.000126  0.993815  0.0
H  H27  1  0.09753488  0.85137443  0.82918291  1  0.065495  0.000312  0.098646  0.109458  0.000126  0.993831  0.0
H  H28  1  0.39737993  0.10085894  0.37811633  1  0.102522  0.000272  0.10402  0.104953  0.000133  1.018031  0.0
H  H29  1  0.60261703  0.89914329  0.62188359  1  0.102519  0.000272  0.103997  0.10493  0.000133  1.01807  0.0
H  H30  1  0.54734709  0.80088077  0.28196056  1  0.115622  0.000927  0.126709  0.125864  0.000358  0.987014  0.0
H  H31  1  0.45265414  0.19911909  0.71803879  1  0.115636  0.000927  0.1267  0.125841  0.000358  0.987036  0.0
H  H32  1  0.30688059  0.55691111  0.55507798  1  0.111691  0.000792  0.119347  0.113105  0.000313  1.038853  0.0
H  H33  1  0.69311945  0.44308876  0.44492190  1  0.111666  0.000792  0.11935  0.1131  0.000313  1.038861  0.0
H  H34  1  0.18227560  0.81428326  0.37576869  1  0.109193  0.000402  0.120634  0.118084  -1.8e-05  0.999031  0.0
H  H35  1  0.81772115  0.18571189  0.62423028  1  0.109175  0.000402  0.120661  0.118166  -1.8e-05  0.998956  0.0
H  H36  1  0.34808337  0.55043912  0.33737019  1  0.05414  0.000232  0.09737  0.108004  7e-05  1.001069  0.0
H  H37  1  0.65191143  0.44956427  0.66262753  1  0.054189  0.000232  0.097372  0.108006  7e-05  1.001118  0.0
H  H38  1  0.43407595  0.47889866  0.41378677  1  0.037149  0.000277  0.092198  0.093044  0.000111  1.010711  0.0
H  H39  1  0.56592169  0.52110115  0.58620916  1  0.037089  0.000277  0.092259  0.093133  0.000111  1.010717  0.0
H  H40  1  0.11910759  0.75087342  0.59317063  1  0.533424  0.000179  0.317431  0.255931  -0.000216  1.010248  0.0
H  H41  1  0.88089222  0.24912526  0.40682807  1  0.533188  0.000179  0.317449  0.255984  -0.000216  1.010271  0.0
C  C42  1  0.21737371  0.28506043  0.24998830  1  -0.108092  -0.000484  -0.077034  -0.110108  -0.001107  3.954381  0.0
C  C43  1  0.78263010  0.71494653  0.75001319  1  -0.107803  -0.000484  -0.077086  -0.110129  -0.001107  3.954548  0.0
C  C44  1  0.23308521  0.19727299  0.30896938  1  -0.010533  0.005966  -0.024559  -0.048518  0.00302  3.992864  0.005
C  C45  1  0.76691340  0.80273162  0.69103184  1  -0.011019  0.005968  -0.024501  -0.048436  0.00302  3.992871  0.005
C  C46  1  0.32971345  0.43363155  0.14799382  1  1.588513  0.0035  0.205687  0.573246  0.001966  4.209317  0.003
C  C47  1  0.67028897  0.56636832  0.85200667  1  1.588531  0.003499  0.205751  0.573388  0.001966  4.209267  0.003
C  C48  1  0.08822055  0.13877840  0.34890854  1  1.546345  -0.003244  0.207511  0.566311  -0.004732  4.196537  -0.001
C  C49  1  0.91177757  0.86122975  0.65109230  1  1.546285  -0.003245  0.207441  0.566217  -0.004731  4.196898  -0.001
C  C50  1  0.35159560  0.34480093  0.21350287  1  0.009357  0.005705  -0.022094  -0.045018  0.002993  3.980453  0.004
C  C51  1  0.64840965  0.65520129  0.78649729  1  0.008766  0.005706  -0.022128  -0.045188  0.002993  3.980637  0.004
C  C52  1  0.68570587  0.25316983  0.06549227  1  0.370389  4.6e-05  -0.000151  -0.088359  -0.000783  3.99163  0.001
C  C53  1  0.31429536  0.74683004  0.93450764  1  0.370345  4.6e-05  -0.00015  -0.08835  -0.000784  3.991594  0.001
C  C54  1  0.83456826  0.20258272  0.06225474  1  0.01794  0.004563  -0.035155  0.018398  0.002304  4.034606  0.003
C  C55  1  0.16543249  0.79742070  0.93774646  1  0.017821  0.004564  -0.035192  0.018302  0.002304  4.034594  0.003
C  C56  1  0.38583702  0.16897765  0.33191362  1  -0.113111  -0.001478  -0.084608  -0.099625  -0.001792  3.987072  -0.001
C  C57  1  0.61415735  0.83101749  0.66808418  1  -0.112785  -0.001478  -0.084585  -0.099596  -0.001792  3.987078  -0.001
C  C58  1  0.52059866  0.22985925  0.29637252  1  -0.021646  0.000488  -0.096489  -0.095107  0.000143  4.025123  0.0
C  C59  1  0.47939949  0.77014302  0.70362966  1  -0.021788  0.000488  -0.096533  -0.095245  0.000143  4.025094  0.0
C  C60  1  0.50371330  0.31816217  0.23784336  1  -0.079544  -0.002046  -0.083645  -0.087664  -0.002428  3.976712  -0.001
C  C61  1  0.49628749  0.68183537  0.76215863  1  -0.079484  -0.002046  -0.083598  -0.087484  -0.002428  3.976625  -0.001
C  C62  1  0.71589450  0.84651759  0.04073040  1  0.418453  0.00109  0.017656  -0.061501  0.000204  3.964915  0.002
C  C63  1  0.28410462  0.15347755  0.95926863  1  0.418423  0.001091  0.01775  -0.061275  0.000204  3.964804  0.002
C  C64  1  0.68265414  0.75591440  0.45107870  1  0.43032  0.001483  0.012081  -0.062701  0.00058  3.97415  0.002
C  C65  1  0.31734494  0.24409258  0.54892322  1  0.430241  0.001483  0.012102  -0.062652  0.00058  3.974181  0.002
C  C66  1  0.82533167  0.93061094  0.10023334  1  0.006491  0.003362  -0.027541  0.019647  0.001706  4.028216  0.002
C  C67  1  0.17467052  0.06938775  0.89976709  1  0.006447  0.003362  -0.027584  0.019534  0.001706  4.02831  0.002
C  C68  1  0.28998943  0.65185102  0.44399019  1  0.02527  0.00238  -0.03351  0.017141  0.001241  4.035849  0.002
C  C69  1  0.71000637  0.34814532  0.55600937  1  0.02536  0.00238  -0.03348  0.017238  0.001241  4.035749  0.002
C  C70  1  0.90605665  0.27529550  0.00468762  1  0.390345  0.003102  0.013889  -0.062389  0.001833  3.927711  0.002
C  C71  1  0.09394906  0.72470910  0.99531379  1  0.390608  0.003101  0.013913  -0.062394  0.001833  3.927575  0.002
C  C72  1  0.90563726  0.10146235  0.11154104  1  0.017562  0.001621  -0.147078  -0.19309  0.000865  4.000239  0.001
C  C73  1  0.09436329  0.89853398  0.88845921  1  0.01771  0.001621  -0.147077  -0.193066  0.000865  4.000249  0.001
C  C74  1  0.55829919  0.70517340  0.39292665  1  0.019842  0.002485  -0.034034  0.010537  0.001291  4.043045  0.002
C  C75  1  0.44169896  0.29482885  0.60707386  1  0.019884  0.002485  -0.03404  0.010579  0.001291  4.043017  0.002
C  C76  1  0.19463970  0.76184874  0.42679553  1  0.421199  0.00265  0.015362  -0.050832  0.001517  3.960681  0.003
C  C77  1  0.80535728  0.23814758  0.57320351  1  0.421238  0.00265  0.015364  -0.050944  0.001517  3.960557  0.003
C  C78  1  0.84851543  0.81759657  0.14634518  1  0.34307  0.003407  0.017343  -0.079054  0.002016  3.92313  0.002
C  C79  1  0.15148842  0.18239856  0.85365342  1  0.343069  0.003407  0.017362  -0.079034  0.002016  3.92298  0.002
C  C80  1  0.40569900  0.58668123  0.39454007  1  0.028541  0.001537  -0.152419  -0.19804  0.000801  4.011467  0.001
C  C81  1  0.59430031  0.41332098  0.60545825  1  0.028474  0.001537  -0.152459  -0.19815  0.000801  4.011469  0.001
C  C82  1  0.60477736  0.79730889  0.33704249  1  0.335507  0.00481  0.012366  -0.081173  0.002789  3.931851  0.003
C  C83  1  0.39522506  0.20268504  0.66295546  1  0.335305  0.004812  0.012342  -0.081238  0.00279  3.931957  0.003
C  C84  1  0.26210422  0.63108787  0.51780131  1  0.353674  0.005954  0.012024  -0.079961  0.003379  3.92421  0.004
C  C85  1  0.73789204  0.36891082  0.48219785  1  0.353662  0.005955  0.012001  -0.079912  0.003379  3.924142  0.004
N  N86  1  0.80458707  0.36226102  0.97779258  1  -0.872987  0.002135  -0.276645  -0.081352  -0.000312  3.705905  0.001
N  N87  1  0.19541533  0.63774478  0.02220992  1  -0.872774  0.002135  -0.276714  -0.081324  -0.000312  3.705792  0.001
N  N88  1  0.67597185  0.69334322  0.04931129  1  -0.687682  0.050811  -0.248223  -0.173814  0.027724  3.531328  0.045
N  N89  1  0.32402869  0.30665311  0.95068840  1  -0.687613  0.05081  -0.248341  -0.173963  0.027723  3.531541  0.045
N  N90  1  0.11580435  0.80618907  0.48564024  1  -0.715622  0.055087  -0.252211  -0.181333  0.030188  3.539607  0.047
N  N91  1  0.88419546  0.19380961  0.51435902  1  -0.715628  0.055088  -0.252232  -0.181332  0.030189  3.539641  0.047
N  N92  1  0.75853427  0.67854192  0.11341405  1  -0.827072  -3.2e-05  -0.279376  -0.072322  -0.001968  3.753386  -0.001
N  N93  1  0.24146769  0.32145559  0.88658631  1  -0.827008  -3.2e-05  -0.279338  -0.072346  -0.001969  3.753289  -0.001
N  N94  1  0.66925072  0.35100897  0.01430226  1  -0.715499  0.054351  -0.257087  -0.192858  0.029743  3.531928  0.046
N  N95  1  0.33074955  0.64899206  0.98569713  1  -0.7155  0.054352  -0.257049  -0.192855  0.029744  3.531875  0.046
N  N96  1  0.79604592  0.86982140  0.43230127  1  -0.714867  0.055112  -0.248258  -0.17319  0.030286  3.526589  0.047
N  N97  1  0.20395340  0.13018083  0.56769817  1  -0.71487  0.055114  -0.248301  -0.173297  0.030287  3.526684  0.047
N  N98  1  0.15754420  0.72482494  0.54040496  1  -0.829411  0.001355  -0.280864  -0.07505  -0.001164  3.721609  0.0
N  N99  1  0.84245702  0.27517492  0.45959440  1  -0.829176  0.001355  -0.280899  -0.075188  -0.001164  3.721677  0.0
N  N100  1  0.74714387  0.89365781  0.36271985  1  -0.849327  0.001715  -0.280141  -0.082781  -0.000688  3.727016  0.0
N  N101  1  0.25285334  0.10633970  0.63727982  1  -0.84913  0.001715  -0.280119  -0.082684  -0.000688  3.726889  0.0
O  O102  1  0.45381023  0.46580409  0.11117550  1  -1.187664  0.061543  -0.327629  -0.585386  0.031502  2.398244  0.052
O  O103  1  0.54619289  0.53419933  0.88882577  1  -1.18764  0.06154  -0.32766  -0.585424  0.031501  2.39828  0.052
O  O104  1  0.19253510  0.46722078  0.13404163  1  -1.178122  0.006718  -0.323504  -0.538356  0.003018  2.172584  0.006
O  O105  1  0.80747012  0.53278736  0.86595996  1  -1.178152  0.006717  -0.323551  -0.538437  0.003017  2.172489  0.006
O  O106  1  0.94845589  0.15524864  0.32297812  1  -1.201402  -0.001773  -0.334666  -0.579353  -0.002598  2.161949  -0.001
O  O107  1  0.05154129  0.84475476  0.67702132  1  -1.201026  -0.001773  -0.334669  -0.579332  -0.002598  2.162223  -0.001
O  O108  1  0.11472920  0.07700004  0.40768015  1  -1.175603  0.064019  -0.310045  -0.551731  0.033194  2.424278  0.057
O  O109  1  0.88526373  0.92299982  0.59231787  1  -1.175658  0.064015  -0.309986  -0.551674  0.033193  2.42423  0.057
