# generated using pymatgen
data_ZnH19C17NO10F3
_symmetry_space_group_name_H-M   'P 1'
_cell_length_a   9.95756673
_cell_length_b   11.02506951
_cell_length_c   10.93716363
_cell_angle_alpha   72.75738529
_cell_angle_beta   85.80735629
_cell_angle_gamma   92.51240306
_symmetry_Int_Tables_number   1
_chemical_formula_structural   ZnH19C17NO10F3
_chemical_formula_sum   'Zn2 H38 C34 N2 O20 F6'
_cell_volume   1140.97416130
_cell_formula_units_Z   2
loop_
 _symmetry_equiv_pos_site_id
 _symmetry_equiv_pos_as_xyz
  1  'x, y, z'
loop_
 _atom_site_type_symbol
 _atom_site_label
 _atom_site_symmetry_multiplicity
 _atom_site_fract_x
 _atom_site_fract_y
 _atom_site_fract_z
 _atom_site_occupancy
 _atom_site_pbe_bader_charge
 _atom_site_pbe_bader_spin_density
 _atom_site_pbe_cm5_charge
 _atom_site_pbe_ddec_charge
 _atom_site_pbe_ddec_spin_density
 _atom_site_pbe_ddec_sum_bond_order
 _atom_site_pbe_magmom
Zn  Zn0  1  0.64804196  0.52481666  0.47095333  1  1.307071  0  0.691542  0.869793  0  2.339678  0
Zn  Zn1  1  0.36544186  0.49125807  0.50675955  1  1.288121  0  0.677096  0.86402  0  2.265519  0
H  H2  1  0.54697795  0.32727435  0.14698734  1  0.072926  0  0.102899  0.121027  0  1.033874  0
H  H3  1  0.37476328  0.34487746  0.17992058  1  0.104753  0  0.105586  0.130401  0  1.019098  0
H  H4  1  0.74771022  0.33559992  0.10076700  1  0.058563  0  0.09417  0.096397  0  1.022919  0
H  H5  1  0.70479665  0.37013437  0.25028554  1  0.080161  0  0.089037  0.100746  0  1.056399  0
H  H6  1  0.87278416  0.39955604  0.17768505  1  0.036226  0  0.094897  0.095642  0  1.009884  0
H  H7  1  0.07794279  0.48904531  0.03057190  1  0.047837  0  0.094828  0.094566  0  1.019506  0
H  H8  1  0.10717574  0.64760681  0.03554697  1  0.079168  0  0.095848  0.091008  0  1.040437  0
H  H9  1  0.06193255  0.52327260  0.18129981  1  0.015525  0  0.082685  0.073539  0  1.031818  0
H  H10  1  0.82393269  0.74541306  0.08080935  1  0.075867  0  0.089611  0.091875  0  1.022017  0
H  H11  1  0.75240247  0.87418683  0.96862844  1  0.02598  0  0.096436  0.098306  0  0.983182  0
H  H12  1  0.83507572  0.75676571  0.91275195  1  0.013827  0  0.082349  0.07294  0  1.032764  0
H  H13  1  0.20007461  0.80353049  0.08877688  1  0.024794  0  0.087498  0.079668  0  1.017645  0
H  H14  1  0.25970825  0.81459199  0.92624805  1  0.040744  0  0.09123  0.083502  0  1.052807  0
H  H15  1  0.34758604  0.90302108  0.01186438  1  0.057257  0  0.100202  0.104971  0  0.981248  0
H  H16  1  0.89488587  0.55524864  0.90243506  1  0.068091  0  0.095385  0.090012  0  1.050732  0
H  H17  1  0.86827777  0.54689143  0.74463909  1  0.025837  0  0.083743  0.077915  0  1.035865  0
H  H18  1  0.90997878  0.40797524  0.86652673  1  0.052929  0  0.099566  0.106191  0  0.99566  0
H  H19  1  0.29463113  0.69660951  0.66018354  1  0.111617  0  0.093776  0.107588  0  1.058043  0
H  H20  1  0.20380099  0.78003541  0.75384167  1  0.0277  0  0.082027  0.072168  0  1.025591  0
H  H21  1  0.12457552  0.64449226  0.72294215  1  0.03291  0  0.097254  0.106731  0  0.987439  0
H  H22  1  0.55852783  0.12354024  0.90114247  1  0.057249  0  0.100969  0.103215  0  0.985168  0
H  H23  1  0.55158652  0.27361238  0.78067983  1  0.07831  0  0.095706  0.108873  0  1.032986  0
H  H24  1  0.39922078  0.18608017  0.86354662  1  0.049156  0  0.091189  0.084326  0  1.044137  0
H  H25  1  0.29618621  0.15698020  0.08409825  1  0.041801  0  0.091959  0.081695  0  1.037763  0
H  H26  1  0.14390299  0.21392297  0.01601138  1  0.03866  0  0.100976  0.103867  0  0.987115  0
H  H27  1  0.20200498  0.26635084  0.14395961  1  0.068008  0  0.096857  0.098904  0  1.004371  0
H  H28  1  0.13553234  0.87320500  0.33580540  1  0.088239  0  0.097291  0.102384  0  1.015958  0
H  H29  1  0.25342384  0.00781134  0.26932068  1  0.067933  0  0.097172  0.096589  0  1.02013  0
H  H30  1  0.12428980  0.01044496  0.39175042  1  0.081202  0  0.093142  0.09584  0  1.009093  0
H  H31  1  0.93376888  0.83996269  0.51973610  1  0.066739  0  0.097685  0.102847  0  1.000763  0
H  H32  1  0.77331973  0.77994130  0.60820663  1  0.093166  0  0.093731  0.111585  0  1.041756  0
H  H33  1  0.84575949  0.93399698  0.60362226  1  0.010283  0  0.085346  0.07807  0  1.0181  0
H  H34  1  0.25586136  0.30148315  0.75773555  1  0.163513  0  0.108838  0.130221  0  1.059042  0
H  H35  1  0.22196300  0.22164208  0.64030841  1  0.141459  0  0.102102  0.122833  0  1.043524  0
H  H36  1  0.15502756  0.15241136  0.80504152  1  0.046107  0  0.106254  0.110581  0  0.975831  0
H  H37  1  0.84396547  0.17138806  0.80666013  1  0.076837  0  0.110021  0.116586  0  0.98264  0
H  H38  1  0.88897739  0.15743650  0.64884421  1  0.075237  0  0.10449  0.106851  0  1.008691  0
H  H39  1  0.71547337  0.14416215  0.70874949  1  0.103022  0  0.110284  0.117745  0  0.995165  0
C  C40  1  0.52665570  0.75212553  0.45571268  1  1.631589  0  0.223673  0.629711  0  4.114088  0
C  C41  1  0.43999740  0.37109408  0.97873852  1  0.968684  0  0.168056  0.421168  0  3.755293  0
C  C42  1  0.40155287  0.95124394  0.45444111  1  0.620662  0  0.080177  0.121817  0  4.064444  0
C  C43  1  0.64679381  0.96249591  0.44853430  1  0.605017  0  0.080466  0.13411  0  4.053357  0
C  C44  1  0.40497520  0.07419922  0.46719216  1  0.446405  0  0.092723  0.168167  0  4.02844  0
C  C45  1  0.64320969  0.08650471  0.45674116  1  0.478643  0  0.092263  0.164067  0  4.047629  0
C  C46  1  0.52378030  0.14520802  0.47123325  1  0.027915  0  -0.031305  -0.222188  0  4.015996  0
C  C47  1  0.52420812  0.89060327  0.45079331  1  0.018949  0  -0.012097  -0.173005  0  3.859546  0
C  C48  1  0.03703749  0.39304551  0.60110324  1  1.209803  0  0.231081  0.273598  0  4.061281  0
C  C49  1  0.89687330  0.40421225  0.58066103  1  1.228533  0  0.233687  0.275044  0  4.049341  0
C  C50  1  0.95430234  0.58431955  0.41149248  1  1.183869  0  0.224272  0.255164  0  4.165279  0
C  C51  1  0.08990730  0.56705933  0.42506712  1  1.151601  0  0.221613  0.252199  0  4.155069  0
C  C52  1  0.49240620  0.53045826  0.25059137  1  1.599179  0  0.225824  0.623205  0  4.056999  0
C  C53  1  0.52369066  0.27263457  0.49497015  1  1.63706  0  0.21536  0.619511  0  4.17793  0
C  C54  1  0.48061303  0.49419814  0.73274484  1  1.602603  0  0.222054  0.62169  0  4.063994  0
C  C55  1  0.63134902  0.57713026  0.03107825  1  1.042168  0  0.164819  0.26919  0  3.8056  0
C  C56  1  0.37044142  0.59749113  0.04643492  1  1.034484  0  0.168045  0.275538  0  3.830179  0
C  C57  1  0.62978822  0.54619064  0.89519048  1  1.043355  0  0.177954  0.340996  0  3.772174  0
C  C58  1  0.38434571  0.60751102  0.89656229  1  1.069454  0  0.18994  0.344874  0  3.756276  0
C  C59  1  0.46327583  0.38464152  0.11256621  1  -0.061705  0  -0.176303  -0.324274  0  3.863241  0
C  C60  1  0.49190871  0.52349626  0.11096600  1  0.038968  0  -0.01052  -0.123316  0  3.684152  0
C  C61  1  0.48392510  0.50380290  0.87171409  1  -0.023131  0  -0.016058  -0.290162  0  3.60168  0
C  C62  1  0.76631853  0.40071284  0.15772387  1  0.383854  0  -0.154659  -0.168648  0  3.912138  0
C  C63  1  0.11926436  0.54771670  0.08629759  1  0.411727  0  -0.149133  -0.151571  0  3.944427  0
C  C64  1  0.77158457  0.77284937  0.99264088  1  0.43618  0  -0.148393  -0.150717  0  3.959911  0
C  C65  1  0.29031258  0.81272062  0.02119802  1  0.419615  0  -0.145234  -0.154844  0  3.940347  0
C  C66  1  0.85516930  0.49473237  0.84788190  1  0.409731  0  -0.152669  -0.168956  0  3.939181  0
C  C67  1  0.22018153  0.68583063  0.74181898  1  0.394686  0  -0.152525  -0.160207  0  3.921173  0
C  C68  1  0.50508572  0.21119679  0.87321191  1  0.360559  0  -0.155395  -0.17102  0  3.925828  0
C  C69  1  0.23406771  0.23948737  0.05749926  1  0.388828  0  -0.145741  -0.170415  0  3.953242  0
C  C70  1  0.19329339  0.95019705  0.35722547  1  0.322977  0  -0.140472  -0.17316  0  3.897836  0
C  C71  1  0.83381324  0.86534345  0.54889865  1  0.389044  0  -0.146066  -0.171106  0  3.903479  0
C  C72  1  0.18288307  0.24130246  0.72798820  1  0.266341  0  -0.143376  -0.18941  0  3.809048  0
C  C73  1  0.81488234  0.19060961  0.70844425  1  0.354041  0  -0.12753  -0.176293  0  3.861299  0
N  N74  1  0.85914313  0.50264464  0.48780876  1  -1.242629  0  -0.303316  -0.317216  0  3.514513  0
N  N75  1  0.13218144  0.47286468  0.51972588  1  -1.227916  0  -0.291872  -0.3241  0  3.404221  0
O  O76  1  0.64293154  0.70884447  0.45729589  1  -1.136186  0  -0.307248  -0.517295  0  2.398311  0
O  O77  1  0.41568423  0.68774606  0.46295536  1  -1.161107  0  -0.311419  -0.558508  0  2.370501  0
O  O78  1  0.59656328  0.57809540  0.28247292  1  -1.153456  0  -0.30105  -0.520515  0  2.363542  0
O  O79  1  0.38702020  0.48107646  0.32639292  1  -1.150362  0  -0.320023  -0.552363  0  2.381947  0
O  O80  1  0.63012499  0.34582021  0.45442315  1  -1.152071  0  -0.306151  -0.543057  0  2.431975  0
O  O81  1  0.42033424  0.29796613  0.55471995  1  -1.169479  0  -0.309568  -0.555645  0  2.377098  0
O  O82  1  0.59107866  0.49764518  0.66677543  1  -1.165373  0  -0.304097  -0.55062  0  2.420659  0
O  O83  1  0.36440066  0.48236729  0.69366755  1  -1.141042  0  -0.304118  -0.521079  0  2.404843  0
O  O84  1  0.74935734  0.53027109  0.08849012  1  -1.052345  0  -0.221648  -0.230976  0  2.589501  0
O  O85  1  0.25499457  0.51846964  0.11001179  1  -1.052929  0  -0.218928  -0.230121  0  2.607403  0
O  O86  1  0.64086400  0.70862470  0.01180331  1  -1.050498  0  -0.216716  -0.221095  0  2.606268  0
O  O87  1  0.37879323  0.71514117  0.07095060  1  -1.040163  0  -0.212263  -0.211837  0  2.578805  0
O  O88  1  0.71642393  0.45275949  0.88704996  1  -1.056836  0  -0.213233  -0.221326  0  2.599928  0
O  O89  1  0.25522300  0.59829537  0.85905614  1  -1.067736  0  -0.213365  -0.229222  0  2.633614  0
O  O90  1  0.51796230  0.26651562  0.97487551  1  -1.041154  0  -0.228642  -0.25628  0  2.510767  0
O  O91  1  0.30375273  0.34369943  0.96036744  1  -1.039622  0  -0.215748  -0.238226  0  2.549531  0
O  O92  1  0.27996509  0.88916059  0.45387215  1  -1.061554  0  -0.193284  -0.151133  0  2.6012  0
O  O93  1  0.77294615  0.92200960  0.43172919  1  -1.052383  0  -0.211013  -0.17722  0  2.572924  0
O  O94  1  0.05790175  0.30372941  0.70840554  1  -1.083326  0  -0.160406  -0.14468  0  2.660849  0
O  O95  1  0.79814925  0.32530558  0.65405575  1  -1.069399  0  -0.150576  -0.121359  0  2.645496  0
F  F96  1  0.91497260  0.68277073  0.31936375  1  -0.614076  0  -0.053001  -0.086439  0  1.395536  0
F  F97  1  0.18295640  0.64815908  0.34369447  1  -0.609341  0  -0.041142  -0.067141  0  1.467717  0
F  F98  1  0.67514029  0.65937277  0.79812270  1  -0.622671  0  -0.117274  -0.193649  0  1.400621  0
F  F99  1  0.44473853  0.72820878  0.82735356  1  -0.613832  0  -0.117058  -0.184077  0  1.357746  0
F  F100  1  0.28365110  0.12483476  0.47653839  1  -0.630227  0  -0.085072  -0.113527  0  1.412465  0
F  F101  1  0.76491486  0.14864858  0.45381342  1  -0.628795  0  -0.087977  -0.114068  0  1.429178  0
