# generated using pymatgen
data_Zn4H22C47O19
_symmetry_space_group_name_H-M   'P 1'
_cell_length_a   15.09596342
_cell_length_b   15.15355807
_cell_length_c   17.91289182
_cell_angle_alpha   81.85109481
_cell_angle_beta   80.79074203
_cell_angle_gamma   89.46816195
_symmetry_Int_Tables_number   1
_chemical_formula_structural   Zn4H22C47O19
_chemical_formula_sum   'Zn4 H22 C47 O19'
_cell_volume   4003.67380408
_cell_formula_units_Z   1
loop_
 _symmetry_equiv_pos_site_id
 _symmetry_equiv_pos_as_xyz
  1  'x, y, z'
loop_
 _atom_site_type_symbol
 _atom_site_label
 _atom_site_symmetry_multiplicity
 _atom_site_fract_x
 _atom_site_fract_y
 _atom_site_fract_z
 _atom_site_occupancy
 _atom_site_pbe_bader_charge
 _atom_site_pbe_bader_spin_density
 _atom_site_pbe_cm5_charge
 _atom_site_pbe_ddec_charge
 _atom_site_pbe_ddec_spin_density
 _atom_site_pbe_ddec_sum_bond_order
 _atom_site_pbe_magmom
Zn  Zn0  1  0.44104426  0.44348232  0.42815688  1  1.314756  0  0.670389  0.963949  0  2.368096  0
Zn  Zn1  1  0.55518856  0.40932448  0.56546043  1  1.316873  0  0.677302  0.972838  0  2.369157  0
Zn  Zn2  1  0.40888405  0.56126235  0.56810865  1  1.319141  0  0.675894  0.975248  0  2.346629  0
Zn  Zn3  1  0.58783046  0.58647126  0.44223652  1  1.311205  0  0.67402  0.96499  0  2.366986  0
H  H4  1  0.28980621  0.31013489  0.93891207  1  0.071396  0  0.112952  0.110537  0  0.9801  0
H  H5  1  0.86765184  0.56959393  0.41033847  1  0.081004  0  0.107877  0.117609  0  0.997429  0
H  H6  1  0.80913852  0.41054534  0.63137704  1  0.089327  0  0.106285  0.11327  0  0.998712  0
H  H7  1  0.02638660  0.60798350  0.35212445  1  0.081523  0  0.106539  0.122525  0  1.000583  0
H  H8  1  0.97193470  0.40866440  0.64278357  1  0.040475  0  0.103306  0.103353  0  0.99371  0
H  H9  1  0.12922710  0.45492559  0.58789176  1  0.110733  0  0.108764  0.113677  0  0.986121  0
H  H10  1  0.50940219  0.18979971  0.35971626  1  0.082526  0  0.107077  0.111208  0  0.986148  0
H  H11  1  0.52209293  0.02841660  0.34605225  1  0.065729  0  0.1031  0.10931  0  0.996844  0
H  H12  1  0.48476475  0.80349479  0.64870175  1  0.078658  0  0.108298  0.12678  0  1.004008  0
H  H13  1  0.52688439  0.87240965  0.40423829  1  0.105899  0  0.109859  0.120656  0  0.990749  0
H  H14  1  0.32435662  0.33295432  0.79691589  1  0.080809  0  0.115944  0.121894  0  0.969473  0
H  H15  1  0.32003171  0.34226150  0.06238824  1  0.056171  0  0.111531  0.110923  0  0.981286  0
H  H16  1  0.77214615  0.61371634  0.06938646  1  0.184696  0  0.112016  0.12754  0  1.029688  0
H  H17  1  0.47783181  0.48057028  0.19567066  1  0.119079  0  0.10962  0.118477  0  1.015777  0
H  H18  1  0.64178035  0.51508921  0.86781809  1  0.049091  0  0.107066  0.100302  0  1.031485  0
H  H19  1  0.40966786  0.41519789  0.13880048  1  0.046646  0  0.111427  0.116775  0  0.998516  0
H  H20  1  0.77412511  0.56348997  0.86490882  1  0.02752  0  0.09586  0.026788  0  0.965697  0
H  H21  1  0.17623765  0.63909055  0.30998317  1  0.611381  0  0.342499  0.369091  0  0.866901  0
H  H22  1  0.47872480  0.08488359  0.65736411  1  0.65317  0  0.319037  0.363593  0  0.953853  0
H  H23  1  0.48157977  0.91855703  0.71718116  1  0.611779  0  0.35402  0.387645  0  0.846676  0
H  H24  1  0.53966168  0.60991100  0.83157511  1  0.064628  0  0.09895  0.034611  0  0.980562  0
H  H25  1  0.74855088  0.57665128  0.27731820  1  0.066726  0  0.102017  0.045821  0  0.981487  0
C  C26  1  0.73250867  0.49396862  0.51458297  1  1.547375  0  0.228946  0.608732  0  4.157938  0
C  C27  1  0.68219683  0.58066890  0.17476302  1  -0.05475  0  -0.00795  0.015295  0  3.949975  0
C  C28  1  0.54216484  0.50841045  0.16601890  1  -0.020926  0  -0.075168  -0.129295  0  3.944089  0
C  C29  1  0.56601024  0.51146915  0.08636411  1  -0.012491  0  0.003945  0.033609  0  3.94836  0
C  C30  1  0.65107103  0.55054116  0.05059148  1  0.028471  0  0.007658  0.067463  0  3.940112  0
C  C31  1  0.50656595  0.47566067  0.04166489  1  0.034996  0  0.011216  0.059225  0  3.930281  0
C  C32  1  0.52967867  0.48664873  0.96069311  1  -0.016043  0  -0.004762  0.023701  0  3.973462  0
C  C33  1  0.61749871  0.51908891  0.92803907  1  -0.07546  0  -0.070316  -0.147467  0  3.985997  0
C  C34  1  0.67748844  0.54930194  0.96972261  1  -0.020223  0  -0.018883  -0.028703  0  3.995567  0
C  C35  1  0.42774239  0.42553258  0.07688202  1  -0.005681  0  -0.086943  -0.132404  0  3.997733  0
C  C36  1  0.37691581  0.38509703  0.03427300  1  -0.026374  0  -0.075551  -0.108059  0  3.992337  0
C  C37  1  0.26620099  0.52090064  0.48216153  1  1.599238  0  0.234052  0.64147  0  4.139232  0
C  C38  1  0.39587752  0.39831084  0.95294506  1  -0.043312  0  -0.006258  0.066886  0  4.034408  0
C  C39  1  0.46842595  0.45614088  0.91514478  1  -0.013804  0  0.010568  0.019179  0  3.910009  0
C  C40  1  0.34425060  0.35515087  0.90917577  1  -0.016104  0  -0.068813  -0.097529  0  3.9645  0
C  C41  1  0.36256556  0.36854140  0.83031194  1  0.022939  0  -0.078459  -0.105768  0  3.980457  0
C  C42  1  0.47808731  0.47883837  0.83396085  1  0.00157  0  -0.017554  -0.064534  0  3.940851  0
C  C43  1  0.82992606  0.49128684  0.52005049  1  -0.030873  0  -0.022142  -0.038303  0  4.002717  0
C  C44  1  0.16849664  0.52663907  0.47591478  1  -0.018135  0  -0.015514  -0.109348  0  3.938004  0
C  C45  1  0.04905700  0.57318261  0.40330590  1  -0.033761  0  -0.111412  -0.297843  0  4.002996  0
C  C46  1  0.13939253  0.57001366  0.40836866  1  0.49205  0  0.080257  0.289852  0  4.102086  0
C  C47  1  0.10621854  0.48723271  0.53611563  1  -0.043759  0  -0.077438  -0.134002  0  3.959769  0
C  C48  1  0.49856195  0.26567897  0.48619103  1  1.5599  0  0.227565  0.636432  0  4.143994  0
C  C49  1  0.01349206  0.48673454  0.53180600  1  -0.045834  0  -0.007276  0.069888  0  4.016729  0
C  C50  1  0.98436855  0.53179942  0.46409288  1  0.060301  0  -0.005353  0.104405  0  4.02785  0
C  C51  1  0.89141950  0.53411018  0.46053214  1  -0.057966  0  -0.077783  -0.137244  0  3.915939  0
C  C52  1  0.85909989  0.44447832  0.58603897  1  -0.006667  0  -0.092752  -0.108475  0  4.01013  0
C  C53  1  0.94888830  0.44335303  0.59185434  1  -0.01036  0  -0.089443  -0.131127  0  4.010805  0
C  C54  1  0.49994969  0.16822820  0.48209641  1  0.027546  0  -0.032372  -0.160577  0  3.95794  0
C  C55  1  0.50614620  0.82931896  0.52496929  1  0.011419  0  -0.016386  0.006009  0  4.025001  0
C  C56  1  0.49204389  0.94401797  0.60660578  1  0.334151  0  0.08032  0.280247  0  4.07284  0
C  C57  1  0.49294241  0.85494553  0.59874831  1  0.063434  0  -0.11277  -0.270383  0  4.013738  0
C  C58  1  0.51643307  0.89302354  0.46083219  1  -0.091159  0  -0.086242  -0.166568  0  3.938258  0
C  C59  1  0.50519913  0.73269233  0.51729917  1  1.575397  0  0.231973  0.612149  0  4.148156  0
C  C60  1  0.51047947  0.98489972  0.46776191  1  0.033633  0  -0.002168  0.120418  0  4.033653  0
C  C61  1  0.49905039  0.01250317  0.54232068  1  0.029103  0  -0.021402  -0.149981  0  3.935258  0
C  C62  1  0.49459823  0.10586690  0.54831357  1  0.523578  0  0.100049  0.287996  0  4.007141  0
C  C63  1  0.50770141  0.13920324  0.40970147  1  -0.027098  0  -0.08724  -0.075364  0  4.043597  0
C  C64  1  0.51434804  0.05025215  0.40216798  1  -0.009982  0  -0.105792  -0.17542  0  4.033533  0
C  C65  1  0.44135852  0.44914199  0.70647475  1  1.673157  0  0.22902  0.610165  0  4.208033  0
C  C66  1  0.56379676  0.53671515  0.29392166  1  1.555313  0  0.228661  0.603247  0  4.17325  0
C  C67  1  0.59787369  0.54155724  0.21019525  1  -0.006929  0  -0.010392  -0.062786  0  3.958636  0
C  C68  1  0.42800454  0.43205201  0.79247519  1  -0.077255  0  0.015501  0.003897  0  3.888345  0
C  C69  1  0.70696625  0.58494830  0.09611662  1  -0.023575  0  -0.068176  -0.132417  0  3.877766  0
C  C70  1  0.76761846  0.57411245  0.92619357  1  0.952952  0  0.093162  0.261481  0  4.002205  0
C  C71  1  0.52784933  0.56009485  0.79385166  1  0.891016  0  0.089209  0.259181  0  4.00512  0
C  C72  1  0.75003503  0.61143483  0.21822116  1  0.973516  0  0.099332  0.279027  0  3.951195  0
O  O73  1  0.49719571  0.50070248  0.50080764  1  -1.233685  0  -0.572506  -1.03343  0  2.533082  0
O  O74  1  0.45167807  0.31329400  0.44248970  1  -1.167594  0  -0.31885  -0.554344  0  2.304929  0
O  O75  1  0.55631380  0.70825689  0.46015037  1  -1.16718  0  -0.314354  -0.542624  0  2.317349  0
O  O76  1  0.68103469  0.44029092  0.56374682  1  -1.162708  0  -0.312817  -0.53881  0  2.333268  0
O  O77  1  0.29054703  0.55654815  0.53606539  1  -1.164797  0  -0.311657  -0.546004  0  2.302209  0
O  O78  1  0.70804329  0.54950647  0.46115918  1  -1.185762  0  -0.320448  -0.56085  0  2.343753  0
O  O79  1  0.31474790  0.47871050  0.43453461  1  -1.162102  0  -0.311083  -0.539524  0  2.313595  0
O  O80  1  0.54595151  0.29393196  0.53087041  1  -1.166567  0  -0.314064  -0.543827  0  2.350832  0
O  O81  1  0.45229048  0.68298926  0.56859759  1  -1.165685  0  -0.31188  -0.540021  0  2.321881  0
O  O82  1  0.49864067  0.39948639  0.67367422  1  -1.164205  0  -0.306749  -0.533452  0  2.322822  0
O  O83  1  0.59877650  0.59033304  0.33011469  1  -1.170464  0  -0.305085  -0.53702  0  2.346823  0
O  O84  1  0.39039295  0.50580313  0.67614375  1  -1.160511  0  -0.310515  -0.536579  0  2.31219  0
O  O85  1  0.50161424  0.47955509  0.32198461  1  -1.17378  0  -0.314452  -0.54454  0  2.341181  0
O  O86  1  0.83161609  0.60272960  0.95028596  1  -1.072822  0  -0.263012  -0.344403  0  2.117025  0
O  O87  1  0.20465277  0.60940852  0.35168704  1  -1.120703  0  -0.353943  -0.444858  0  2.25454  0
O  O88  1  0.48144778  0.13622255  0.61674512  1  -1.151887  0  -0.352035  -0.435499  0  2.291441  0
O  O89  1  0.48368127  0.97067458  0.67833689  1  -1.128697  0  -0.346352  -0.466671  0  2.308497  0
O  O90  1  0.55021075  0.57729346  0.72436705  1  -1.049437  0  -0.256538  -0.342463  0  2.136945  0
O  O91  1  0.80668962  0.66916422  0.19034026  1  -1.074887  0  -0.274035  -0.360849  0  2.078925  0
