# generated using pymatgen
data_Na2H6C6S2O9
_symmetry_space_group_name_H-M   'P 1'
_cell_length_a   6.78522327
_cell_length_b   9.62767602
_cell_length_c   16.12553004
_cell_angle_alpha   90.00041051
_cell_angle_beta   89.99985194
_cell_angle_gamma   93.30345455
_symmetry_Int_Tables_number   1
_chemical_formula_structural   Na2H6C6S2O9
_chemical_formula_sum   'Na8 H24 C24 S8 O36'
_cell_volume   1051.66485576
_cell_formula_units_Z   4
loop_
 _symmetry_equiv_pos_site_id
 _symmetry_equiv_pos_as_xyz
  1  'x, y, z'
loop_
 _atom_site_type_symbol
 _atom_site_label
 _atom_site_symmetry_multiplicity
 _atom_site_fract_x
 _atom_site_fract_y
 _atom_site_fract_z
 _atom_site_occupancy
 _atom_site_hle17_bader_spin_density
 _atom_site_hle17_ddec_charge
 _atom_site_hle17_ddec_spin_density
 _atom_site_hle17_ddec_sum_bond_order
 _atom_site_hle17_magmom
 _atom_site_hse06_10hf_bader_spin_density
 _atom_site_hse06_10hf_ddec_charge
 _atom_site_hse06_10hf_ddec_spin_density
 _atom_site_hse06_10hf_ddec_sum_bond_order
 _atom_site_hse06_10hf_magmom
 _atom_site_hse06_bader_spin_density
 _atom_site_hse06_ddec_charge
 _atom_site_hse06_ddec_spin_density
 _atom_site_hse06_ddec_sum_bond_order
 _atom_site_hse06_magmom
 _atom_site_pbe_bader_spin_density
 _atom_site_pbe_cm5_charge
 _atom_site_pbe_ddec_charge
 _atom_site_pbe_ddec_spin_density
 _atom_site_pbe_ddec_sum_bond_order
 _atom_site_pbe_magmom
Na  Na0  1  0.47732378  0.44515551  0.84112716  1  0  0.916162  0  0.373851  0  0  0.884224  0  0.512771  0  0  0.89202  0  0.493468  0  0  0.702228  0.878333  0  0.526733  0
Na  Na1  1  0.02267648  0.05484170  0.34112750  1  0  0.916172  0  0.373842  0  0  0.884243  0  0.512756  0  0  0.892039  0  0.49345  0  0  0.702245  0.87836  0  0.52671  0
Na  Na2  1  0.52267694  0.55484548  0.15887259  1  0  0.916172  0  0.373833  0  0  0.884245  0  0.512749  0  0  0.892034  0  0.493444  0  0  0.702233  0.878358  0  0.526709  0
Na  Na3  1  0.97732277  0.94515928  0.65887225  1  0  0.916165  0  0.373843  0  0  0.884232  0  0.512775  0  0  0.89203  0  0.493466  0  0  0.702252  0.878356  0  0.526729  0
Na  Na4  1  0.46485397  0.92902803  0.64074844  1  0  0.90354  0  0.412536  0  0  0.867701  0  0.564275  0  0  0.876063  0  0.543913  0  0  0.732359  0.862211  0  0.57776  0
Na  Na5  1  0.03514212  0.57097584  0.14075193  1  0  0.903525  0  0.412561  0  0  0.867664  0  0.564362  0  0  0.876021  0  0.543998  0  0  0.732342  0.862168  0  0.57784  0
Na  Na6  1  0.53514676  0.07097296  0.35925193  1  0  0.903561  0  0.412532  0  0  0.867721  0  0.564272  0  0  0.876082  0  0.54391  0  0  0.732385  0.862234  0  0.57776  0
Na  Na7  1  0.96485845  0.42902306  0.85924781  1  0  0.90353  0  0.412551  0  0  0.867667  0  0.564355  0  0  0.876025  0  0.543995  0  0  0.732348  0.862171  0  0.577833  0
H  H8  1  0.14302197  0.82613540  0.50037347  1  0  0.400283  0  0.862903  0  0  0.37486  0  0.935984  0  0  0.385906  0  0.922885  0  0  0.319615  0.367  0  0.945098  0
H  H9  1  0.35697903  0.67386373  0.00037458  1  0  0.400412  0  0.862805  0  0  0.374984  0  0.935902  0  0  0.386032  0  0.922798  0  0  0.319656  0.367123  0  0.945013  0
H  H10  1  0.85698155  0.17386352  0.49962628  1  0  0.400342  0  0.862774  0  0  0.3749  0  0.935887  0  0  0.385946  0  0.92279  0  0  0.319615  0.367038  0  0.944997  0
H  H11  1  0.64301851  0.32613413  0.99962641  1  0  0.400359  0  0.862867  0  0  0.374947  0  0.935935  0  0  0.385994  0  0.922833  0  0  0.319651  0.367086  0  0.945038  0
H  H12  1  0.37932588  0.74501424  0.40326318  1  0  0.39606  0  0.871783  0  0  0.369638  0  0.946167  0  0  0.379596  0  0.934573  0  0  0.314137  0.362611  0  0.954258  0
H  H13  1  0.12067258  0.75498336  0.90326303  1  0  0.396078  0  0.871735  0  0  0.369708  0  0.946073  0  0  0.379626  0  0.934518  0  0  0.314145  0.362681  0  0.95417  0
H  H14  1  0.62067306  0.25498258  0.59673781  1  0  0.396122  0  0.871689  0  0  0.369748  0  0.946033  0  0  0.379667  0  0.934475  0  0  0.314149  0.362719  0  0.954129  0
H  H15  1  0.87932660  0.24501658  0.09673733  1  0  0.39612  0  0.871689  0  0  0.369742  0  0.94604  0  0  0.379654  0  0.93449  0  0  0.31415  0.362715  0  0.954129  0
H  H16  1  0.74491134  0.44468315  0.70938003  1  0  0.427424  0  0.86656  0  0  0.398587  0  0.928766  0  0  0.407629  0  0.915314  0  0  0.299719  0.392169  0  0.938324  0
H  H17  1  0.75509239  0.05532046  0.20938135  1  0  0.427465  0  0.866501  0  0  0.398564  0  0.928797  0  0  0.4076  0  0.915356  0  0  0.299685  0.392151  0  0.938347  0
H  H18  1  0.25508791  0.55531783  0.29061972  1  0  0.427481  0  0.866481  0  0  0.398629  0  0.92869  0  0  0.407663  0  0.915249  0  0  0.299748  0.39221  0  0.938249  0
H  H19  1  0.24490694  0.94468156  0.79061839  1  0  0.427419  0  0.866611  0  0  0.398549  0  0.928843  0  0  0.407593  0  0.915385  0  0  0.299673  0.392134  0  0.938396  0
H  H20  1  0.81971124  0.59437562  0.73988969  1  0  0.431859  0  0.863026  0  0  0.40791  0  0.9152  0  0  0.417009  0  0.901718  0  0  0.299167  0.401379  0  0.924916  0
H  H21  1  0.68028921  0.90562594  0.23988951  1  0  0.431898  0  0.862986  0  0  0.407931  0  0.915188  0  0  0.417031  0  0.901705  0  0  0.299157  0.401402  0  0.924906  0
H  H22  1  0.18028778  0.40562225  0.26011006  1  0  0.431852  0  0.863034  0  0  0.407891  0  0.915229  0  0  0.416992  0  0.901743  0  0  0.29915  0.401362  0  0.924946  0
H  H23  1  0.31971004  0.09437505  0.76010962  1  0  0.43187  0  0.863016  0  0  0.407913  0  0.915204  0  0  0.417011  0  0.901722  0  0  0.29917  0.401384  0  0.924918  0
H  H24  1  0.28815379  0.39502209  0.39878076  1  0  0.132468  0  0.944765  0  0  0.142252  0  1.005934  0  0  0.146253  0  1.002899  0  0  0.120576  0.139318  0  1.008271  0
H  H25  1  0.21184012  0.10497370  0.89878049  1  0  0.132509  0  0.944805  0  0  0.142298  0  1.005957  0  0  0.146298  0  1.002925  0  0  0.120576  0.139362  0  1.008296  0
H  H26  1  0.71184825  0.60497683  0.60121898  1  0  0.132482  0  0.944792  0  0  0.142257  0  1.005969  0  0  0.146268  0  1.002922  0  0  0.120569  0.13932  0  1.008314  0
H  H27  1  0.78815742  0.89502416  0.10121926  1  0  0.132502  0  0.944803  0  0  0.142283  0  1.00596  0  0  0.146284  0  1.002927  0  0  0.120569  0.139345  0  1.0083  0
H  H28  1  0.21505975  0.35835436  0.66423246  1  0  0.134361  0  0.923176  0  0  0.14471  0  0.980268  0  0  0.148975  0  0.976739  0  0  0.126943  0.141553  0  0.982956  0
H  H29  1  0.28494383  0.14165327  0.16423165  1  0  0.134349  0  0.923142  0  0  0.144671  0  0.980284  0  0  0.14893  0  0.976752  0  0  0.126944  0.141516  0  0.982967  0
H  H30  1  0.78493772  0.64164245  0.33576728  1  0  0.134361  0  0.923205  0  0  0.144718  0  0.980293  0  0  0.148983  0  0.976762  0  0  0.126954  0.141562  0  0.98298  0
H  H31  1  0.71505992  0.85834877  0.83576872  1  0  0.134319  0  0.923219  0  0  0.144645  0  0.98034  0  0  0.148908  0  0.97681  0  0  0.126934  0.141489  0  0.983035  0
C  C32  1  0.23117690  0.65008608  0.54259553  1  0  0.223071  0  3.783842  0  0  0.203962  0  4.048272  0  0  0.21393  0  4.064262  0  0  0.081835  0.197251  0  4.038027  0
C  C33  1  0.26880805  0.84991869  0.04259625  1  0  0.223212  0  3.784002  0  0  0.204022  0  4.048485  0  0  0.213988  0  4.064479  0  0  0.081888  0.197316  0  4.038231  0
C  C34  1  0.76881637  0.34991384  0.45740360  1  0  0.223154  0  3.783819  0  0  0.203933  0  4.048301  0  0  0.213901  0  4.064291  0  0  0.081759  0.19723  0  4.038043  0
C  C35  1  0.73118375  0.15008123  0.95740473  1  0  0.223297  0  3.783783  0  0  0.204055  0  4.048346  0  0  0.214019  0  4.064342  0  0  0.081851  0.197356  0  4.038077  0
C  C36  1  0.26065515  0.58729685  0.46477220  1  0  0.21419  0  3.801761  0  0  0.2056  0  4.067505  0  0  0.20918  0  4.087099  0  0  0.073048  0.202459  0  4.054539  0
C  C37  1  0.23935486  0.91270256  0.96477260  1  0  0.214257  0  3.801847  0  0  0.205682  0  4.067611  0  0  0.209275  0  4.087195  0  0  0.073186  0.202555  0  4.054629  0
C  C38  1  0.73935597  0.41270522  0.53522817  1  0  0.214085  0  3.801864  0  0  0.205525  0  4.067635  0  0  0.209116  0  4.087219  0  0  0.073123  0.202389  0  4.054659  0
C  C39  1  0.76064703  0.08729427  0.03522900  1  0  0.214061  0  3.801831  0  0  0.205487  0  4.067607  0  0  0.209067  0  4.087198  0  0  0.073095  0.20236  0  4.054619  0
C  C40  1  0.26486508  0.44287609  0.45886759  1  0  -0.145447  0  3.722961  0  0  -0.185993  0  3.984391  0  0  -0.185635  0  4.004289  0  0  -0.089051  -0.185531  0  3.970884  0
C  C41  1  0.23511549  0.05712347  0.95886832  1  0  -0.145446  0  3.722984  0  0  -0.18597  0  3.984384  0  0  -0.185612  0  4.00428  0  0  -0.089059  -0.185521  0  3.970881  0
C  C42  1  0.73512680  0.55712486  0.54113216  1  0  -0.145325  0  3.722957  0  0  -0.185871  0  3.984352  0  0  -0.185516  0  4.004242  0  0  -0.089027  -0.185413  0  3.970855  0
C  C43  1  0.76488501  0.94287440  0.04113081  1  0  -0.145418  0  3.723085  0  0  -0.185902  0  3.984489  0  0  -0.185545  0  4.004392  0  0  -0.089008  -0.185448  0  3.970981  0
C  C44  1  0.24525412  0.36169352  0.53021267  1  0  -0.134652  0  3.798174  0  0  -0.109409  0  4.055933  0  0  -0.117541  0  4.077913  0  0  -0.028628  -0.104772  0  4.041279  0
C  C45  1  0.25474822  0.13830629  0.03021002  1  0  -0.134636  0  3.79807  0  0  -0.109453  0  4.0559  0  0  -0.117582  0  4.077877  0  0  -0.028641  -0.104803  0  4.041228  0
C  C46  1  0.75474800  0.63830643  0.46978707  1  0  -0.134684  0  3.798327  0  0  -0.109416  0  4.05606  0  0  -0.117554  0  4.078053  0  0  -0.028595  -0.10478  0  4.04141  0
C  C47  1  0.74525507  0.86168950  0.96978973  1  0  -0.134664  0  3.798027  0  0  -0.109553  0  4.05595  0  0  -0.117683  0  4.077925  0  0  -0.028711  -0.104906  0  4.041288  0
C  C48  1  0.22733253  0.42178598  0.60838389  1  0  -0.04263  0  3.727298  0  0  -0.090636  0  3.991105  0  0  -0.085342  0  4.006357  0  0  -0.079538  -0.093862  0  3.980571  0
C  C49  1  0.27266212  0.07821576  0.10838591  1  0  -0.042534  0  3.727126  0  0  -0.090547  0  3.990946  0  0  -0.085245  0  4.006187  0  0  -0.07949  -0.093768  0  3.98041  0
C  C50  1  0.77266517  0.57821396  0.39161586  1  0  -0.042529  0  3.727445  0  0  -0.09063  0  3.991239  0  0  -0.085333  0  4.006489  0  0  -0.07954  -0.093856  0  3.980709  0
C  C51  1  0.72733853  0.92178419  0.89161445  1  0  -0.042452  0  3.727167  0  0  -0.090437  0  3.990991  0  0  -0.085142  0  4.006238  0  0  -0.079452  -0.093668  0  3.980475  0
C  C52  1  0.22228183  0.56581975  0.61405967  1  0  -0.216888  0  3.722742  0  0  -0.192115  0  3.975308  0  0  -0.201822  0  3.995672  0  0  -0.023135  -0.185941  0  3.961792  0
C  C53  1  0.27772611  0.93418282  0.11405641  1  0  -0.217071  0  3.72321  0  0  -0.192184  0  3.975669  0  0  -0.20189  0  3.996029  0  0  -0.02316  -0.18603  0  3.962171  0
C  C54  1  0.77771897  0.43418228  0.38594069  1  0  -0.217113  0  3.722898  0  0  -0.19214  0  3.975283  0  0  -0.201846  0  3.995645  0  0  -0.023147  -0.185977  0  3.961777  0
C  C55  1  0.72227756  0.06581818  0.88594148  1  0  -0.217127  0  3.723068  0  0  -0.192221  0  3.975531  0  0  -0.201922  0  3.995888  0  0  -0.023171  -0.186061  0  3.962034  0
S  S56  1  0.24906236  0.17854025  0.52329964  1  0  1.348832  0  5.606307  0  0  1.256279  0  6.12102  0  0  1.302382  0  6.096899  0  0  0.527056  1.225325  0  6.135286  0
S  S57  1  0.25092860  0.32146464  0.02330088  1  0  1.348937  0  5.606068  0  0  1.25643  0  6.120764  0  0  1.302534  0  6.096638  0  0  0.527131  1.225467  0  6.135041  0
S  S58  1  0.75093642  0.82145449  0.47670011  1  0  1.349092  0  5.606444  0  0  1.256551  0  6.121123  0  0  1.302659  0  6.096992  0  0  0.527183  1.225604  0  6.135384  0
S  S59  1  0.74906879  0.67853113  0.97669887  1  0  1.348773  0  5.606197  0  0  1.256274  0  6.120915  0  0  1.302381  0  6.096793  0  0  0.527033  1.225313  0  6.135187  0
S  S60  1  0.21243221  0.64429854  0.71388726  1  0  1.361826  0  5.654473  0  0  1.269007  0  6.167298  0  0  1.31651  0  6.142345  0  0  0.517858  1.236263  0  6.183682  0
S  S61  1  0.28757925  0.85571978  0.21388427  1  0  1.362171  0  5.65468  0  0  1.269335  0  6.167491  0  0  1.316836  0  6.142528  0  0  0.517835  1.236609  0  6.183861  0
S  S62  1  0.78756689  0.35570037  0.28611248  1  0  1.361925  0  5.654278  0  0  1.269039  0  6.167127  0  0  1.316542  0  6.142176  0  0  0.517897  1.236303  0  6.183497  0
S  S63  1  0.71242155  0.14428225  0.78611300  1  0  1.362006  0  5.654725  0  0  1.269173  0  6.167555  0  0  1.316672  0  6.142603  0  0  0.517772  1.236431  0  6.183949  0
O  O64  1  0.21664220  0.79103846  0.54927097  1  0  -0.570324  0  2.167353  0  0  -0.532061  0  2.408292  0  0  -0.546235  0  2.393568  0  0  -0.382662  -0.522238  0  2.417216  0
O  O65  1  0.28336631  0.70896647  0.04927231  1  0  -0.570527  0  2.16721  0  0  -0.53224  0  2.408163  0  0  -0.546416  0  2.393433  0  0  -0.382747  -0.522419  0  2.417078  0
O  O66  1  0.78335822  0.20895837  0.45072815  1  0  -0.570355  0  2.167264  0  0  -0.532069  0  2.408255  0  0  -0.546245  0  2.393531  0  0  -0.382618  -0.522248  0  2.417169  0
O  O67  1  0.71663883  0.29103453  0.95072930  1  0  -0.570484  0  2.167181  0  0  -0.532188  0  2.408146  0  0  -0.546366  0  2.393422  0  0  -0.382736  -0.522371  0  2.417052  0
O  O68  1  0.28047654  0.66559292  0.39412228  1  0  -0.5203  0  2.150997  0  0  -0.463808  0  2.362732  0  0  -0.480879  0  2.354337  0  0  -0.345438  -0.451742  0  2.368594  0
O  O69  1  0.21951761  0.83440560  0.89412361  1  0  -0.520387  0  2.151086  0  0  -0.463931  0  2.362737  0  0  -0.480985  0  2.354446  0  0  -0.345515  -0.451878  0  2.368603  0
O  O70  1  0.71951976  0.33440805  0.60587685  1  0  -0.520368  0  2.151061  0  0  -0.46393  0  2.362727  0  0  -0.480982  0  2.354433  0  0  -0.345502  -0.451872  0  2.368592  0
O  O71  1  0.78048001  0.16559330  0.10587862  1  0  -0.520377  0  2.150997  0  0  -0.463902  0  2.362632  0  0  -0.480929  0  2.354329  0  0  -0.345483  -0.451849  0  2.368488  0
O  O72  1  0.06092318  0.12143764  0.55911735  1  0  -0.709868  0  1.972058  0  0  -0.662698  0  2.226351  0  0  -0.682271  0  2.210449  0  0  -0.375386  -0.648777  0  2.235838  0
O  O73  1  0.43907607  0.37856251  0.05911553  1  0  -0.709972  0  1.97212  0  0  -0.662836  0  2.226406  0  0  -0.682412  0  2.210506  0  0  -0.375438  -0.648916  0  2.235893  0
O  O74  1  0.93907165  0.87856333  0.44088487  1  0  -0.709979  0  1.972039  0  0  -0.662843  0  2.226353  0  0  -0.682418  0  2.21045  0  0  -0.375443  -0.648921  0  2.235836  0
O  O75  1  0.56092171  0.62143847  0.94088359  1  0  -0.709878  0  1.972227  0  0  -0.662686  0  2.22643  0  0  -0.682257  0  2.210522  0  0  -0.375325  -0.648767  0  2.235923  0
O  O76  1  0.41962715  0.13841634  0.57301937  1  0  -0.71814  0  1.989786  0  0  -0.670533  0  2.24916  0  0  -0.689661  0  2.23215  0  0  -0.387144  -0.657625  0  2.259027  0
O  O77  1  0.08036658  0.36159018  0.07302097  1  0  -0.718069  0  1.989881  0  0  -0.670472  0  2.249243  0  0  -0.6896  0  2.232235  0  0  -0.387128  -0.657569  0  2.259113  0
O  O78  1  0.58037652  0.86158466  0.42698161  1  0  -0.718125  0  1.989804  0  0  -0.6705  0  2.249129  0  0  -0.689643  0  2.232129  0  0  -0.387107  -0.657595  0  2.258993  0
O  O79  1  0.91963414  0.63841081  0.92697816  1  0  -0.718059  0  1.98984  0  0  -0.67047  0  2.249211  0  0  -0.689599  0  2.232201  0  0  -0.387131  -0.657563  0  2.259075  0
O  O80  1  0.26815275  0.14468644  0.43495641  1  0  -0.742164  0  1.963084  0  0  -0.701625  0  2.230882  0  0  -0.718759  0  2.212501  0  0  -0.448974  -0.689689  0  2.24266  0
O  O81  1  0.23184121  0.35531289  0.93495223  1  0  -0.742265  0  1.962778  0  0  -0.701727  0  2.230585  0  0  -0.718861  0  2.212201  0  0  -0.449068  -0.689797  0  2.242367  0
O  O82  1  0.73184782  0.85531247  0.56504148  1  0  -0.742306  0  1.963149  0  0  -0.701779  0  2.230981  0  0  -0.718913  0  2.212593  0  0  -0.449098  -0.689848  0  2.242765  0
O  O83  1  0.76815943  0.64468706  0.06504814  1  0  -0.742167  0  1.962745  0  0  -0.701635  0  2.230545  0  0  -0.718768  0  2.212158  0  0  -0.44903  -0.689699  0  2.242321  0
O  O84  1  0.20853826  0.52885041  0.77368784  1  0  -0.756907  0  1.969596  0  0  -0.711573  0  2.230812  0  0  -0.729341  0  2.212028  0  0  -0.470026  -0.699127  0  2.243618  0
O  O85  1  0.29147607  0.97115198  0.27368472  1  0  -0.757005  0  1.969976  0  0  -0.711664  0  2.231209  0  0  -0.729429  0  2.212418  0  0  -0.470001  -0.699232  0  2.244023  0
O  O86  1  0.79146424  0.47115475  0.22631315  1  0  -0.756947  0  1.969573  0  0  -0.711582  0  2.230739  0  0  -0.729346  0  2.211951  0  0  -0.47006  -0.699137  0  2.243539  0
O  O87  1  0.70852575  0.02884381  0.72631565  1  0  -0.756873  0  1.969983  0  0  -0.711534  0  2.231195  0  0  -0.729299  0  2.212408  0  0  -0.469952  -0.699097  0  2.244015  0
O  O88  1  0.02776942  0.71897833  0.71653736  1  0  -0.719697  0  1.926259  0  0  -0.667329  0  2.167928  0  0  -0.687413  0  2.151751  0  0  -0.380839  -0.653026  0  2.178854  0
O  O89  1  0.47223450  0.78103790  0.21654066  1  0  -0.719867  0  1.926214  0  0  -0.667494  0  2.167894  0  0  -0.687572  0  2.151708  0  0  -0.380848  -0.653193  0  2.178814  0
O  O90  1  0.97223433  0.28102371  0.28346363  1  0  -0.71968  0  1.926171  0  0  -0.667312  0  2.167857  0  0  -0.687396  0  2.151682  0  0  -0.380834  -0.653012  0  2.178777  0
O  O91  1  0.52776188  0.21896411  0.78346156  1  0  -0.719801  0  1.926226  0  0  -0.667426  0  2.167909  0  0  -0.687509  0  2.151732  0  0  -0.380813  -0.653123  0  2.178833  0
O  O92  1  0.39112212  0.73544418  0.71973585  1  0  -0.692633  0  1.952559  0  0  -0.649885  0  2.205252  0  0  -0.669767  0  2.189738  0  0  -0.395962  -0.636034  0  2.215842  0
O  O93  1  0.10888558  0.76456379  0.21974010  1  0  -0.692648  0  1.95229  0  0  -0.649962  0  2.205058  0  0  -0.669844  0  2.189542  0  0  -0.395937  -0.636115  0  2.215641  0
O  O94  1  0.60887403  0.26455472  0.28026451  1  0  -0.692637  0  1.952479  0  0  -0.649889  0  2.205205  0  0  -0.669771  0  2.189691  0  0  -0.395984  -0.636043  0  2.215794  0
O  O95  1  0.89111809  0.23543721  0.78026151  1  0  -0.692637  0  1.952329  0  0  -0.649927  0  2.205086  0  0  -0.669809  0  2.189574  0  0  -0.395923  -0.636078  0  2.215676  0
O  O96  1  0.73713767  0.51080696  0.75549215  1  0  -0.920467  0  1.811203  0  0  -0.887088  0  1.987563  0  0  -0.900802  0  1.956149  0  0  -0.707782  -0.877512  0  2.010058  0
O  O97  1  0.76286837  0.98919167  0.25549285  1  0  -0.920574  0  1.811092  0  0  -0.887121  0  1.987626  0  0  -0.900835  0  1.956214  0  0  -0.707766  -0.877554  0  2.010126  0
O  O98  1  0.26286290  0.48919195  0.24450760  1  0  -0.920513  0  1.811107  0  0  -0.887099  0  1.987553  0  0  -0.90081  0  1.956142  0  0  -0.707792  -0.87753  0  2.010058  0
O  O99  1  0.23713095  0.01081035  0.74450751  1  0  -0.920491  0  1.811233  0  0  -0.887088  0  1.987624  0  0  -0.900803  0  1.956208  0  0  -0.707749  -0.877515  0  2.010118  0
