# generated using pymatgen
data_Zn4H26C48S3O22
_symmetry_space_group_name_H-M   'P 1'
_cell_length_a   15.43449060
_cell_length_b   15.59229503
_cell_length_c   19.55500745
_cell_angle_alpha   83.74717448
_cell_angle_beta   76.41830521
_cell_angle_gamma   66.35842829
_symmetry_Int_Tables_number   1
_chemical_formula_structural   Zn4H26C48S3O22
_chemical_formula_sum   'Zn4 H26 C48 S3 O22'
_cell_volume   4189.98796826
_cell_formula_units_Z   1
loop_
 _symmetry_equiv_pos_site_id
 _symmetry_equiv_pos_as_xyz
  1  'x, y, z'
loop_
 _atom_site_type_symbol
 _atom_site_label
 _atom_site_symmetry_multiplicity
 _atom_site_fract_x
 _atom_site_fract_y
 _atom_site_fract_z
 _atom_site_occupancy
 _atom_site_pbe_bader_charge
 _atom_site_pbe_bader_spin_density
 _atom_site_pbe_cm5_charge
 _atom_site_pbe_ddec_charge
 _atom_site_pbe_ddec_spin_density
 _atom_site_pbe_ddec_sum_bond_order
 _atom_site_pbe_magmom
Zn  Zn0  1  0.40093862  0.59602504  0.44674181  1  1.320905  0  0.680064  0.98696  0  2.291319  0
Zn  Zn1  1  0.43613930  0.44154285  0.57313308  1  1.313951  0  0.671732  0.962613  0  2.372507  0
Zn  Zn2  1  0.55345489  0.57003258  0.54124951  1  1.319402  0  0.680074  0.975237  0  2.377114  0
Zn  Zn3  1  0.60303574  0.40829884  0.43694176  1  1.324804  0  0.68369  0.984645  0  2.340904  0
H  H4  1  0.53331017  0.62236877  0.87594358  1  0.069269  0  0.108542  0.108939  0  0.986867  0
H  H5  1  0.14204302  0.55518356  0.67051066  1  0.102964  0  0.111693  0.118563  0  0.987988  0
H  H6  1  0.51182317  0.35744439  0.77277762  1  0.129606  0  0.112675  0.121975  0  1.015682  0
H  H7  1  0.89528220  0.44775077  0.67598918  1  0.083123  0  0.11355  0.120248  0  0.989354  0
H  H8  1  0.99311681  0.51996525  0.70642025  1  0.052843  0  0.108492  0.109094  0  0.986594  0
H  H9  1  0.14725204  0.53155178  0.45351296  1  0.097623  0  0.108703  0.112937  0  1.015089  0
H  H10  1  0.85590548  0.45305875  0.33653305  1  0.118752  0  0.11555  0.123486  0  0.977288  0
H  H11  1  0.08651514  0.50674362  0.38428491  1  0.064378  0  0.10753  0.107161  0  1.006191  0
H  H12  1  0.01207617  0.47536325  0.29694451  1  0.085932  0  0.109607  0.107025  0  0.981554  0
H  H13  1  0.51473063  0.63228278  0.75183294  1  0.126381  0  0.116871  0.125818  0  0.976548  0
H  H14  1  0.56503506  0.54269511  0.97712489  1  0.067989  0  0.103439  0.102305  0  1.002075  0
H  H15  1  0.72053226  0.12504594  0.52074954  1  0.091655  0  0.111483  0.121884  0  0.982993  0
H  H16  1  0.48961377  0.33002113  0.13400038  1  0.077623  0  0.115275  0.118807  0  0.973525  0
H  H17  1  0.49961888  0.34202219  0.25767891  1  0.097388  0  0.115414  0.119192  0  0.975656  0
H  H18  1  0.47065497  0.39941346  0.02194295  1  0.113941  0  0.10588  0.110735  0  1.038326  0
H  H19  1  0.52278190  0.59273594  0.08365875  1  0.080567  0  0.10601  0.106668  0  1.024288  0
H  H20  1  0.54053159  0.73997943  0.13212778  1  0.631787  0  0.353745  0.403763  0  0.839357  0
H  H21  1  0.70307005  0.42758688  0.69738221  1  0.643103  0  0.341346  0.389751  0  0.864904  0
H  H22  1  0.51426748  0.21443739  0.84961115  1  0.630159  0  0.360883  0.408267  0  0.825932  0
H  H23  1  0.72905803  0.82151693  0.49510177  1  0.035611  0  0.103562  0.103898  0  0.990902  0
H  H24  1  0.76693940  0.95238120  0.51448930  1  0.076881  0  0.104877  0.104153  0  0.992017  0
H  H25  1  0.42998780  0.17467296  0.51030632  1  0.072628  0  0.103927  0.106762  0  1.019139  0
H  H26  1  0.28308073  0.88657534  0.45453626  1  0.090134  0  0.110484  0.116334  0  0.988874  0
H  H27  1  0.34338000  0.12436584  0.48452482  1  0.05427  0  0.103608  0.101153  0  1.010123  0
H  H28  1  0.23241358  0.06008837  0.46016836  1  0.074832  0  0.106143  0.104781  0  0.987334  0
H  H29  1  0.61507432  0.75714805  0.47840143  1  0.078507  0  0.104768  0.119055  0  1.02281  0
C  C30  1  0.54706986  0.26073180  0.51677088  1  1.535672  0  0.226967  0.609435  0  4.152035  0
C  C31  1  0.50239791  0.44867255  0.02757858  1  -0.068773  0  -0.078161  -0.101983  0  3.957481  0
C  C32  1  0.53518898  0.49218467  0.97004065  1  -0.038042  0  -0.091005  -0.138682  0  3.992866  0
C  C33  1  0.44284062  0.75277892  0.47840627  1  1.556216  0  0.232604  0.614757  0  4.147548  0
C  C34  1  0.50748490  0.49684913  0.75610986  1  -0.033314  0  -0.018965  -0.040264  0  3.981746  0
C  C35  1  0.69349310  0.00148633  0.51242997  1  -0.036693  0  -0.088782  -0.13158  0  4.003141  0
C  C36  1  0.57202575  0.15825553  0.51558225  1  -0.046276  0  -0.021172  -0.036528  0  4.009683  0
C  C37  1  0.33254024  0.91600907  0.46357809  1  0.012537  0  -0.079665  -0.083869  0  3.986532  0
C  C38  1  0.30442188  0.01300001  0.46710594  1  -0.0879  0  -0.091932  -0.090137  0  4.056986  0
C  C39  1  0.36735405  0.04885320  0.48070199  1  -0.038609  0  -0.083223  -0.115335  0  3.992224  0
C  C40  1  0.46181848  0.98996600  0.48872679  1  -0.006983  0  -0.00219  0.026659  0  3.941758  0
C  C41  1  0.50541477  0.46041797  0.09976496  1  0.042837  0  -0.002061  0.120695  0  4.021344  0
C  C42  1  0.49207038  0.89076634  0.48328181  1  -0.007239  0  0.003844  0.070837  0  3.92973  0
C  C43  1  0.52905488  0.02786392  0.50098378  1  -0.006318  0  -0.003058  0.032696  0  3.94552  0
C  C44  1  0.62593510  0.96566347  0.50346077  1  0.017075  0  -0.005806  0.077718  0  4.026722  0
C  C45  1  0.24779515  0.55241559  0.54018261  1  1.567486  0  0.227263  0.604528  0  4.160344  0
C  C46  1  0.65416132  0.86791053  0.49465587  1  -0.040679  0  -0.091005  -0.133035  0  4.030183  0
C  C47  1  0.59061302  0.83188826  0.48521808  1  -0.013895  0  -0.091471  -0.124688  0  4.001384  0
C  C48  1  0.50351642  0.12429755  0.50967014  1  0.012822  0  -0.081152  -0.140131  0  3.943353  0
C  C49  1  0.66827906  0.09636818  0.51645671  1  -0.032614  0  -0.084963  -0.097544  0  4.000902  0
C  C50  1  0.42371622  0.85496398  0.47325968  1  -0.018337  0  -0.014175  -0.086088  0  3.918653  0
C  C51  1  0.02672983  0.52300229  0.65102530  1  0.009105  0  -0.082278  -0.122911  0  3.990791  0
C  C52  1  0.49789633  0.39066320  0.15009835  1  -0.032586  0  -0.070662  -0.107343  0  3.93077  0
C  C53  1  0.15183074  0.54424430  0.55951655  1  -0.005758  0  -0.012587  -0.024014  0  3.979911  0
C  C54  1  0.89432613  0.45893185  0.37479057  1  -0.028912  0  -0.07362  -0.0801  0  3.960161  0
C  C55  1  0.98067074  0.47338768  0.35288691  1  -0.085073  0  -0.086063  -0.07779  0  4.048913  0
C  C56  1  0.02279934  0.48992210  0.40231228  1  0.010041  0  -0.084521  -0.123915  0  3.992699  0
C  C57  1  0.75075143  0.46423647  0.46274378  1  1.613801  0  0.228003  0.614676  0  4.178927  0
C  C58  1  0.98507512  0.48561770  0.47532508  1  -0.053514  0  0.003169  0.037216  0  3.928071  0
C  C59  1  0.90185098  0.46175388  0.49803193  1  0.026654  0  0.008361  0.056793  0  3.911695  0
C  C60  1  0.02869240  0.50594785  0.52662579  1  -0.055789  0  0.003307  0.039823  0  3.941206  0
C  C61  1  0.98761625  0.50168010  0.59963496  1  0.043821  0  -0.003615  0.081809  0  4.019946  0
C  C62  1  0.91449453  0.46505772  0.62044511  1  0.046182  0  -0.072731  -0.119883  0  3.980128  0
C  C63  1  0.50326328  0.39721182  0.21918260  1  0.047881  0  -0.07448  -0.08737  0  3.973321  0
C  C64  1  0.87555345  0.44254875  0.57239173  1  -0.19371  0  -0.01385  -0.128489  0  3.934519  0
C  C65  1  0.11125332  0.52861145  0.50816691  1  -0.006178  0  -0.074532  -0.133193  0  3.920357  0
C  C66  1  0.10845111  0.54273246  0.63158480  1  -0.081069  0  -0.082095  -0.093141  0  3.996864  0
C  C67  1  0.85326734  0.45643041  0.44586067  1  0.022098  0  -0.009651  -0.069196  0  3.924846  0
C  C68  1  0.49480337  0.50228634  0.68215660  1  1.562214  0  0.223504  0.601679  0  4.177556  0
C  C69  1  0.50823939  0.48228867  0.31779954  1  1.608011  0  0.229903  0.609161  0  4.192092  0
C  C70  1  0.51197809  0.47524783  0.24118311  1  0.001478  0  0.001289  -0.01997  0  3.929651  0
C  C71  1  0.51850350  0.54572590  0.19113961  1  -0.185607  0  -0.006867  -0.093249  0  3.934518  0
C  C72  1  0.51633585  0.53794477  0.12148201  1  -0.006984  0  -0.077081  -0.128393  0  3.940548  0
C  C73  1  0.52778628  0.40846111  0.86559675  1  -0.171015  0  -0.012841  -0.135965  0  3.892411  0
C  C74  1  0.51428308  0.41577347  0.79689748  1  0.035392  0  -0.077096  -0.10128  0  3.978638  0
C  C75  1  0.51702521  0.57049882  0.78448040  1  -0.016979  0  -0.073963  -0.076691  0  3.973493  0
C  C76  1  0.52813652  0.56394669  0.85345816  1  -0.043412  0  -0.08246  -0.129948  0  3.95894  0
C  C77  1  0.53074952  0.48499650  0.89733238  1  -0.01658  0  0.008647  0.126788  0  3.984488  0
S  S78  1  0.53083415  0.64597089  0.21764756  1  3.024304  0  0.539432  1.159598  0  5.962525  0
S  S79  1  0.81382963  0.36635338  0.60853603  1  3.034843  0  0.538813  1.157911  0  5.950911  0
S  S80  1  0.54667275  0.29803622  0.91074284  1  3.040835  0  0.540791  1.15942  0  5.977583  0
O  O81  1  0.49678276  0.50488782  0.49689296  1  -1.23439  0  -0.576131  -1.038308  0  2.540681  0
O  O82  1  0.47515119  0.43759958  0.66287744  1  -1.160773  0  -0.313282  -0.537316  0  2.305566  0
O  O83  1  0.56853614  0.41303476  0.34515670  1  -1.162521  0  -0.310297  -0.537847  0  2.299744  0
O  O84  1  0.50507704  0.57078924  0.64430218  1  -1.168597  0  -0.314654  -0.54457  0  2.331246  0
O  O85  1  0.44229248  0.55536436  0.34765029  1  -1.162188  0  -0.303154  -0.534463  0  2.347646  0
O  O86  1  0.43770336  0.72137276  0.23669460  1  -1.28334  0  -0.319511  -0.536966  0  2.083734  0
O  O87  1  0.59897483  0.61419572  0.26291338  1  -1.27225  0  -0.304841  -0.506785  0  2.104542  0
O  O88  1  0.58505462  0.67734892  0.14324010  1  -1.177431  0  -0.36906  -0.545422  0  2.112372  0
O  O89  1  0.85840058  0.31171515  0.66466664  1  -1.294431  0  -0.326482  -0.547633  0  2.091977  0
O  O90  1  0.80287103  0.32142323  0.55277682  1  -1.278431  0  -0.29263  -0.498018  0  2.161579  0
O  O91  1  0.70664062  0.43646541  0.64656010  1  -1.207542  0  -0.361615  -0.545071  0  2.241689  0
O  O92  1  0.27396158  0.58303611  0.47893251  1  -1.165712  0  -0.310521  -0.537954  0  2.276793  0
O  O93  1  0.63300495  0.26919383  0.93764101  1  -1.274426  0  -0.302684  -0.502929  0  2.097815  0
O  O94  1  0.45680933  0.29985280  0.95552955  1  -1.301974  0  -0.327474  -0.558127  0  2.094429  0
O  O95  1  0.57146111  0.22834404  0.84703836  1  -1.179482  0  -0.355137  -0.52158  0  2.127978  0
O  O96  1  0.72629590  0.42246126  0.42293536  1  -1.168764  0  -0.307752  -0.531384  0  2.326935  0
O  O97  1  0.46160916  0.31359760  0.54779781  1  -1.16844  0  -0.323289  -0.554116  0  2.279841  0
O  O98  1  0.50557677  0.70164524  0.51379016  1  -1.18432  0  -0.312062  -0.546297  0  2.404201  0
O  O99  1  0.61422914  0.28837714  0.48606714  1  -1.175031  0  -0.313459  -0.547862  0  2.324679  0
O  O100  1  0.39249431  0.72458009  0.44986290  1  -1.166825  0  -0.312809  -0.546334  0  2.313805  0
O  O101  1  0.29793558  0.52479422  0.58785401  1  -1.182083  0  -0.32447  -0.562102  0  2.324114  0
O  O102  1  0.69489405  0.51962846  0.51274046  1  -1.170526  0  -0.31442  -0.550622  0  2.370865  0
