# generated using pymatgen
data_KVH2C7(NO4)2
_symmetry_space_group_name_H-M   'P 1'
_cell_length_a   8.54696973
_cell_length_b   10.69806788
_cell_length_c   11.45322804
_cell_angle_alpha   90.00846508
_cell_angle_beta   96.21476089
_cell_angle_gamma   89.99429115
_symmetry_Int_Tables_number   1
_chemical_formula_structural   KVH2C7(NO4)2
_chemical_formula_sum   'K4 V4 H8 C28 N8 O32'
_cell_volume   1041.08355216
_cell_formula_units_Z   4
loop_
 _symmetry_equiv_pos_site_id
 _symmetry_equiv_pos_as_xyz
  1  'x, y, z'
loop_
 _atom_site_type_symbol
 _atom_site_label
 _atom_site_symmetry_multiplicity
 _atom_site_fract_x
 _atom_site_fract_y
 _atom_site_fract_z
 _atom_site_occupancy
 _atom_site_hle17_bader_spin_density
 _atom_site_hle17_ddec_charge
 _atom_site_hle17_ddec_spin_density
 _atom_site_hle17_ddec_sum_bond_order
 _atom_site_hle17_magmom
 _atom_site_hse06_10hf_bader_spin_density
 _atom_site_hse06_10hf_ddec_charge
 _atom_site_hse06_10hf_ddec_spin_density
 _atom_site_hse06_10hf_ddec_sum_bond_order
 _atom_site_hse06_10hf_magmom
 _atom_site_hse06_bader_spin_density
 _atom_site_hse06_ddec_charge
 _atom_site_hse06_ddec_spin_density
 _atom_site_hse06_ddec_sum_bond_order
 _atom_site_hse06_magmom
 _atom_site_pbe_bader_spin_density
 _atom_site_pbe_cm5_charge
 _atom_site_pbe_ddec_charge
 _atom_site_pbe_ddec_spin_density
 _atom_site_pbe_ddec_sum_bond_order
 _atom_site_pbe_magmom
K  K0  1  0.29417386  0.42083085  0.39412731  1  0  0.951127  0  0.4552  0  0  0.918314  0  0.639776  0  0  0.933723  0  0.616325  0  0  0.772298  0.906885  0  0.656433  0
K  K1  1  0.70582218  0.92083256  0.10585830  1  0  0.951199  0  0.454875  0  0  0.918299  0  0.639506  0  0  0.933686  0  0.616129  0  0  0.772106  0.906867  0  0.65616  0
K  K2  1  0.70582541  0.57917378  0.60585438  1  0  0.951125  0  0.455168  0  0  0.918304  0  0.639765  0  0  0.933703  0  0.616335  0  0  0.772366  0.906872  0  0.656429  0
K  K3  1  0.29419360  0.07918703  0.89412313  1  0  0.95117  0  0.455064  0  0  0.918375  0  0.639638  0  0  0.933796  0  0.616213  0  0  0.77217  0.906943  0  0.656296  0
V  V4  1  0.41174104  0.10663628  0.24592530  1  0  1.829537  0  2.985857  0  0  1.864257  0  3.391957  0  0  1.950708  0  3.379358  0  0  1.471857  1.804427  0  3.40453  0
V  V5  1  0.58823238  0.60661833  0.25412444  1  0  1.829604  0  2.985753  0  0  1.864326  0  3.391936  0  0  1.950805  0  3.379266  0  0  1.471825  1.804437  0  3.404589  0
V  V6  1  0.58828433  0.89335994  0.75404650  1  0  1.829572  0  2.985993  0  0  1.864403  0  3.391812  0  0  1.950707  0  3.379492  0  0  1.472105  1.804661  0  3.404248  0
V  V7  1  0.41178679  0.39338069  0.74586515  1  0  1.829963  0  2.985805  0  0  1.864645  0  3.392043  0  0  1.951271  0  3.379076  0  0  1.472062  1.804556  0  3.405023  0
H  H8  1  0.93764088  0.87626607  0.39450472  1  0  0.160206  0  0.92288  0  0  0.16165  0  0.99134  0  0  0.167852  0  0.985519  0  0  0.135565  0.157119  0  0.995741  0
H  H9  1  0.06231504  0.37621956  0.10547891  1  0  0.160296  0  0.922886  0  0  0.161688  0  0.991444  0  0  0.16788  0  0.985647  0  0  0.135499  0.157143  0  0.995838  0
H  H10  1  0.06235768  0.12377035  0.60551969  1  0  0.160286  0  0.922642  0  0  0.161699  0  0.991138  0  0  0.167868  0  0.98535  0  0  0.135497  0.157163  0  0.995541  0
H  H11  1  0.93768756  0.62377479  0.89451530  1  0  0.160356  0  0.922919  0  0  0.161745  0  0.991455  0  0  0.167933  0  0.985655  0  0  0.135494  0.157171  0  0.995882  0
H  H12  1  0.39709932  0.72688838  0.52222503  1  0  0.156763  0  0.939528  0  0  0.16189  0  1.001627  0  0  0.168102  0  0.995315  0  0  0.136842  0.157419  0  1.00636  0
H  H13  1  0.60287938  0.22685101  0.97776510  1  0  0.156863  0  0.939125  0  0  0.161961  0  1.001261  0  0  0.168181  0  0.994945  0  0  0.136859  0.157488  0  1.006004  0
H  H14  1  0.60289365  0.27312748  0.47778141  1  0  0.156823  0  0.939587  0  0  0.161988  0  1.001595  0  0  0.168172  0  0.995317  0  0  0.136843  0.157517  0  1.006336  0
H  H15  1  0.39710798  0.77314147  0.02222425  1  0  0.156791  0  0.939542  0  0  0.161892  0  1.001585  0  0  0.168115  0  0.995273  0  0  0.136799  0.157423  0  1.006329  0
C  C16  1  0.07358920  0.06626624  0.25164563  1  0  0.633414  0  3.914041  0  0  0.586479  0  4.22458  0  0  0.622629  0  4.21211  0  0  0.221743  0.561955  0  4.232222  0
C  C17  1  0.92635984  0.56622707  0.24842161  1  0  0.633112  0  3.91327  0  0  0.585845  0  4.224321  0  0  0.622014  0  4.211831  0  0  0.221621  0.561316  0  4.231957  0
C  C18  1  0.92639072  0.93376270  0.74836576  1  0  0.633778  0  3.913295  0  0  0.586496  0  4.224346  0  0  0.62266  0  4.211888  0  0  0.221893  0.561969  0  4.231991  0
C  C19  1  0.07361334  0.43375046  0.75156996  1  0  0.633393  0  3.914025  0  0  0.586087  0  4.225155  0  0  0.622226  0  4.212759  0  0  0.221765  0.561553  0  4.232785  0
C  C20  1  0.14360284  0.96352799  0.33093691  1  0  0.140932  0  3.701996  0  0  0.141994  0  3.955226  0  0  0.145138  0  3.97055  0  0  0.134478  0.139628  0  3.945266  0
C  C21  1  0.85637898  0.46351627  0.16906997  1  0  0.140574  0  3.702085  0  0  0.14174  0  3.955306  0  0  0.144867  0  3.970623  0  0  0.134482  0.139366  0  3.945342  0
C  C22  1  0.85640461  0.03648039  0.66904901  1  0  0.140681  0  3.701796  0  0  0.141803  0  3.955184  0  0  0.144954  0  3.970368  0  0  0.134426  0.139433  0  3.945224  0
C  C23  1  0.14361987  0.53646033  0.83093701  1  0  0.140847  0  3.701755  0  0  0.14195  0  3.95507  0  0  0.145105  0  3.970385  0  0  0.134534  0.139572  0  3.945103  0
C  C24  1  0.06545622  0.87748697  0.39517993  1  0  -0.089153  0  3.547542  0  0  -0.124423  0  3.799961  0  0  -0.123949  0  3.810044  0  0  -0.034126  -0.124684  0  3.79283  0
C  C25  1  0.93450658  0.37745424  0.10480711  1  0  -0.088839  0  3.547324  0  0  -0.124013  0  3.79968  0  0  -0.123577  0  3.809764  0  0  -0.033902  -0.124245  0  3.792555  0
C  C26  1  0.93454295  0.12252328  0.60480786  1  0  -0.089177  0  3.547225  0  0  -0.124287  0  3.799508  0  0  -0.124209  0  3.811051  0  0  -0.033987  -0.124534  0  3.7924  0
C  C27  1  0.06548976  0.62252889  0.89520924  1  0  -0.089226  0  3.547444  0  0  -0.12439  0  3.799763  0  0  -0.12393  0  3.809892  0  0  -0.033898  -0.124597  0  3.792667  0
C  C28  1  0.16141063  0.79197105  0.46135534  1  0  0.153943  0  3.61922  0  0  0.134516  0  3.867381  0  0  0.143035  0  3.886516  0  0  0.119444  0.132582  0  3.857113  0
C  C29  1  0.83856352  0.29192338  0.03862603  1  0  0.153934  0  3.618541  0  0  0.13426  0  3.866959  0  0  0.142844  0  3.885974  0  0  0.11949  0.132322  0  3.856691  0
C  C30  1  0.83859524  0.20805228  0.53865488  1  0  0.153933  0  3.618696  0  0  0.134492  0  3.867076  0  0  0.137044  0  3.88284  0  0  0.119602  0.132563  0  3.856803  0
C  C31  1  0.16143416  0.70805695  0.96138084  1  0  0.154147  0  3.618579  0  0  0.134522  0  3.866824  0  0  0.143041  0  3.885988  0  0  0.119311  0.132584  0  3.856564  0
C  C32  1  0.32474840  0.79118726  0.46645840  1  0  -0.081337  0  3.567444  0  0  -0.113135  0  3.809487  0  0  -0.111309  0  3.817452  0  0  -0.028439  -0.114058  0  3.80333  0
C  C33  1  0.67523270  0.29116952  0.03353484  1  0  -0.081606  0  3.567433  0  0  -0.113228  0  3.80956  0  0  -0.111452  0  3.817451  0  0  -0.028518  -0.114131  0  3.803466  0
C  C34  1  0.67524598  0.20882392  0.53353421  1  0  -0.081494  0  3.567247  0  0  -0.113299  0  3.809378  0  0  -0.111887  0  3.818867  0  0  -0.028539  -0.114227  0  3.803234  0
C  C35  1  0.32477066  0.70881082  0.96648476  1  0  -0.081479  0  3.567573  0  0  -0.113093  0  3.809494  0  0  -0.111264  0  3.817435  0  0  -0.028346  -0.114015  0  3.803319  0
C  C36  1  0.39132361  0.88274833  0.40106237  1  0  0.152599  0  3.705622  0  0  0.15902  0  3.94598  0  0  0.162748  0  3.960175  0  0  0.14178  0.156186  0  3.936716  0
C  C37  1  0.60864570  0.38273871  0.09892599  1  0  0.152963  0  3.705096  0  0  0.159201  0  3.945602  0  0  0.163039  0  3.959639  0  0  0.141731  0.156256  0  3.936502  0
C  C38  1  0.60867694  0.11725443  0.59891332  1  0  0.152571  0  3.705111  0  0  0.159095  0  3.94547  0  0  0.162836  0  3.959542  0  0  0.141883  0.15625  0  3.936231  0
C  C39  1  0.39134361  0.61722293  0.90108798  1  0  0.152411  0  3.705733  0  0  0.158765  0  3.946102  0  0  0.162502  0  3.9603  0  0  0.141666  0.15594  0  3.936831  0
C  C40  1  0.56344547  0.91182509  0.39900047  1  0  0.618575  0  3.907665  0  0  0.575204  0  4.209155  0  0  0.610411  0  4.197986  0  0  0.22088  0.551292  0  4.215853  0
C  C41  1  0.43652160  0.41181731  0.10101184  1  0  0.618153  0  3.907665  0  0  0.574726  0  4.209385  0  0  0.609894  0  4.198239  0  0  0.220816  0.55084  0  4.216081  0
C  C42  1  0.43654708  0.08816459  0.60095966  1  0  0.619386  0  3.906889  0  0  0.575739  0  4.208806  0  0  0.610938  0  4.197612  0  0  0.221197  0.551833  0  4.215502  0
C  C43  1  0.56346061  0.58813965  0.89900411  1  0  0.618904  0  3.907246  0  0  0.57528  0  4.209151  0  0  0.610476  0  4.198006  0  0  0.220938  0.55136  0  4.215845  0
N  N44  1  0.30066110  0.96370164  0.33625285  1  0  -0.384206  0  3.382883  0  0  -0.362099  0  3.656327  0  0  -0.381769  0  3.682849  0  0  -0.366103  -0.348867  0  3.638859  0
N  N45  1  0.69931731  0.46370249  0.16374588  1  0  -0.384417  0  3.382467  0  0  -0.362198  0  3.655876  0  0  -0.381898  0  3.682329  0  0  -0.36612  -0.348917  0  3.638444  0
N  N46  1  0.69934983  0.03631235  0.66373687  1  0  -0.38417  0  3.382499  0  0  -0.362078  0  3.655911  0  0  -0.381735  0  3.682307  0  0  -0.366215  -0.348854  0  3.63844  0
N  N47  1  0.30066977  0.53627784  0.83626090  1  0  -0.384399  0  3.383072  0  0  -0.362156  0  3.656403  0  0  -0.381853  0  3.682913  0  0  -0.366168  -0.348879  0  3.638927  0
N  N48  1  0.08737860  0.69891606  0.53245974  1  0  0.484188  0  3.928082  0  0  0.552745  0  4.164426  0  0  0.551543  0  4.207805  0  0  0.07205  0.538557  0  4.16048  0
N  N49  1  0.91259379  0.19883565  0.96751719  1  0  0.484315  0  3.927507  0  0  0.552906  0  4.163892  0  0  0.551792  0  4.207088  0  0  0.072046  0.538719  0  4.159948  0
N  N50  1  0.91261164  0.30112316  0.46756916  1  0  0.484708  0  3.927291  0  0  0.552818  0  4.164277  0  0  0.573838  0  4.170359  0  0  0.072006  0.53863  0  4.160333  0
N  N51  1  0.08740394  0.80115217  0.03248619  1  0  0.483937  0  3.927908  0  0  0.552652  0  4.164138  0  0  0.551443  0  4.207506  0  0  0.07202  0.538462  0  4.160201  0
O  O52  1  0.46926479  0.24605722  0.29238497  1  0  -0.790715  0  1.349352  0  0  -0.808859  0  1.620119  0  0  -0.840099  0  1.615749  0  0  -0.658639  -0.787652  0  1.62323  0
O  O53  1  0.53071650  0.74606457  0.20766661  1  0  -0.790682  0  1.348769  0  0  -0.8088  0  1.619422  0  0  -0.840052  0  1.615055  0  0  -0.658239  -0.787568  0  1.622545  0
O  O54  1  0.53076247  0.75393713  0.70761495  1  0  -0.79067  0  1.349465  0  0  -0.808738  0  1.619991  0  0  -0.839937  0  1.615671  0  0  -0.658666  -0.787554  0  1.62308  0
O  O55  1  0.46929304  0.25393913  0.79233522  1  0  -0.790805  0  1.348799  0  0  -0.808961  0  1.619534  0  0  -0.840245  0  1.615097  0  0  -0.658376  -0.787672  0  1.622713  0
O  O56  1  0.45641378  0.08239903  0.11210205  1  0  -0.834942  0  1.37555  0  0  -0.84907  0  1.652468  0  0  -0.88002  0  1.646126  0  0  -0.722714  -0.827744  0  1.656931  0
O  O57  1  0.54351434  0.58249358  0.38791754  1  0  -0.834838  0  1.376353  0  0  -0.849023  0  1.653365  0  0  -0.879968  0  1.646983  0  0  -0.722701  -0.827681  0  1.657832  0
O  O58  1  0.54360961  0.91760653  0.88784688  1  0  -0.834858  0  1.375427  0  0  -0.849111  0  1.652457  0  0  -0.880016  0  1.646159  0  0  -0.722852  -0.827824  0  1.656899  0
O  O59  1  0.45647154  0.41752415  0.61209001  1  0  -0.834866  0  1.376741  0  0  -0.849023  0  1.653776  0  0  -0.879994  0  1.647362  0  0  -0.72278  -0.827635  0  1.65831  0
O  O60  1  0.18210203  0.13911336  0.21554887  1  0  -0.647335  0  2.008936  0  0  -0.625637  0  2.274281  0  0  -0.659148  0  2.27114  0  0  -0.351874  -0.601863  0  2.275539  0
O  O61  1  0.81787706  0.63908756  0.28452425  1  0  -0.647083  0  2.009177  0  0  -0.625199  0  2.274536  0  0  -0.658708  0  2.271373  0  0  -0.351787  -0.601415  0  2.2758  0
O  O62  1  0.81791834  0.86091558  0.78443995  1  0  -0.647361  0  2.009709  0  0  -0.625533  0  2.275181  0  0  -0.659015  0  2.272084  0  0  -0.351868  -0.601781  0  2.276433  0
O  O63  1  0.18210657  0.36091147  0.71547699  1  0  -0.647214  0  2.009466  0  0  -0.625333  0  2.274881  0  0  -0.658877  0  2.271808  0  0  -0.351754  -0.601503  0  2.276154  0
O  O64  1  0.58449351  0.00798649  0.33044346  1  0  -0.676472  0  2.0508  0  0  -0.649913  0  2.312797  0  0  -0.684015  0  2.311065  0  0  -0.386479  -0.625573  0  2.31298  0
O  O65  1  0.41544350  0.50799419  0.16957702  1  0  -0.676369  0  2.050542  0  0  -0.64982  0  2.312592  0  0  -0.683954  0  2.310938  0  0  -0.386532  -0.625484  0  2.312792  0
O  O66  1  0.41551311  0.99200039  0.66952143  1  0  -0.676865  0  2.050386  0  0  -0.65027  0  2.312532  0  0  -0.684367  0  2.31085  0  0  -0.386601  -0.625954  0  2.312723  0
O  O67  1  0.58453384  0.49196465  0.83044810  1  0  -0.676525  0  2.05065  0  0  -0.649916  0  2.31278  0  0  -0.684084  0  2.31112  0  0  -0.386433  -0.625544  0  2.313009  0
O  O68  1  0.93057497  0.07744799  0.22474333  1  0  -0.574353  0  1.924965  0  0  -0.543864  0  2.150425  0  0  -0.565549  0  2.141809  0  0  -0.343881  -0.528536  0  2.155771  0
O  O69  1  0.06941554  0.57738113  0.27538334  1  0  -0.574268  0  1.924013  0  0  -0.543617  0  2.149557  0  0  -0.565326  0  2.140938  0  0  -0.344029  -0.52828  0  2.154895  0
O  O70  1  0.06944757  0.92260526  0.77532778  1  0  -0.574704  0  1.923703  0  0  -0.544128  0  2.149368  0  0  -0.565832  0  2.140758  0  0  -0.344217  -0.528789  0  2.154709  0
O  O71  1  0.93058459  0.42261603  0.72461764  1  0  -0.574374  0  1.92475  0  0  -0.543718  0  2.15034  0  0  -0.565452  0  2.141889  0  0  -0.344051  -0.528375  0  2.155681  0
O  O72  1  0.66926394  0.85617540  0.45927192  1  0  -0.523179  0  1.932076  0  0  -0.497149  0  2.164165  0  0  -0.517536  0  2.156021  0  0  -0.270513  -0.482666  0  2.169148  0
O  O73  1  0.33069463  0.35614317  0.04074932  1  0  -0.523064  0  1.931631  0  0  -0.496939  0  2.163717  0  0  -0.51732  0  2.155605  0  0  -0.270441  -0.482439  0  2.168654  0
O  O74  1  0.33072847  0.14380587  0.54069693  1  0  -0.523446  0  1.932018  0  0  -0.497337  0  2.164314  0  0  -0.517721  0  2.156147  0  0  -0.270624  -0.482853  0  2.16929  0
O  O75  1  0.66930892  0.64380538  0.95925894  1  0  -0.52344  0  1.931429  0  0  -0.497255  0  2.163568  0  0  -0.517631  0  2.155425  0  0  -0.270564  -0.482749  0  2.168505  0
O  O76  1  0.96046329  0.72756035  0.56760071  1  0  -0.334855  0  1.810939  0  0  -0.332289  0  2.009294  0  0  -0.337422  0  2.016797  0  0  -0.144778  -0.323632  0  2.012227  0
O  O77  1  0.03945208  0.22749609  0.93229476  1  0  -0.335109  0  1.810836  0  0  -0.332501  0  2.009096  0  0  -0.337711  0  2.016575  0  0  -0.144834  -0.323824  0  2.012002  0
O  O78  1  0.03953541  0.27247046  0.43241498  1  0  -0.335392  0  1.81038  0  0  -0.33261  0  2.008886  0  0  -0.345418  0  2.004852  0  0  -0.144975  -0.323952  0  2.011823  0
O  O79  1  0.96056093  0.77249078  0.06771174  1  0  -0.33493  0  1.811374  0  0  -0.332344  0  2.009548  0  0  -0.337502  0  2.01708  0  0  -0.144791  -0.323649  0  2.012423  0
O  O80  1  0.15741742  0.59869214  0.55322242  1  0  -0.344787  0  1.801977  0  0  -0.349724  0  2.006795  0  0  -0.355118  0  2.01448  0  0  -0.119424  -0.340885  0  2.009472  0
O  O81  1  0.84262807  0.09858318  0.94681345  1  0  -0.344682  0  1.80228  0  0  -0.349508  0  2.006988  0  0  -0.354955  0  2.014706  0  0  -0.119407  -0.340669  0  2.009658  0
O  O82  1  0.84258099  0.40133960  0.44681158  1  0  -0.344756  0  1.802136  0  0  -0.349598  0  2.007313  0  0  -0.362701  0  2.003578  0  0  -0.119383  -0.340759  0  2.009987  0
O  O83  1  0.15736853  0.90141492  0.05318721  1  0  -0.344634  0  1.802055  0  0  -0.349585  0  2.006771  0  0  -0.354995  0  2.01453  0  0  -0.119425  -0.340747  0  2.009442  0
