# generated using pymatgen
data_AgH5C7(NO)4
_symmetry_space_group_name_H-M   'P 1'
_cell_length_a   5.22565572
_cell_length_b   13.18931313
_cell_length_c   14.43851055
_cell_angle_alpha   114.41468791
_cell_angle_beta   90.00018935
_cell_angle_gamma   89.99989761
_symmetry_Int_Tables_number   1
_chemical_formula_structural   AgH5C7(NO)4
_chemical_formula_sum   'Ag4 H20 C28 N16 O16'
_cell_volume   906.15479283
_cell_formula_units_Z   4
loop_
 _symmetry_equiv_pos_site_id
 _symmetry_equiv_pos_as_xyz
  1  'x, y, z'
loop_
 _atom_site_type_symbol
 _atom_site_label
 _atom_site_symmetry_multiplicity
 _atom_site_fract_x
 _atom_site_fract_y
 _atom_site_fract_z
 _atom_site_occupancy
 _atom_site_hle17_bader_spin_density
 _atom_site_hle17_ddec_charge
 _atom_site_hle17_ddec_spin_density
 _atom_site_hle17_ddec_sum_bond_order
 _atom_site_hle17_magmom
 _atom_site_hse06_10hf_bader_spin_density
 _atom_site_hse06_10hf_ddec_charge
 _atom_site_hse06_10hf_ddec_spin_density
 _atom_site_hse06_10hf_ddec_sum_bond_order
 _atom_site_hse06_10hf_magmom
 _atom_site_hse06_bader_spin_density
 _atom_site_hse06_ddec_charge
 _atom_site_hse06_ddec_spin_density
 _atom_site_hse06_ddec_sum_bond_order
 _atom_site_hse06_magmom
 _atom_site_pbe_bader_spin_density
 _atom_site_pbe_cm5_charge
 _atom_site_pbe_ddec_charge
 _atom_site_pbe_ddec_spin_density
 _atom_site_pbe_ddec_sum_bond_order
 _atom_site_pbe_magmom
Ag  Ag0  1  0.25981788  0.11566365  0.52884853  1  0  0.568209  0  1.318264  0  0  0.420777  0  1.770797  0  0  0.452214  0  1.719407  0  0  0.459517  0.399107  0  1.806675  0
Ag  Ag1  1  0.75987053  0.38431122  0.97114045  1  0  0.568283  0  1.318241  0  0  0.42084  0  1.770767  0  0  0.452272  0  1.719325  0  0  0.459477  0.399169  0  1.806641  0
Ag  Ag2  1  0.74018881  0.88432786  0.47114661  1  0  0.568225  0  1.318177  0  0  0.420814  0  1.770731  0  0  0.452247  0  1.719301  0  0  0.459484  0.399138  0  1.806607  0
Ag  Ag3  1  0.24015529  0.61567198  0.02885231  1  0  0.568287  0  1.318145  0  0  0.420816  0  1.770668  0  0  0.452248  0  1.719226  0  0  0.459473  0.399137  0  1.806541  0
H  H4  1  0.75951508  0.84658113  0.69112706  1  0  0.123123  0  0.95894  0  0  0.129018  0  1.027606  0  0  0.132513  0  1.024821  0  0  0.131221  0.126417  0  1.029715  0
H  H5  1  0.25950076  0.65342853  0.80887096  1  0  0.12315  0  0.958861  0  0  0.129019  0  1.027563  0  0  0.132515  0  1.024776  0  0  0.131246  0.126416  0  1.029672  0
H  H6  1  0.24048203  0.15341859  0.30886210  1  0  0.12321  0  0.958879  0  0  0.129021  0  1.027651  0  0  0.132514  0  1.024918  0  0  0.131198  0.126422  0  1.029761  0
H  H7  1  0.74049636  0.34657888  0.19113627  1  0  0.123218  0  0.958823  0  0  0.129056  0  1.027557  0  0  0.132551  0  1.024769  0  0  0.131212  0.126457  0  1.029665  0
H  H8  1  0.65383883  0.80430034  0.84428372  1  0  0.115805  0  0.991306  0  0  0.118038  0  1.06109  0  0  0.122241  0  1.05907  0  0  0.105773  0.114901  0  1.062722  0
H  H9  1  0.15381981  0.69569993  0.65570784  1  0  0.115872  0  0.9912  0  0  0.118158  0  1.060932  0  0  0.122329  0  1.058953  0  0  0.105828  0.115026  0  1.062558  0
H  H10  1  0.34618508  0.19570445  0.15571215  1  0  0.115959  0  0.991374  0  0  0.118168  0  1.06116  0  0  0.122382  0  1.059134  0  0  0.1058  0.115039  0  1.062782  0
H  H11  1  0.84618687  0.30430244  0.34429338  1  0  0.115932  0  0.991327  0  0  0.118204  0  1.061059  0  0  0.122375  0  1.059138  0  0  0.105809  0.11508  0  1.062677  0
H  H12  1  0.27201451  0.89045935  0.94868578  1  0  0.114602  0  0.93282  0  0  0.126348  0  0.988445  0  0  0.12949  0  0.986101  0  0  0.113851  0.124033  0  0.990196  0
H  H13  1  0.77197237  0.60954709  0.55131732  1  0  0.114624  0  0.93292  0  0  0.126366  0  0.988573  0  0  0.129503  0  0.986238  0  0  0.113873  0.124053  0  0.990323  0
H  H14  1  0.72803236  0.10955055  0.05132098  1  0  0.114575  0  0.932979  0  0  0.126402  0  0.988545  0  0  0.12954  0  0.986209  0  0  0.113872  0.124091  0  0.990296  0
H  H15  1  0.22802858  0.39045444  0.44868359  1  0  0.114639  0  0.932924  0  0  0.126383  0  0.988563  0  0  0.129513  0  0.986274  0  0  0.113886  0.124073  0  0.990309  0
H  H16  1  0.00734525  0.02940207  0.90972259  1  0  0.128291  0  0.94618  0  0  0.135289  0  1.007837  0  0  0.13891  0  1.006123  0  0  0.116007  0.132673  0  1.009244  0
H  H17  1  0.50732711  0.47060151  0.59028128  1  0  0.128302  0  0.946228  0  0  0.135288  0  1.007892  0  0  0.138911  0  1.006193  0  0  0.116013  0.132672  0  1.009305  0
H  H18  1  0.99266909  0.97059365  0.09027687  1  0  0.128278  0  0.946265  0  0  0.135315  0  1.00786  0  0  0.138936  0  1.006147  0  0  0.116036  0.132696  0  1.00927  0
H  H19  1  0.49266427  0.52940755  0.40972447  1  0  0.128304  0  0.946164  0  0  0.135303  0  1.00782  0  0  0.138925  0  1.006108  0  0  0.116041  0.132684  0  1.009233  0
H  H20  1  0.91476116  0.19750209  0.70859133  1  0  0.055438  0  0.944137  0  0  0.060272  0  1.015746  0  0  0.062867  0  1.011217  0  0  0.10472  0.058204  0  1.019247  0
H  H21  1  0.41478884  0.30249056  0.79140454  1  0  0.055376  0  0.944198  0  0  0.060235  0  1.015761  0  0  0.062833  0  1.011198  0  0  0.104712  0.058167  0  1.019257  0
H  H22  1  0.08518238  0.80248774  0.29140180  1  0  0.055481  0  0.944425  0  0  0.060285  0  1.015972  0  0  0.062879  0  1.011407  0  0  0.104813  0.05822  0  1.019465  0
H  H23  1  0.58519679  0.69750599  0.20859592  1  0  0.055446  0  0.944388  0  0  0.060231  0  1.015972  0  0  0.062826  0  1.011407  0  0  0.104781  0.058166  0  1.01946  0
C  C24  1  0.59953115  0.88224839  0.74260684  1  0  0.053248  0  3.615058  0  0  -0.004864  0  3.870458  0  0  -0.001034  0  3.88701  0  0  0.050378  -0.007385  0  3.859529  0
C  C25  1  0.09952102  0.61775683  0.75739128  1  0  0.053254  0  3.6148  0  0  -0.004817  0  3.870111  0  0  -0.000988  0  3.886651  0  0  0.050289  -0.007334  0  3.859178  0
C  C26  1  0.40046405  0.11775318  0.25739686  1  0  0.053253  0  3.614598  0  0  -0.004797  0  3.870005  0  0  -0.000969  0  3.886606  0  0  0.050404  -0.007316  0  3.859079  0
C  C27  1  0.90047418  0.38224717  0.24260846  1  0  0.053197  0  3.614962  0  0  -0.004844  0  3.870228  0  0  -0.001011  0  3.886762  0  0  0.050343  -0.007362  0  3.859301  0
C  C28  1  0.53540162  0.86043930  0.82466122  1  0  -0.107973  0  3.733291  0  0  -0.121767  0  3.994616  0  0  -0.128076  0  4.016135  0  0  -0.082078  -0.117607  0  3.98032  0
C  C29  1  0.03537956  0.63956579  0.67533601  1  0  -0.108108  0  3.733082  0  0  -0.121972  0  3.994447  0  0  -0.128259  0  4.015979  0  0  -0.082068  -0.117814  0  3.980165  0
C  C30  1  0.46460506  0.13957800  0.17534134  1  0  -0.108205  0  3.732655  0  0  -0.121995  0  3.994049  0  0  -0.128314  0  4.015554  0  0  -0.082047  -0.117835  0  3.97977  0
C  C31  1  0.96460416  0.36043326  0.32466467  1  0  -0.108216  0  3.733147  0  0  -0.122078  0  3.994504  0  0  -0.12837  0  4.016082  0  0  -0.082075  -0.117924  0  3.980217  0
C  C32  1  0.31978630  0.91183802  0.88549312  1  0  -0.011961  0  3.68593  0  0  -0.033797  0  3.940193  0  0  -0.031166  0  3.959056  0  0  -0.06602  -0.035275  0  3.927357  0
C  C33  1  0.81976944  0.58816930  0.61450694  1  0  -0.011978  0  3.685813  0  0  -0.033827  0  3.940104  0  0  -0.031201  0  3.958966  0  0  -0.066103  -0.035308  0  3.927283  0
C  C34  1  0.68023378  0.08817096  0.11450707  1  0  -0.011932  0  3.685486  0  0  -0.033863  0  3.939815  0  0  -0.031233  0  3.958675  0  0  -0.066086  -0.035347  0  3.926991  0
C  C35  1  0.18022385  0.41183058  0.38549475  1  0  -0.011903  0  3.685661  0  0  -0.033757  0  3.939965  0  0  -0.031132  0  3.95885  0  0  -0.066053  -0.035238  0  3.927143  0
C  C36  1  0.17153262  0.98637844  0.86434761  1  0  -0.116154  0  3.694274  0  0  -0.13542  0  3.949421  0  0  -0.142103  0  3.970086  0  0  -0.071001  -0.131221  0  3.935636  0
C  C37  1  0.67152062  0.51362446  0.63565257  1  0  -0.116133  0  3.694174  0  0  -0.135388  0  3.949326  0  0  -0.142073  0  3.970037  0  0  -0.070981  -0.131189  0  3.93554  0
C  C38  1  0.82848172  0.01362223  0.13565021  1  0  -0.116102  0  3.693988  0  0  -0.135388  0  3.949156  0  0  -0.142072  0  3.969823  0  0  -0.071022  -0.131187  0  3.935373  0
C  C39  1  0.32847458  0.48638044  0.36435235  1  0  -0.116099  0  3.69394  0  0  -0.135382  0  3.94906  0  0  -0.142065  0  3.969729  0  0  -0.071049  -0.131183  0  3.935282  0
C  C40  1  0.23843779  0.00806353  0.78006537  1  0  0.149272  0  3.699043  0  0  0.122191  0  3.940318  0  0  0.129628  0  3.960338  0  0  0.12523  0.117419  0  3.926887  0
C  C41  1  0.73843494  0.49193713  0.71993446  1  0  0.149214  0  3.699508  0  0  0.122064  0  3.940705  0  0  0.129494  0  3.960743  0  0  0.125201  0.117294  0  3.927272  0
C  C42  1  0.76155741  0.99193386  0.21993540  1  0  0.149246  0  3.699114  0  0  0.122106  0  3.940357  0  0  0.129547  0  3.960388  0  0  0.125247  0.117332  0  3.926921  0
C  C43  1  0.26155452  0.50806354  0.28006336  1  0  0.149035  0  3.699594  0  0  0.121985  0  3.940726  0  0  0.129427  0  3.960742  0  0  0.125227  0.117213  0  3.927293  0
C  C44  1  0.14483757  0.07358137  0.73089718  1  0  0.003959  0  3.751089  0  0  -0.006889  0  4.020379  0  0  -0.014225  0  4.042406  0  0  0.084321  -0.002274  0  4.005692  0
C  C45  1  0.64485482  0.42641988  0.76909851  1  0  0.003806  0  3.751423  0  0  -0.006839  0  4.020446  0  0  -0.014165  0  4.04248  0  0  0.084294  -0.002229  0  4.005757  0
C  C46  1  0.85514232  0.92641349  0.26910057  1  0  0.003846  0  3.751327  0  0  -0.006859  0  4.020388  0  0  -0.014198  0  4.042424  0  0  0.08437  -0.002241  0  4.005696  0
C  C47  1  0.35515569  0.57358248  0.23090201  1  0  0.004181  0  3.751069  0  0  -0.006678  0  4.020247  0  0  -0.014014  0  4.042267  0  0  0.084324  -0.002062  0  4.005555  0
C  C48  1  0.93009548  0.14969723  0.75605681  1  0  0.310784  0  3.708658  0  0  0.269435  0  3.982643  0  0  0.290327  0  3.983717  0  0  0.086196  0.255182  0  3.982175  0
C  C49  1  0.43010139  0.35030291  0.74393909  1  0  0.310924  0  3.708858  0  0  0.269541  0  3.98271  0  0  0.290421  0  3.983808  0  0  0.086267  0.255294  0  3.982238  0
C  C50  1  0.06985379  0.85029038  0.24395698  1  0  0.310983  0  3.707781  0  0  0.269754  0  3.981503  0  0  0.290656  0  3.98256  0  0  0.08619  0.255487  0  3.981043  0
C  C51  1  0.56987468  0.64970178  0.25604983  1  0  0.310833  0  3.708152  0  0  0.269651  0  3.981892  0  0  0.290546  0  3.98295  0  0  0.086189  0.255395  0  3.981425  0
N  N52  1  0.29994542  0.05517590  0.64963122  1  0  -0.185098  0  3.294469  0  0  -0.127933  0  3.607902  0  0  -0.136061  0  3.624162  0  0  -0.205181  -0.121917  0  3.596693  0
N  N53  1  0.79995302  0.44481902  0.85036524  1  0  -0.185073  0  3.294315  0  0  -0.128047  0  3.607797  0  0  -0.136181  0  3.624038  0  0  -0.205198  -0.122031  0  3.596587  0
N  N54  1  0.70003447  0.94481978  0.35036545  1  0  -0.185013  0  3.29411  0  0  -0.127963  0  3.60756  0  0  -0.136092  0  3.623843  0  0  -0.205152  -0.121948  0  3.596351  0
N  N55  1  0.20005175  0.55517836  0.14963483  1  0  -0.185163  0  3.294132  0  0  -0.128059  0  3.607612  0  0  -0.136182  0  3.623852  0  0  -0.205143  -0.12204  0  3.596396  0
N  N56  1  0.48380710  0.98451229  0.64271236  1  0  -0.108255  0  2.904863  0  0  -0.106213  0  3.191088  0  0  -0.113258  0  3.205538  0  0  -0.093151  -0.101628  0  3.181655  0
N  N57  1  0.98379934  0.51548949  0.85728324  1  0  -0.108196  0  2.904987  0  0  -0.106171  0  3.191258  0  0  -0.113216  0  3.205701  0  0  -0.093152  -0.101584  0  3.181818  0
N  N58  1  0.51618045  0.01549500  0.35728513  1  0  -0.108316  0  2.90491  0  0  -0.106265  0  3.191177  0  0  -0.113308  0  3.205593  0  0  -0.09322  -0.101683  0  3.181744  0
N  N59  1  0.01619203  0.48450957  0.14271814  1  0  -0.108136  0  2.905034  0  0  -0.10614  0  3.191278  0  0  -0.113184  0  3.205717  0  0  -0.09315  -0.101554  0  3.181838  0
N  N60  1  0.44834962  0.95480191  0.72224171  1  0  0.055116  0  3.599727  0  0  0.171198  0  3.769452  0  0  0.165614  0  3.790686  0  0  -0.103409  0.174694  0  3.755355  0
N  N61  1  0.94834706  0.54520065  0.77775548  1  0  0.055116  0  3.599851  0  0  0.17125  0  3.769488  0  0  0.165668  0  3.790721  0  0  -0.103374  0.174745  0  3.755386  0
N  N62  1  0.55164367  0.04519960  0.27775781  1  0  0.055252  0  3.599977  0  0  0.171339  0  3.769681  0  0  0.165753  0  3.790959  0  0  -0.103374  0.174836  0  3.755579  0
N  N63  1  0.05164241  0.45480090  0.22224682  1  0  0.055148  0  3.60036  0  0  0.171291  0  3.769925  0  0  0.16571  0  3.791153  0  0  -0.103369  0.174787  0  3.755825  0
N  N64  1  0.78976788  0.21782025  0.48899762  1  0  0.691052  0  4.127201  0  0  0.733336  0  4.392866  0  0  0.748642  0  4.421008  0  0  0.09079  0.713217  0  4.387232  0
N  N65  1  0.28977613  0.28217405  0.01100454  1  0  0.691334  0  4.126925  0  0  0.733491  0  4.392729  0  0  0.763254  0  4.400027  0  0  0.090902  0.713372  0  4.387094  0
N  N66  1  0.21025412  0.78217719  0.51100732  1  0  0.691275  0  4.127138  0  0  0.733289  0  4.393087  0  0  0.76305  0  4.400393  0  0  0.090794  0.713172  0  4.38745  0
N  N67  1  0.71022481  0.71782830  0.98899598  1  0  0.691507  0  4.126723  0  0  0.733676  0  4.392488  0  0  0.763438  0  4.399788  0  0  0.090997  0.71356  0  4.386853  0
O  O68  1  0.77570528  0.16130572  0.82459913  1  0  -0.426602  0  1.987421  0  0  -0.38596  0  2.226001  0  0  -0.403124  0  2.221259  0  0  -0.271334  -0.374457  0  2.229306  0
O  O69  1  0.27571503  0.33868923  0.67540213  1  0  -0.426587  0  1.987592  0  0  -0.385944  0  2.226112  0  0  -0.403124  0  2.221435  0  0  -0.271315  -0.374442  0  2.229404  0
O  O70  1  0.22429566  0.83867409  0.17538753  1  0  -0.42691  0  1.986078  0  0  -0.386327  0  2.224591  0  0  -0.403522  0  2.219889  0  0  -0.271499  -0.374816  0  2.227885  0
O  O71  1  0.72430505  0.66131485  0.32460318  1  0  -0.426793  0  1.986642  0  0  -0.386216  0  2.225115  0  0  -0.403399  0  2.220399  0  0  -0.271429  -0.374708  0  2.22841  0
O  O72  1  0.01163215  0.19433899  0.44541540  1  0  -0.483065  0  1.850439  0  0  -0.452529  0  2.098903  0  0  -0.469063  0  2.09498  0  0  -0.211424  -0.43738  0  2.10496  0
O  O73  1  0.51163909  0.30565063  0.05458652  1  0  -0.483248  0  1.850533  0  0  -0.452593  0  2.098936  0  0  -0.473839  0  2.089429  0  0  -0.211416  -0.437447  0  2.105002  0
O  O74  1  0.98838602  0.80565511  0.55458762  1  0  -0.483203  0  1.850342  0  0  -0.452633  0  2.098949  0  0  -0.47388  0  2.089434  0  0  -0.211451  -0.437463  0  2.104958  0
O  O75  1  0.48835995  0.69434507  0.94541155  1  0  -0.483309  0  1.850463  0  0  -0.452654  0  2.098872  0  0  -0.473903  0  2.08936  0  0  -0.211451  -0.437489  0  2.104883  0
O  O76  1  0.63107163  0.27050425  0.46076598  1  0  -0.443134  0  1.77647  0  0  -0.438216  0  1.990708  0  0  -0.447234  0  1.991865  0  0  -0.173941  -0.428143  0  1.993753  0
O  O77  1  0.13106915  0.22949552  0.03923370  1  0  -0.443078  0  1.776532  0  0  -0.438117  0  1.990799  0  0  -0.452076  0  1.985897  0  0  -0.173869  -0.428048  0  1.993847  0
O  O78  1  0.36895419  0.72949819  0.53924080  1  0  -0.44307  0  1.776653  0  0  -0.438027  0  1.990897  0  0  -0.451961  0  1.985963  0  0  -0.17386  -0.427965  0  1.993943  0
O  O79  1  0.86892414  0.77050681  0.96076473  1  0  -0.443076  0  1.776477  0  0  -0.43819  0  1.990811  0  0  -0.452126  0  1.985866  0  0  -0.173916  -0.428126  0  1.993855  0
O  O80  1  0.73812297  0.18510829  0.55774871  1  0  -0.486638  0  1.86713  0  0  -0.472303  0  2.123436  0  0  -0.487024  0  2.120148  0  0  -0.190452  -0.458556  0  2.12964  0
O  O81  1  0.23814314  0.31488907  0.94225267  1  0  -0.48692  0  1.866987  0  0  -0.472554  0  2.123352  0  0  -0.492145  0  2.11403  0  0  -0.190635  -0.458804  0  2.129558  0
O  O82  1  0.26189137  0.81488578  0.44225152  1  0  -0.486794  0  1.867042  0  0  -0.472372  0  2.123486  0  0  -0.491956  0  2.114154  0  0  -0.190491  -0.458623  0  2.129683  0
O  O83  1  0.76185972  0.68512081  0.05775270  1  0  -0.48702  0  1.866851  0  0  -0.472594  0  2.123126  0  0  -0.492183  0  2.113805  0  0  -0.19066  -0.458852  0  2.129327  0
