# generated using pymatgen
data_AlH18(C4O)6
_symmetry_space_group_name_H-M   'P 1'
_cell_length_a   3.96200660
_cell_length_b   24.55435010
_cell_length_c   24.55359821
_cell_angle_alpha   119.99674990
_cell_angle_beta   90.00189510
_cell_angle_gamma   90.00036186
_symmetry_Int_Tables_number   1
_chemical_formula_structural   AlH18(C4O)6
_chemical_formula_sum   'Al2 H36 C48 O12'
_cell_volume   2068.72916464
_cell_formula_units_Z   2
loop_
 _symmetry_equiv_pos_site_id
 _symmetry_equiv_pos_as_xyz
  1  'x, y, z'
loop_
 _atom_site_type_symbol
 _atom_site_label
 _atom_site_symmetry_multiplicity
 _atom_site_fract_x
 _atom_site_fract_y
 _atom_site_fract_z
 _atom_site_occupancy
 _atom_site_pbe_bader_charge
 _atom_site_pbe_bader_spin_density
 _atom_site_pbe_cm5_charge
 _atom_site_pbe_ddec_charge
 _atom_site_pbe_ddec_spin_density
 _atom_site_pbe_ddec_sum_bond_order
 _atom_site_pbe_magmom
Al  Al0  1  0.00024955  0.49999565  0.50000435  1  2.504358  0  0.424386  1.586877  0  2.585105  0
Al  Al1  1  0.00007962  0.16667490  0.83333092  1  2.50428  0  0.424577  1.586764  0  2.58555  0
H  H2  1  0.40809474  0.43872720  0.73050109  1  0.07949  0  0.097039  0.095784  0  1.019872  0
H  H3  1  0.40823004  0.22793305  0.60283485  1  0.079053  0  0.09704  0.095777  0  1.019932  0
H  H4  1  0.69785519  0.33386942  0.82902039  1  0.090263  0  0.105334  0.107753  0  0.992403  0
H  H5  1  0.71467279  0.39442570  0.77276762  1  0.089752  0  0.098214  0.095832  0  1.012069  0
H  H6  1  0.69800421  0.33281559  0.50433545  1  0.082703  0  0.105459  0.107744  0  0.99255  0
H  H7  1  0.71478070  0.27225147  0.56057901  1  0.090102  0  0.098206  0.095912  0  1.012043  0
H  H8  1  0.40809453  0.79176613  0.56127049  1  0.035351  0  0.09699  0.095773  0  1.020012  0
H  H9  1  0.40818572  0.87491059  0.77206226  1  0.035504  0  0.096997  0.09577  0  1.020234  0
H  H10  1  0.69779823  0.99515514  0.66613511  1  0.068942  0  0.105347  0.107769  0  0.992626  0
H  H11  1  0.71463365  0.87834912  0.60557969  1  0.040061  0  0.09821  0.095819  0  1.01233  0
H  H12  1  0.69800907  0.67152533  0.66718806  1  0.068598  0  0.105365  0.107681  0  0.99275  0
H  H13  1  0.71477279  0.78832897  0.72774916  1  0.040353  0  0.098184  0.095902  0  1.012193  0
H  H14  1  0.40804799  0.26948989  0.20822385  1  0.0402  0  0.096993  0.09564  0  1.019703  0
H  H15  1  0.40821272  0.39715303  0.12510848  1  0.040998  0  0.096989  0.095714  0  1.020119  0
H  H16  1  0.69779238  0.17096846  0.00483115  1  0.074861  0  0.105398  0.107836  0  0.992064  0
H  H17  1  0.71457088  0.22721047  0.12164062  1  0.039673  0  0.098294  0.09597  0  1.012256  0
H  H18  1  0.69794994  0.49565949  0.32849076  1  0.075298  0  0.105335  0.107618  0  0.992468  0
H  H19  1  0.71475039  0.43941530  0.21168433  1  0.039897  0  0.098128  0.095921  0  1.012548  0
H  H20  1  0.10070585  0.52676470  0.68161108  1  0.031497  0  0.094969  0.139914  0  1.009568  0
H  H21  1  0.51253209  0.54615342  0.67049714  1  0.042629  0  0.095651  0.13916  0  1.00245  0
H  H22  1  0.42180492  0.53719940  0.73678050  1  -0.000787  0  0.085718  0.115757  0  1.007559  0
H  H23  1  0.10074868  0.13989420  0.65172222  1  0.031548  0  0.094951  0.139878  0  1.009466  0
H  H24  1  0.51255812  0.12052495  0.66286898  1  0.043402  0  0.095561  0.139056  0  1.002343  0
H  H25  1  0.42194284  0.12946578  0.59657171  1  -0.000412  0  0.085599  0.115519  0  1.007547  0
H  H26  1  0.10070480  0.65483305  0.47323010  1  0.030542  0  0.094989  0.139902  0  1.009483  0
H  H27  1  0.51253401  0.62433329  0.45384711  1  0.046274  0  0.095637  0.139114  0  1.002299  0
H  H28  1  0.42179346  0.69956973  0.46280165  1  0.005222  0  0.085593  0.115543  0  1.007651  0
H  H29  1  0.10076740  0.01184138  0.86010886  1  0.030731  0  0.094953  0.1399  0  1.009442  0
H  H30  1  0.51259153  0.04235197  0.87947792  1  0.045293  0  0.095575  0.138972  0  1.002193  0
H  H31  1  0.42194005  0.96711401  0.87053063  1  0.006322  0  0.085714  0.115671  0  1.007412  0
H  H32  1  0.10064491  0.31839216  0.34516113  1  0.051235  0  0.095084  0.140038  0  1.009239  0
H  H33  1  0.51247452  0.32950860  0.37565900  1  0.043726  0  0.09564  0.13913  0  1.002494  0
H  H34  1  0.42170899  0.26321818  0.30042308  1  0.047643  0  0.085694  0.115748  0  1.007261  0
H  H35  1  0.10082476  0.34827500  0.98816962  1  0.050954  0  0.094989  0.139868  0  1.009599  0
H  H36  1  0.51264597  0.33713499  0.95767185  1  0.043485  0  0.095601  0.139052  0  1.002384  0
H  H37  1  0.42198732  0.40342771  0.03291039  1  0.048745  0  0.085627  0.115588  0  1.00743  0
C  C38  1  0.50690144  0.45274634  0.40323166  1  1.585254  0  0.275016  0.656862  0  4.058471  0
C  C39  1  0.50696146  0.45047233  0.54724917  1  1.531049  0  0.275112  0.657142  0  4.058435  0
C  C40  1  0.50694631  0.59676776  0.54953046  1  1.53634  0  0.275062  0.657051  0  4.058409  0
C  C41  1  0.50676835  0.21621277  0.78610532  1  1.532058  0  0.275229  0.657087  0  4.058575  0
C  C42  1  0.50675321  0.06990617  0.78379122  1  1.536917  0  0.275267  0.657081  0  4.058619  0
C  C43  1  0.50677536  0.21390053  0.93009916  1  1.584711  0  0.275244  0.657119  0  4.058303  0
C  C44  1  0.53095301  0.41848268  0.58485849  1  0.051377  0  -0.011458  -0.101242  0  3.920114  0
C  C45  1  0.53087364  0.24819618  0.74849171  1  0.050466  0  -0.011522  -0.100978  0  3.919852  0
C  C46  1  0.45456193  0.44977690  0.64968580  1  -0.004361  0  0.003741  0.170644  0  3.938289  0
C  C47  1  0.47062191  0.41505137  0.68052368  1  -0.050203  0  -0.091449  -0.195082  0  3.933854  0
C  C48  1  0.45456684  0.21689392  0.68366085  1  -0.003634  0  0.00381  0.170741  0  3.937954  0
C  C49  1  0.47067742  0.25161341  0.65281602  1  -0.049904  0  -0.091537  -0.1945  0  3.934632  0
C  C50  1  0.62947158  0.31152730  0.77945074  1  -0.016798  0  -0.082531  -0.081946  0  4.010062  0
C  C51  1  0.63699796  0.34524802  0.74796013  1  -0.150689  0  -0.094384  -0.141785  0  4.009212  0
C  C52  1  0.62956322  0.35515253  0.55390117  1  -0.008285  0  -0.082578  -0.081711  0  4.010562  0
C  C53  1  0.63706710  0.32142618  0.58538521  1  -0.152011  0  -0.094394  -0.142568  0  4.008502  0
C  C54  1  0.55420181  0.35090989  0.64957274  1  -0.047677  0  -0.003175  0.08395  0  4.007496  0
C  C55  1  0.55419972  0.31575867  0.68376909  1  0.056803  0  -0.003207  0.081047  0  4.01036  0
C  C56  1  0.53094879  0.66637347  0.58151975  1  -0.029271  0  -0.011509  -0.101195  0  3.920396  0
C  C57  1  0.53085514  0.00030261  0.75180555  1  -0.029395  0  -0.011632  -0.101077  0  3.920503  0
C  C58  1  0.45455306  0.69989706  0.55022035  1  -0.099248  0  0.003865  0.170843  0  3.938219  0
C  C59  1  0.47061780  0.76547127  0.58495000  1  0.014924  0  -0.091509  -0.1952  0  3.933539  0
C  C60  1  0.45454632  0.96678288  0.78311010  1  -0.098208  0  0.003877  0.170745  0  3.937932  0
C  C61  1  0.47064458  0.90120428  0.74838081  1  0.015065  0  -0.091528  -0.194571  0  3.934459  0
C  C62  1  0.62943806  0.96793750  0.68848040  1  -0.036092  0  -0.082341  -0.081681  0  4.009327  0
C  C63  1  0.63696255  0.90271051  0.65475137  1  0.00797  0  -0.094421  -0.14188  0  4.008922  0
C  C64  1  0.62955726  0.69874489  0.64484639  1  -0.035004  0  -0.082531  -0.081731  0  4.010373  0
C  C65  1  0.63705040  0.76396363  0.67857472  1  0.006941  0  -0.094397  -0.142653  0  4.008564  0
C  C66  1  0.55418861  0.79866044  0.64909031  1  0.009558  0  -0.003131  0.084058  0  4.007346  0
C  C67  1  0.55417091  0.86801872  0.68424198  1  0.120708  0  -0.003311  0.081043  0  4.01051  0
C  C68  1  0.53089367  0.41514119  0.33362713  1  -0.015185  0  -0.011524  -0.101094  0  3.920386  0
C  C69  1  0.53086988  0.25149796  0.99970169  1  -0.014618  0  -0.011732  -0.101367  0  3.920384  0
C  C70  1  0.45447843  0.35030681  0.30009596  1  -0.020279  0  0.00373  0.170646  0  3.938221  0
C  C71  1  0.47058684  0.31947142  0.23452579  1  -0.02003  0  -0.091311  -0.194786  0  3.934097  0
C  C72  1  0.45456102  0.31633605  0.03323410  1  -0.020142  0  0.003855  0.170708  0  3.937993  0
C  C73  1  0.47066609  0.34716921  0.09880490  1  -0.019676  0  -0.091467  -0.19513  0  3.934822  0
C  C74  1  0.62941284  0.22054164  0.03206303  1  0.015991  0  -0.082439  -0.081741  0  4.010284  0
C  C75  1  0.63694395  0.25202242  0.09728213  1  -0.103272  0  -0.094417  -0.142692  0  4.007806  0
C  C76  1  0.62950236  0.44608935  0.30126220  1  0.01713  0  -0.082393  -0.081585  0  4.01091  0
C  C77  1  0.63704189  0.41460904  0.23604266  1  -0.104468  0  -0.094384  -0.142699  0  4.008174  0
C  C78  1  0.55415505  0.35041141  0.20134089  1  -0.047678  0  -0.003293  0.083107  0  4.00751  0
C  C79  1  0.55414455  0.31622279  0.13198829  1  0.065568  0  -0.003242  0.083343  0  4.007506  0
C  C80  1  0.36869152  0.51870327  0.68665821  1  -0.025416  0  -0.239234  -0.416253  0  3.971711  0
C  C81  1  0.36873890  0.14796522  0.64669057  1  -0.026383  0  -0.238978  -0.415834  0  3.971328  0
C  C82  1  0.36868477  0.66794696  0.48129869  1  -0.003803  0  -0.239145  -0.416055  0  3.971805  0
C  C83  1  0.36874402  0.99873188  0.85203185  1  -0.004554  0  -0.239104  -0.415917  0  3.971312  0
C  C84  1  0.36861534  0.31334341  0.33204833  1  -0.06553  0  -0.239258  -0.416342  0  3.971814  0
C  C85  1  0.36879139  0.35330765  0.00128311  1  -0.066199  0  -0.23907  -0.415861  0  3.972026  0
O  O86  1  0.73072183  0.56727460  0.56237352  1  -1.261738  0  -0.24565  -0.610768  0  2.364459  0
O  O87  1  0.73070199  0.49508777  0.43273126  1  -1.265746  0  -0.245659  -0.610885  0  2.364214  0
O  O88  1  0.73072955  0.43763364  0.50491321  1  -1.254806  0  -0.245627  -0.610805  0  2.364568  0
O  O89  1  0.26127530  0.57050095  0.51169461  1  -1.255572  0  -0.229338  -0.586526  0  2.393578  0
O  O90  1  0.26129985  0.48830766  0.55881694  1  -1.252494  0  -0.229401  -0.586562  0  2.393416  0
O  O91  1  0.26125649  0.44117913  0.42949675  1  -1.253696  0  -0.229276  -0.58633  0  2.393818  0
O  O92  1  0.73054852  0.17155929  0.90059095  1  -1.265869  0  -0.245731  -0.610859  0  2.363795  0
O  O93  1  0.73052854  0.22904960  0.82844612  1  -1.254902  0  -0.245573  -0.610685  0  2.364364  0
O  O94  1  0.73050344  0.09940793  0.77095313  1  -1.263188  0  -0.245702  -0.610814  0  2.364372  0
O  O95  1  0.26110109  0.22547777  0.90384627  1  -1.253121  0  -0.229383  -0.586408  0  2.394263  0
O  O96  1  0.26106208  0.09616142  0.82162095  1  -1.254723  0  -0.229496  -0.586471  0  2.393961  0
O  O97  1  0.26106783  0.17838377  0.77453146  1  -1.252752  0  -0.22947  -0.586619  0  2.394031  0
