# generated using pymatgen
data_ZnH14C12N4O4F
_symmetry_space_group_name_H-M   'P 1'
_cell_length_a   9.70928371
_cell_length_b   10.80788241
_cell_length_c   11.00375798
_cell_angle_alpha   84.82709120
_cell_angle_beta   85.11712487
_cell_angle_gamma   77.48648112
_symmetry_Int_Tables_number   1
_chemical_formula_structural   ZnH14C12N4O4F
_chemical_formula_sum   'Zn2 H28 C24 N8 O8 F2'
_cell_volume   1120.12086699
_cell_formula_units_Z   2
loop_
 _symmetry_equiv_pos_site_id
 _symmetry_equiv_pos_as_xyz
  1  'x, y, z'
loop_
 _atom_site_type_symbol
 _atom_site_label
 _atom_site_symmetry_multiplicity
 _atom_site_fract_x
 _atom_site_fract_y
 _atom_site_fract_z
 _atom_site_occupancy
 _atom_site_pbe_bader_charge
 _atom_site_pbe_bader_spin_density
 _atom_site_pbe_cm5_charge
 _atom_site_pbe_ddec_charge
 _atom_site_pbe_ddec_spin_density
 _atom_site_pbe_ddec_sum_bond_order
 _atom_site_pbe_magmom
Zn  Zn0  1  0.64589951  0.50024340  0.48902284  1  1.300895  0  0.680233  0.862659  0  2.383856  0
Zn  Zn1  1  0.35358872  0.49421421  0.52297842  1  1.310161  0  0.681813  0.880816  0  2.30961  0
H  H2  1  0.38969071  0.13344247  0.47251775  1  0.090988  0  0.093826  0.101466  0  1.058119  0
H  H3  1  0.58837149  0.86228119  0.49142372  1  0.067103  0  0.095927  0.105192  0  1.053642  0
H  H4  1  0.38565089  0.68076653  0.87913202  1  0.0753  0  0.102471  0.108407  0  1.007736  0
H  H5  1  0.65628739  0.31819725  0.12340762  1  0.045164  0  0.100445  0.105044  0  1.011271  0
H  H6  1  0.73633621  0.94678643  0.53339346  1  0.399024  0  0.295059  0.234661  0  0.97507  0
H  H7  1  0.89125979  0.99759620  0.66964272  1  0.049512  0  0.092616  0.0953  0  1.033929  0
H  H8  1  0.71784586  0.01694413  0.74478465  1  0.018874  0  0.084827  0.084426  0  0.997133  0
H  H9  1  0.78085815  0.15197287  0.67696833  1  0.075621  0  0.102232  0.121457  0  1.026384  0
H  H10  1  0.24832200  0.04391708  0.41752888  1  0.420151  0  0.29489  0.232175  0  0.976072  0
H  H11  1  0.02314540  0.99337707  0.47838288  1  0.080196  0  0.092664  0.096723  0  1.034331  0
H  H12  1  0.12439282  0.98184574  0.60902782  1  -0.00097  0  0.081852  0.07637  0  1.00423  0
H  H13  1  0.11370750  0.84142087  0.53925774  1  0.075962  0  0.095675  0.112988  0  1.049247  0
H  H14  1  0.81789709  0.41188453  0.29610437  1  0.508627  0  0.305328  0.271698  0  0.998021  0
H  H15  1  0.92705705  0.22411364  0.21291192  1  0.058418  0  0.108048  0.117994  0  0.977064  0
H  H16  1  0.93195862  0.17926711  0.37253438  1  0.056707  0  0.097727  0.108983  0  1.014428  0
H  H17  1  0.08548075  0.21551344  0.28506623  1  0.058071  0  0.099876  0.108554  0  1.014151  0
H  H18  1  0.97032889  0.69862474  0.71091669  1  0.440315  0  0.312754  0.253008  0  0.9447  0
H  H19  1  0.04402602  0.50019731  0.84855392  1  0.024828  0  0.092421  0.092075  0  1.017206  0
H  H20  1  0.13425152  0.62598474  0.86146331  1  0.055459  0  0.105181  0.11555  0  0.989147  0
H  H21  1  0.21876091  0.49711107  0.77703655  1  0.136216  0  0.107159  0.136136  0  1.024469  0
H  H22  1  0.33884836  0.78598108  0.05687543  1  0.389389  0  0.295685  0.23365  0  0.954508  0
H  H23  1  0.12965044  0.69629380  0.11129763  1  0.000902  0  0.07415  0.062378  0  1.018795  0
H  H24  1  0.16857031  0.78639293  0.22892621  1  0.060144  0  0.094548  0.107555  0  0.994299  0
H  H25  1  0.21770497  0.61809747  0.24232757  1  0.096658  0  0.096834  0.121012  0  1.03248  0
H  H26  1  0.71778570  0.21831622  0.94399843  1  0.387868  0  0.293383  0.229484  0  0.957704  0
H  H27  1  0.90792182  0.33936322  0.92477704  1  -0.001099  0  0.076932  0.066651  0  1.022158  0
H  H28  1  0.84277549  0.39981076  0.77868132  1  0.076828  0  0.094519  0.114375  0  1.033728  0
H  H29  1  0.91554536  0.23475903  0.80596732  1  0.030304  0  0.094767  0.100614  0  1.000164  0
C  C30  1  0.53818098  0.51015876  0.73643261  1  1.562311  0  0.223896  0.62477  0  4.136748  0
C  C31  1  0.50638470  0.48776808  0.26624110  1  1.554218  0  0.228319  0.635226  0  4.121568  0
C  C32  1  0.40036341  0.73774456  0.47515239  1  1.553121  0  0.214914  0.569948  0  4.152953  0
C  C33  1  0.56955858  0.25239991  0.53017516  1  1.529754  0  0.213081  0.567731  0  4.166594  0
C  C34  1  0.09458143  0.41110214  0.45582046  1  1.118102  0  0.233848  0.301905  0  4.031098  0
C  C35  1  0.89855767  0.59400393  0.54323945  1  1.164591  0  0.233459  0.303327  0  4.090131  0
C  C36  1  0.95873798  0.43376156  0.41025183  1  1.042436  0  0.221669  0.225642  0  4.093685  0
C  C37  1  0.03024860  0.56583266  0.59406118  1  1.014293  0  0.214042  0.21079  0  4.11486  0
C  C38  1  0.37613830  0.87950544  0.46503215  1  0.323836  0  0.077221  0.067887  0  3.995936  0
C  C39  1  0.59431243  0.11132518  0.52547279  1  0.373203  0  0.077357  0.072844  0  3.998596  0
C  C40  1  0.48965150  0.93181716  0.48105327  1  0.020163  0  -0.117896  -0.174621  0  4.078289  0
C  C41  1  0.48566698  0.06265587  0.49037090  1  -0.025827  0  -0.121616  -0.18502  0  4.086108  0
C  C42  1  0.44659522  0.60168046  0.93397544  1  -0.069646  0  -0.100313  -0.211395  0  4.006093  0
C  C43  1  0.59556404  0.39779672  0.06885505  1  -0.056448  0  -0.101222  -0.209354  0  4.010834  0
C  C44  1  0.42883665  0.60121700  0.06183291  1  0.395873  0  0.084525  0.19048  0  4.052483  0
C  C45  1  0.61608091  0.40006693  0.94128918  1  0.43297  0  0.078942  0.186889  0  4.038442  0
C  C46  1  0.50475057  0.49479460  0.12979445  1  0.005471  0  -0.017991  -0.090755  0  3.949072  0
C  C47  1  0.53773878  0.50465603  0.87302308  1  -0.030279  0  -0.017847  -0.089412  0  3.949385  0
C  C48  1  0.78203283  0.05186872  0.66665944  1  0.250779  0  -0.148497  -0.231897  0  3.975532  0
C  C49  1  0.11930850  0.94143383  0.52092050  1  0.237113  0  -0.153213  -0.228189  0  3.978058  0
C  C50  1  0.97003721  0.24075095  0.29752930  1  0.287472  0  -0.134933  -0.216058  0  3.944022  0
C  C51  1  0.11588940  0.55742375  0.80035342  1  0.230509  0  -0.140753  -0.217776  0  3.915005  0
C  C52  1  0.20763493  0.70181934  0.17743888  1  0.228739  0  -0.153906  -0.215888  0  3.975514  0
C  C53  1  0.85188952  0.31923948  0.84755118  1  0.252789  0  -0.153237  -0.221886  0  3.99231  0
N  N54  1  0.86062879  0.52870637  0.46121885  1  -1.222661  0  -0.318255  -0.348532  0  3.481788  0
N  N55  1  0.13045818  0.47388516  0.54191147  1  -1.218392  0  -0.305415  -0.338502  0  3.448283  0
N  N56  1  0.72817029  0.03963981  0.54878908  1  -1.121799  0  -0.454228  -0.28274  0  3.524417  0
N  N57  1  0.24309390  0.95119091  0.43770421  1  -1.125654  0  -0.45646  -0.280466  0  3.5086  0
N  N58  1  0.92015236  0.37492401  0.31857393  1  -1.198268  0  -0.431466  -0.284037  0  3.547648  0
N  N59  1  0.05530078  0.62859572  0.69042076  1  -1.155899  0  -0.437535  -0.290494  0  3.522896  0
N  N60  1  0.34748619  0.70857817  0.11800428  1  -1.105885  0  -0.466693  -0.330278  0  3.466589  0
N  N61  1  0.70955523  0.29751959  0.88500331  1  -1.080151  0  -0.469626  -0.336575  0  3.449148  0
O  O62  1  0.65593340  0.50078179  0.67380670  1  -1.147863  0  -0.311416  -0.546253  0  2.356016  0
O  O63  1  0.39357840  0.48441210  0.33165788  1  -1.166289  0  -0.304197  -0.550168  0  2.341479  0
O  O64  1  0.41798320  0.52514241  0.69269640  1  -1.167753  0  -0.308719  -0.555425  0  2.342593  0
O  O65  1  0.62752737  0.48386959  0.30647033  1  -1.174581  0  -0.31399  -0.557337  0  2.34241  0
O  O66  1  0.52909603  0.67818433  0.47370701  1  -1.179558  0  -0.324294  -0.570103  0  2.433265  0
O  O67  1  0.44100236  0.30987132  0.55033210  1  -1.162463  0  -0.327615  -0.565642  0  2.398668  0
O  O68  1  0.29386558  0.68454131  0.48647736  1  -1.149973  0  -0.311247  -0.524292  0  2.330477  0
O  O69  1  0.67595684  0.30490325  0.51107434  1  -1.154865  0  -0.315204  -0.533801  0  2.313858  0
F  F70  1  0.19766039  0.32049702  0.40753883  1  -0.624574  0  -0.060893  -0.108135  0  1.418968  0
F  F71  1  0.80087056  0.69361721  0.58434223  1  -0.626531  0  -0.06644  -0.11981  0  1.384734  0
