# generated using pymatgen
data_Zr3H15C26O17
_symmetry_space_group_name_H-M   'P 1'
_cell_length_a   14.75789016
_cell_length_b   14.73491816
_cell_length_c   14.75528931
_cell_angle_alpha   60.15572611
_cell_angle_beta   60.01599236
_cell_angle_gamma   60.03063155
_symmetry_Int_Tables_number   1
_chemical_formula_structural   Zr3H15C26O17
_chemical_formula_sum   'Zr6 H30 C52 O34'
_cell_volume   2272.30452802
_cell_formula_units_Z   2
loop_
 _symmetry_equiv_pos_site_id
 _symmetry_equiv_pos_as_xyz
  1  'x, y, z'
loop_
 _atom_site_type_symbol
 _atom_site_label
 _atom_site_symmetry_multiplicity
 _atom_site_fract_x
 _atom_site_fract_y
 _atom_site_fract_z
 _atom_site_occupancy
 _atom_site_pbe_bader_charge
 _atom_site_pbe_bader_spin_density
 _atom_site_pbe_cm5_charge
 _atom_site_pbe_ddec_charge
 _atom_site_pbe_ddec_spin_density
 _atom_site_pbe_ddec_sum_bond_order
 _atom_site_pbe_magmom
Zr  Zr0  1  0.87599738  0.88232204  0.62265997  1  2.634939  0  1.625435  2.373613  0  2.744805  0
Zr  Zr1  1  0.11450406  0.12345608  0.38346375  1  2.634942  0  1.625821  2.37497  0  2.752964  0
Zr  Zr2  1  0.11498967  0.88331968  0.62304970  1  2.634081  0  1.626168  2.374706  0  2.758801  0
Zr  Zr3  1  0.87567077  0.12195427  0.38363711  1  2.633088  0  1.624423  2.373067  0  2.752585  0
Zr  Zr4  1  0.11638142  0.88264324  0.38354825  1  2.634802  0  1.627083  2.373979  0  2.760904  0
Zr  Zr5  1  0.87487159  0.12306116  0.62325115  1  2.632081  0  1.622027  2.375217  0  2.738265  0
H  H6  1  0.09227945  0.71962219  0.59405862  1  0.613723  0  0.330174  0.420979  0  0.862677  0
H  H7  1  0.09211214  0.09457833  0.22043518  1  0.619995  0  0.329215  0.420135  0  0.863865  0
H  H8  1  0.08824483  0.09901462  0.59795032  1  0.609359  0  0.330573  0.423572  0  0.857817  0
H  H9  1  0.71233458  0.09702018  0.59811959  1  0.626038  0  0.332125  0.42511  0  0.853259  0
H  H10  1  0.15387902  0.39749718  0.38356601  1  0.098208  0  0.108312  0.112409  0  0.994589  0
H  H11  1  0.80817228  0.64557813  0.57757030  1  0.096203  0  0.109376  0.112113  0  0.990729  0
H  H12  1  0.15443069  0.56847408  0.38221577  1  0.088593  0  0.108785  0.113165  0  0.993548  0
H  H13  1  0.80737655  0.47486504  0.57873503  1  0.10068  0  0.108311  0.110932  0  0.993312  0
H  H14  1  0.41736144  0.14186857  0.09537003  1  0.10825  0  0.110309  0.115987  0  0.99167  0
H  H15  1  0.59827166  0.83975008  0.93548894  1  0.089255  0  0.111587  0.117947  0  0.988437  0
H  H16  1  0.58782921  0.14140010  0.92477490  1  0.083018  0  0.108495  0.112823  0  0.996003  0
H  H17  1  0.42754909  0.84050255  0.10581189  1  0.075279  0  0.109041  0.113624  0  0.994862  0
H  H18  1  0.80863410  0.07950766  0.97383749  1  0.116908  0  0.113503  0.119757  0  0.984277  0
H  H19  1  0.15637687  0.88309301  0.06647266  1  0.11325  0  0.113118  0.120482  0  0.986106  0
H  H20  1  0.80989679  0.07833391  0.14458234  1  0.124004  0  0.112999  0.123329  0  0.985871  0
H  H21  1  0.15479113  0.88393186  0.89620536  1  0.09723  0  0.113161  0.119302  0  0.987061  0
H  H22  1  0.42700558  0.60449950  0.34193681  1  0.108443  0  0.109461  0.114614  0  0.994717  0
H  H23  1  0.58833359  0.42494769  0.64130040  1  0.091677  0  0.108834  0.112978  0  0.995161  0
H  H24  1  0.59763248  0.43384237  0.34144980  1  0.065676  0  0.111107  0.116939  0  0.988962  0
H  H25  1  0.41801803  0.59586605  0.64149567  1  0.09418  0  0.110204  0.115766  0  0.991706  0
H  H26  1  0.98804949  0.57174465  0.73410253  1  0.104984  0  0.105132  0.131474  0  1.027964  0
H  H27  1  0.97490345  0.23880051  0.07615632  1  0.076055  0  0.099409  0.12245  0  1.05313  0
H  H28  1  0.03140654  0.48428610  0.15461761  1  0.09665  0  0.107451  0.114473  0  0.990437  0
H  H29  1  0.03187188  0.65402753  0.98509073  1  0.093639  0  0.106736  0.113169  0  0.991241  0
H  H30  1  0.41999048  0.84749969  0.63782635  1  0.107796  0  0.109288  0.114412  0  0.994445  0
H  H31  1  0.58947095  0.13953757  0.34919881  1  0.137731  0  0.108829  0.113447  0  0.994997  0
H  H32  1  0.59060723  0.84741802  0.63806048  1  0.101584  0  0.109888  0.114759  0  0.993429  0
H  H33  1  0.41890219  0.13957088  0.34892927  1  0.107966  0  0.109419  0.1148  0  0.993527  0
H  H34  1  0.98711748  0.33051814  0.73650601  1  0.616881  0  0.329787  0.36587  0  0.893012  0
H  H35  1  0.96881932  0.16597079  0.96576283  1  0.615111  0  0.310385  0.346938  0  0.950774  0
C  C36  1  0.98832046  0.70763420  0.49162705  1  1.546942  0  0.238267  0.639957  0  4.095346  0
C  C37  1  0.30634152  0.99685596  0.20512868  1  1.53875  0  0.236307  0.638273  0  4.10128  0
C  C38  1  0.98660946  0.31666459  0.49393123  1  1.555744  0  0.236202  0.639767  0  4.101348  0
C  C39  1  0.69765684  0.99599539  0.81393796  1  1.542587  0  0.237225  0.640452  0  4.098335  0
C  C40  1  0.99646829  0.69776004  0.80639491  1  1.540044  0  0.238439  0.653337  0  4.084258  0
C  C41  1  0.69580365  0.99781656  0.49838042  1  1.542724  0  0.236536  0.639371  0  4.100823  0
C  C42  1  0.99442389  0.30659105  0.19848752  1  1.540793  0  0.238307  0.653177  0  4.083435  0
C  C43  1  0.30387190  0.99887190  0.49854464  1  1.558421  0  0.23673  0.639448  0  4.100219  0
C  C44  1  0.30673271  0.70494945  0.49699784  1  1.539545  0  0.236815  0.638483  0  4.101276  0
C  C45  1  0.98725053  0.99394683  0.81605654  1  1.569489  0  0.237777  0.639971  0  4.104595  0
C  C46  1  0.69731440  0.31316360  0.49700098  1  1.54119  0  0.238439  0.642542  0  4.097656  0
C  C47  1  0.98971776  0.99203303  0.20686055  1  1.561173  0  0.233939  0.632864  0  4.119761  0
C  C48  1  0.98141449  0.42503761  0.48371836  1  -0.031122  0  -0.012703  -0.034791  0  3.959362  0
C  C49  1  0.98208555  0.61501522  0.48192799  1  -0.092162  0  -0.010324  -0.02907  0  3.951569  0
C  C50  1  0.07866058  0.45283295  0.42515750  1  0.004861  0  -0.080596  -0.091573  0  3.974044  0
C  C51  1  0.88323995  0.59092862  0.53495892  1  0.034607  0  -0.075433  -0.080377  0  3.959194  0
C  C52  1  0.07893910  0.54734709  0.42427355  1  -0.029894  0  -0.079997  -0.089499  0  3.970477  0
C  C53  1  0.88288060  0.49619908  0.53587643  1  -0.030532  0  -0.079111  -0.089385  0  3.96578  0
C  C54  1  0.41201146  0.99222435  0.10883000  1  -0.057113  0  -0.012448  -0.034009  0  3.960478  0
C  C55  1  0.60134465  0.99159476  0.91963985  1  0.064605  0  -0.012624  -0.035047  0  3.959132  0
C  C56  1  0.45787294  0.07620390  0.05962679  1  -0.021569  0  -0.079674  -0.091264  0  3.969116  0
C  C57  1  0.55778125  0.90545073  0.97119507  1  -0.027918  0  -0.078256  -0.089499  0  3.965005  0
C  C58  1  0.55206604  0.07586901  0.96544835  1  -0.067278  0  -0.080546  -0.092085  0  3.973074  0
C  C59  1  0.46348623  0.90587199  0.06533188  1  -0.032152  0  -0.079022  -0.089989  0  3.970622  0
C  C60  1  0.98253415  0.98414634  0.92412009  1  -0.022554  0  -0.008453  -0.026568  0  3.944032  0
C  C61  1  0.98425727  0.98332955  0.11303582  1  -0.042455  0  -0.014249  -0.043621  0  3.97332  0
C  C62  1  0.88416455  0.03666226  0.99502562  1  -0.04764  0  -0.074978  -0.084859  0  3.956172  0
C  C63  1  0.08087261  0.92540828  0.04537926  1  -0.06969  0  -0.077819  -0.091024  0  3.966604  0
C  C64  1  0.88493264  0.03640175  0.08930377  1  -0.079521  0  -0.08198  -0.116037  0  3.978936  0
C  C65  1  0.07991203  0.92583524  0.95148212  1  0.004203  0  -0.075687  -0.086421  0  3.959282  0
C  C66  1  0.41218955  0.60845053  0.49265045  1  -0.107282  0  -0.011679  -0.031794  0  3.95962  0
C  C67  1  0.60117838  0.41895268  0.49243976  1  0.038138  0  -0.012389  -0.036159  0  3.962095  0
C  C68  1  0.46325739  0.56435307  0.40688819  1  -0.004694  0  -0.078945  -0.09226  0  3.970835  0
C  C69  1  0.55229919  0.46530616  0.57613230  1  -0.079689  0  -0.079941  -0.090643  0  3.972481  0
C  C70  1  0.55742408  0.47004221  0.40667558  1  0.007191  0  -0.077613  -0.086742  0  3.964905  0
C  C71  1  0.45824052  0.55966678  0.57627017  1  0.010298  0  -0.079066  -0.091265  0  3.969479  0
C  C72  1  0.00155245  0.59221493  0.90228585  1  -0.042006  0  -0.013203  -0.077046  0  3.936059  0
C  C73  1  0.99038042  0.50073552  0.90336209  1  0.002814  0  -0.004609  0.06615  0  3.984147  0
C  C74  1  0.01892320  0.58470291  0.99031340  1  -0.051141  0  -0.089842  -0.104708  0  4.018963  0
C  C75  1  0.98918757  0.49915187  0.80854188  1  0.030252  0  -0.11255  -0.256994  0  3.968307  0
C  C76  1  0.98908271  0.40576602  0.80881595  1  0.476547  0  0.072281  0.224245  0  4.103357  0
C  C77  1  0.99920627  0.40261898  0.09317297  1  -0.053148  0  -0.014319  -0.079086  0  3.935866  0
C  C78  1  0.01834267  0.48992678  0.08524432  1  0.011193  0  -0.089875  -0.105079  0  4.016442  0
C  C79  1  0.98772117  0.40408807  0.00182306  1  0.024954  0  -0.005884  0.071875  0  3.977482  0
C  C80  1  0.98176073  0.31088839  0.00128649  1  0.025976  0  -0.122209  -0.281526  0  4.011614  0
C  C81  1  0.98430647  0.31117567  0.90674274  1  0.42659  0  0.064217  0.200452  0  4.134428  0
C  C82  1  0.40910418  0.99461247  0.49442286  1  0.055213  0  -0.012329  -0.033357  0  3.95845  0
C  C83  1  0.59852503  0.99423645  0.49444800  1  0.013861  0  -0.013343  -0.036059  0  3.963623  0
C  C84  1  0.45795576  0.91089658  0.57518939  1  -0.109303  0  -0.079682  -0.091639  0  3.969953  0
C  C85  1  0.55165190  0.07598421  0.41170622  1  -0.063821  0  -0.080525  -0.091809  0  3.97331  0
C  C86  1  0.55221410  0.91075005  0.57522742  1  -0.023384  0  -0.079447  -0.090447  0  3.969886  0
C  C87  1  0.45740365  0.07613674  0.41165044  1  -0.110026  0  -0.079745  -0.091831  0  3.97117  0
O  O88  1  0.91336528  0.74377893  0.57171484  1  -1.184103  0  -0.352438  -0.618214  0  2.278541  0
O  O89  1  0.26375983  0.07654274  0.24227034  1  -1.177343  0  -0.354419  -0.618703  0  2.283992  0
O  O90  1  0.06770446  0.27155298  0.42208061  1  -1.18512  0  -0.359903  -0.623573  0  2.29759  0
O  O91  1  0.73558567  0.92076059  0.77236384  1  -1.177354  0  -0.353486  -0.616904  0  2.277795  0
O  O92  1  0.06991112  0.74079049  0.77032690  1  -1.174151  0  -0.356365  -0.622313  0  2.265034  0
O  O93  1  0.73365779  0.07653995  0.42322224  1  -1.18105  0  -0.357002  -0.621891  0  2.287816  0
O  O94  1  0.91720932  0.26659957  0.23914353  1  -1.179316  0  -0.357972  -0.62132  0  2.283514  0
O  O95  1  0.26199700  0.92436626  0.57794317  1  -1.186599  0  -0.355666  -0.620087  0  2.286989  0
O  O96  1  0.26484933  0.74152652  0.42255741  1  -1.182636  0  -0.356312  -0.620951  0  2.285623  0
O  O97  1  0.91248568  0.07444988  0.77550837  1  -1.188199  0  -0.34909  -0.615243  0  2.258891  0
O  O98  1  0.73339608  0.27063816  0.57721499  1  -1.178508  0  -0.357312  -0.622612  0  2.290905  0
O  O99  1  0.07156624  0.92113398  0.24083137  1  -1.184717  0  -0.351362  -0.611196  0  2.290823  0
O  O100  1  0.06860617  0.92209637  0.77138046  1  -1.182899  0  -0.356023  -0.619612  0  2.295857  0
O  O101  1  0.73506266  0.27128127  0.42208716  1  -1.176511  0  -0.354782  -0.618451  0  2.281196  0
O  O102  1  0.91410020  0.07204037  0.24274226  1  -1.17945  0  -0.351084  -0.620341  0  2.284639  0
O  O103  1  0.26436597  0.74254403  0.57623284  1  -1.176401  0  -0.354942  -0.618427  0  2.287244  0
O  O104  1  0.91892135  0.73829794  0.76704850  1  -1.172978  0  -0.35551  -0.620873  0  2.281325  0
O  O105  1  0.26216297  0.07803140  0.42394091  1  -1.187636  0  -0.354628  -0.619532  0  2.28325  0
O  O106  1  0.06808748  0.27065159  0.24102871  1  -1.171342  0  -0.354095  -0.619499  0  2.264606  0
O  O107  1  0.73270746  0.92336288  0.57767620  1  -1.181687  0  -0.353734  -0.61812  0  2.286622  0
O  O108  1  0.73361343  0.07646948  0.77131098  1  -1.176302  0  -0.357106  -0.622788  0  2.290465  0
O  O109  1  0.07071711  0.74163457  0.42133286  1  -1.187181  0  -0.358771  -0.624216  0  2.291057  0
O  O110  1  0.26457466  0.92214112  0.24187848  1  -1.18002  0  -0.356638  -0.621798  0  2.285638  0
O  O111  1  0.91261223  0.27490173  0.57510570  1  -1.195058  0  -0.354084  -0.622127  0  2.256829  0
O  O112  1  0.79283260  0.07007024  0.57103739  1  -1.251304  0  -0.693079  -1.067309  0  2.354791  0
O  O113  1  0.06114518  0.07172892  0.57177650  1  -1.237714  0  -0.69232  -1.068418  0  2.348763  0
O  O114  1  0.06332534  0.06927571  0.30078999  1  -1.251474  0  -0.694989  -1.070429  0  2.365758  0
O  O115  1  0.06378242  0.80008511  0.56960312  1  -1.243649  0  -0.694757  -1.069277  0  2.365938  0
O  O116  1  0.14472867  0.95366274  0.45372015  1  -1.196273  0  -0.792018  -1.15126  0  2.128014  0
O  O117  1  0.94612035  0.95265942  0.45320517  1  -1.2021  0  -0.790566  -1.148126  0  2.122133  0
O  O118  1  0.94520270  0.15174395  0.45383126  1  -1.194447  0  -0.791238  -1.14748  0  2.128513  0
O  O119  1  0.94564549  0.95337677  0.65175746  1  -1.196094  0  -0.790321  -1.148034  0  2.125151  0
O  O120  1  0.99289983  0.40197871  0.71660149  1  -1.120251  0  -0.343125  -0.424691  0  2.315163  0
O  O121  1  0.98316946  0.22539794  0.89483703  1  -1.155046  0  -0.361217  -0.462295  0  2.355581  0
