# generated using pymatgen
data_KH3C3(N2O3)2
_symmetry_space_group_name_H-M   'P 1'
_cell_length_a   7.81814324
_cell_length_b   8.65834104
_cell_length_c   11.64496469
_cell_angle_alpha   81.07702204
_cell_angle_beta   77.93767967
_cell_angle_gamma   82.12261559
_symmetry_Int_Tables_number   1
_chemical_formula_structural   KH3C3(N2O3)2
_chemical_formula_sum   'K4 H12 C12 N16 O24'
_cell_volume   757.05879170
_cell_formula_units_Z   4
loop_
 _symmetry_equiv_pos_site_id
 _symmetry_equiv_pos_as_xyz
  1  'x, y, z'
loop_
 _atom_site_type_symbol
 _atom_site_label
 _atom_site_symmetry_multiplicity
 _atom_site_fract_x
 _atom_site_fract_y
 _atom_site_fract_z
 _atom_site_occupancy
 _atom_site_hle17_bader_spin_density
 _atom_site_hle17_ddec_charge
 _atom_site_hle17_ddec_spin_density
 _atom_site_hle17_ddec_sum_bond_order
 _atom_site_hle17_magmom
 _atom_site_hse06_10hf_bader_spin_density
 _atom_site_hse06_10hf_ddec_charge
 _atom_site_hse06_10hf_ddec_spin_density
 _atom_site_hse06_10hf_ddec_sum_bond_order
 _atom_site_hse06_10hf_magmom
 _atom_site_hse06_bader_spin_density
 _atom_site_hse06_ddec_charge
 _atom_site_hse06_ddec_spin_density
 _atom_site_hse06_ddec_sum_bond_order
 _atom_site_hse06_magmom
 _atom_site_pbe_bader_spin_density
 _atom_site_pbe_cm5_charge
 _atom_site_pbe_ddec_charge
 _atom_site_pbe_ddec_spin_density
 _atom_site_pbe_ddec_sum_bond_order
 _atom_site_pbe_magmom
K  K0  1  0.44477539  0.64152841  0.32208449  1  0  0.937137  0  0.444033  0  0  0.884708  0  0.635537  0  0  0.900324  0  0.611224  0  0  0.810684  0.873092  0  0.652959  0
K  K1  1  0.55521848  0.35847462  0.67791554  1  0  0.937138  0  0.444011  0  0  0.884703  0  0.63554  0  0  0.900332  0  0.611205  0  0  0.810669  0.873078  0  0.652961  0
K  K2  1  0.05543247  0.35888469  0.17754652  1  0  0.937205  0  0.443997  0  0  0.88463  0  0.635599  0  0  0.900373  0  0.611062  0  0  0.810577  0.873024  0  0.653009  0
K  K3  1  0.94456679  0.64110662  0.82245676  1  0  0.937195  0  0.444009  0  0  0.884607  0  0.635626  0  0  0.90034  0  0.611104  0  0  0.810562  0.873006  0  0.653037  0
H  H4  1  0.74110634  0.95862208  0.57685686  1  0  0.330377  0  0.888541  0  0  0.303685  0  0.962852  0  0  0.31271  0  0.954886  0  0  0.324803  0.297257  0  0.968645  0
H  H5  1  0.25889409  0.04138099  0.42314146  1  0  0.330362  0  0.888632  0  0  0.303704  0  0.962919  0  0  0.312723  0  0.954955  0  0  0.324816  0.29727  0  0.968724  0
H  H6  1  0.23285336  0.88035657  0.71032888  1  0  0.35329  0  0.914674  0  0  0.330959  0  0.982792  0  0  0.340156  0  0.974736  0  0  0.303424  0.324462  0  0.988488  0
H  H7  1  0.76714455  0.11964532  0.28967248  1  0  0.353289  0  0.91463  0  0  0.330947  0  0.982751  0  0  0.340148  0  0.974692  0  0  0.303427  0.324448  0  0.988439  0
H  H8  1  0.37971071  0.74147464  0.62615719  1  0  0.350302  0  0.903729  0  0  0.33103  0  0.965502  0  0  0.340194  0  0.957129  0  0  0.317932  0.324555  0  0.971451  0
H  H9  1  0.62028710  0.25852842  0.37384146  1  0  0.350249  0  0.903712  0  0  0.330964  0  0.965502  0  0  0.340128  0  0.957126  0  0  0.317885  0.324487  0  0.97145  0
H  H10  1  0.75863720  0.04183682  0.92273894  1  0  0.330903  0  0.888427  0  0  0.30362  0  0.963386  0  0  0.312724  0  0.955364  0  0  0.324703  0.297151  0  0.969236  0
H  H11  1  0.24136503  0.95816272  0.07725783  1  0  0.330903  0  0.888342  0  0  0.303711  0  0.963231  0  0  0.312818  0  0.955196  0  0  0.324736  0.297238  0  0.969084  0
H  H12  1  0.26754075  0.11886777  0.79021239  1  0  0.353061  0  0.914729  0  0  0.330559  0  0.983074  0  0  0.339733  0  0.975036  0  0  0.303092  0.324071  0  0.988748  0
H  H13  1  0.73246338  0.88112708  0.20978555  1  0  0.353057  0  0.914764  0  0  0.330558  0  0.983102  0  0  0.339734  0  0.97506  0  0  0.303087  0.32407  0  0.988775  0
H  H14  1  0.12088276  0.25786037  0.87432281  1  0  0.352041  0  0.901825  0  0  0.332529  0  0.963939  0  0  0.341707  0  0.95549  0  0  0.318678  0.326053  0  0.96991  0
H  H15  1  0.87911750  0.74213330  0.12568006  1  0  0.352063  0  0.901777  0  0  0.33257  0  0.963853  0  0  0.341746  0  0.95541  0  0  0.318685  0.326095  0  0.969827  0
C  C16  1  0.87741438  0.72264289  0.46220310  1  0  -0.129959  0  3.447974  0  0  -0.174226  0  3.726225  0  0  -0.189417  0  3.739178  0  0  0.155612  -0.164845  0  3.718094  0
C  C17  1  0.12258244  0.27735780  0.53779596  1  0  -0.129841  0  3.448074  0  0  -0.174072  0  3.726277  0  0  -0.18926  0  3.739237  0  0  0.155625  -0.164698  0  3.71815  0
C  C18  1  0.69602320  0.74635982  0.53044402  1  0  0.584499  0  3.829003  0  0  0.531608  0  4.128192  0  0  0.565546  0  4.124739  0  0  0.253368  0.508824  0  4.130015  0
C  C19  1  0.30397432  0.25364559  0.46955440  1  0  0.584338  0  3.829173  0  0  0.531438  0  4.128433  0  0  0.565363  0  4.124984  0  0  0.253277  0.508648  0  4.130269  0
C  C20  1  0.48360850  0.93507752  0.64619654  1  0  0.818722  0  3.837657  0  0  0.749145  0  4.144116  0  0  0.78456  0  4.138638  0  0  0.337065  0.725148  0  4.147133  0
C  C21  1  0.51639139  0.06492910  0.35380486  1  0  0.818771  0  3.837439  0  0  0.749225  0  4.14389  0  0  0.784628  0  4.138416  0  0  0.337114  0.725219  0  4.146915  0
C  C22  1  0.62303394  0.27753850  0.03789291  1  0  -0.121618  0  3.45291  0  0  -0.174097  0  3.726032  0  0  -0.189088  0  3.738724  0  0  0.155845  -0.16477  0  3.717956  0
C  C23  1  0.37697378  0.72245760  0.96211214  1  0  -0.121749  0  3.452977  0  0  -0.173965  0  3.726102  0  0  -0.188955  0  3.738796  0  0  0.155917  -0.164641  0  3.718018  0
C  C24  1  0.80435869  0.25354718  0.96967498  1  0  0.58234  0  3.830671  0  0  0.530535  0  4.128689  0  0  0.564383  0  4.125348  0  0  0.252846  0.507804  0  4.130467  0
C  C25  1  0.19565279  0.74645012  0.03032944  1  0  0.582538  0  3.830607  0  0  0.530601  0  4.128765  0  0  0.564451  0  4.125423  0  0  0.252936  0.50787  0  4.130551  0
C  C26  1  0.01653073  0.06465515  0.85395353  1  0  0.818639  0  3.838677  0  0  0.74925  0  4.144578  0  0  0.784674  0  4.139129  0  0  0.337263  0.725266  0  4.147585  0
C  C27  1  0.98347520  0.93534561  0.14604606  1  0  0.818857  0  3.838435  0  0  0.749367  0  4.144476  0  0  0.78479  0  4.139029  0  0  0.337305  0.725375  0  4.147489  0
N  N28  1  0.92324227  0.61049927  0.38318019  1  0  0.491125  0  4.017027  0  0  0.546498  0  4.278981  0  0  0.569956  0  4.289795  0  0  0.010821  0.530896  0  4.271591  0
N  N29  1  0.07675456  0.38950142  0.61681802  1  0  0.491072  0  4.017111  0  0  0.546439  0  4.279066  0  0  0.569894  0  4.289883  0  0  0.010839  0.53084  0  4.271674  0
N  N30  1  0.01418089  0.79891675  0.48314702  1  0  0.512358  0  3.961921  0  0  0.538458  0  4.267536  0  0  0.562428  0  4.275385  0  0  0.024873  0.52252  0  4.262176  0
N  N31  1  0.98581595  0.20108394  0.51685119  1  0  0.51227  0  3.962019  0  0  0.538388  0  4.267606  0  0  0.562354  0  4.275458  0  0  0.024903  0.522454  0  4.26224  0
N  N32  1  0.64922174  0.88320293  0.58138520  1  0  -0.543974  0  3.243434  0  0  -0.482637  0  3.486938  0  0  -0.508532  0  3.487409  0  0  -0.393669  -0.465028  0  3.486231  0
N  N33  1  0.35077405  0.11679540  0.41861513  1  0  -0.543828  0  3.243278  0  0  -0.482618  0  3.486903  0  0  -0.508479  0  3.487349  0  0  -0.39358  -0.464997  0  3.486208  0
N  N34  1  0.35400068  0.84421480  0.66204245  1  0  -0.72666  0  3.091038  0  0  -0.693007  0  3.336516  0  0  -0.716644  0  3.328526  0  0  -0.574154  -0.676784  0  3.341865  0
N  N35  1  0.64599527  0.15578236  0.33795800  1  0  -0.726568  0  3.091208  0  0  -0.692864  0  3.336648  0  0  -0.716504  0  3.328667  0  0  -0.574048  -0.676638  0  3.341986  0
N  N36  1  0.57713811  0.39017196  0.11655309  1  0  0.489747  0  4.014846  0  0  0.543466  0  4.280651  0  0  0.566871  0  4.29143  0  0  0.008614  0.527885  0  4.273275  0
N  N37  1  0.42286490  0.60983113  0.88344661  1  0  0.489883  0  4.014893  0  0  0.543408  0  4.280897  0  0  0.566811  0  4.291678  0  0  0.008596  0.527837  0  4.273505  0
N  N38  1  0.48620111  0.20097121  0.01736692  1  0  0.489244  0  3.996339  0  0  0.541456  0  4.262462  0  0  0.565414  0  4.270247  0  0  0.026572  0.525518  0  4.257147  0
N  N39  1  0.51380444  0.79903192  0.98263502  1  0  0.489458  0  3.995987  0  0  0.541375  0  4.262473  0  0  0.565331  0  4.270259  0  0  0.026476  0.525442  0  4.257163  0
N  N40  1  0.85081456  0.11685795  0.91847660  1  0  -0.543868  0  3.243522  0  0  -0.482562  0  3.486847  0  0  -0.508592  0  3.48735  0  0  -0.393576  -0.464921  0  3.486195  0
N  N41  1  0.14918805  0.88313809  0.08152397  1  0  -0.543926  0  3.243389  0  0  -0.482673  0  3.486719  0  0  -0.508697  0  3.487205  0  0  -0.393662  -0.465024  0  3.486063  0
N  N42  1  0.14644195  0.15503843  0.83854837  1  0  -0.727751  0  3.09158  0  0  -0.693867  0  3.336752  0  0  -0.717502  0  3.328815  0  0  -0.574691  -0.677621  0  3.342039  0
N  N43  1  0.85355564  0.84495638  0.16145042  1  0  -0.727894  0  3.091293  0  0  -0.693989  0  3.336528  0  0  -0.717625  0  3.328593  0  0  -0.57475  -0.677742  0  3.341823  0
O  O44  1  0.80402328  0.55544031  0.34926230  1  0  -0.434759  0  1.796127  0  0  -0.43141  0  2.016273  0  0  -0.44358  0  2.010571  0  0  -0.216249  -0.42297  0  2.020138  0
O  O45  1  0.19597486  0.44456039  0.65073573  1  0  -0.434811  0  1.796058  0  0  -0.431459  0  2.016216  0  0  -0.443631  0  2.010514  0  0  -0.216291  -0.423022  0  2.020085  0
O  O46  1  0.08294878  0.56141035  0.34909335  1  0  -0.466997  0  1.807358  0  0  -0.470291  0  2.036499  0  0  -0.484996  0  2.033435  0  0  -0.23722  -0.460121  0  2.038483  0
O  O47  1  0.91704803  0.43859035  0.65090571  1  0  -0.466941  0  1.807367  0  0  -0.470229  0  2.036509  0  0  -0.484936  0  2.03345  0  0  -0.23722  -0.460059  0  2.038486  0
O  O48  1  0.99621472  0.84264865  0.58374317  1  0  -0.416454  0  1.786333  0  0  -0.402067  0  2.017672  0  0  -0.414543  0  2.01261  0  0  -0.173877  -0.393434  0  2.021073  0
O  O49  1  0.00378459  0.15735323  0.41625371  1  0  -0.416396  0  1.786409  0  0  -0.402031  0  2.017749  0  0  -0.414509  0  2.012694  0  0  -0.173894  -0.393398  0  2.021146  0
O  O50  1  0.14534402  0.82656639  0.40359983  1  0  -0.409488  0  1.808157  0  0  -0.396672  0  2.041208  0  0  -0.40794  0  2.034081  0  0  -0.20288  -0.388825  0  2.046097  0
O  O51  1  0.85465125  0.17343664  0.59639659  1  0  -0.409486  0  1.808193  0  0  -0.396682  0  2.041255  0  0  -0.407959  0  2.034146  0  0  -0.202872  -0.388837  0  2.046143  0
O  O52  1  0.58862677  0.64911006  0.53852252  1  0  -0.58886  0  2.002543  0  0  -0.552149  0  2.240565  0  0  -0.573305  0  2.231726  0  0  -0.360392  -0.537442  0  2.246248  0
O  O53  1  0.41136584  0.35089295  0.46147596  1  0  -0.588838  0  2.002785  0  0  -0.5521  0  2.240809  0  0  -0.573256  0  2.231977  0  0  -0.360401  -0.537396  0  2.246501  0
O  O54  1  0.46755369  0.06524110  0.68361443  1  0  -0.660505  0  1.926304  0  0  -0.613537  0  2.161123  0  0  -0.636827  0  2.151721  0  0  -0.379783  -0.597229  0  2.16707  0
O  O55  1  0.53244500  0.93475491  0.31638665  1  0  -0.660627  0  1.925887  0  0  -0.613663  0  2.160688  0  0  -0.636955  0  2.151294  0  0  -0.379903  -0.597354  0  2.166637  0
O  O56  1  0.69624501  0.44571157  0.15021040  1  0  -0.434473  0  1.795113  0  0  -0.43068  0  2.016024  0  0  -0.44286  0  2.010362  0  0  -0.21579  -0.422245  0  2.019885  0
O  O57  1  0.30375432  0.55429974  0.84978882  1  0  -0.434493  0  1.795128  0  0  -0.43062  0  2.016128  0  0  -0.442801  0  2.010469  0  0  -0.215726  -0.422185  0  2.019978  0
O  O58  1  0.41739542  0.43917342  0.15054974  1  0  -0.466069  0  1.807607  0  0  -0.468604  0  2.037147  0  0  -0.483373  0  2.034233  0  0  -0.236234  -0.458433  0  2.039112  0
O  O59  1  0.58260634  0.56082966  0.84944754  1  0  -0.466171  0  1.807614  0  0  -0.468662  0  2.03722  0  0  -0.483432  0  2.034305  0  0  -0.236325  -0.458489  0  2.039173  0
O  O60  1  0.35537355  0.17330077  0.09718540  1  0  -0.401672  0  1.81769  0  0  -0.397323  0  2.038344  0  0  -0.408583  0  2.031207  0  0  -0.20335  -0.389487  0  2.043224  0
O  O61  1  0.64462940  0.82670234  0.90281688  1  0  -0.401735  0  1.817533  0  0  -0.397315  0  2.038323  0  0  -0.408564  0  2.03117  0  0  -0.203352  -0.389485  0  2.043208  0
O  O62  1  0.50379451  0.15702039  0.91687909  1  0  -0.408359  0  1.797117  0  0  -0.402904  0  2.017039  0  0  -0.415357  0  2.011891  0  0  -0.173785  -0.394275  0  2.02046  0
O  O63  1  0.49620669  0.84298624  0.08312214  1  0  -0.408388  0  1.797049  0  0  -0.402822  0  2.017056  0  0  -0.415281  0  2.011923  0  0  -0.173696  -0.394191  0  2.020478  0
O  O64  1  0.91206096  0.35047047  0.96179144  1  0  -0.588853  0  2.004397  0  0  -0.552465  0  2.241986  0  0  -0.573648  0  2.233187  0  0  -0.361468  -0.537761  0  2.247667  0
O  O65  1  0.08794360  0.64951972  0.03821471  1  0  -0.588981  0  2.004268  0  0  -0.552556  0  2.241905  0  0  -0.573745  0  2.233112  0  0  -0.361469  -0.537848  0  2.247585  0
O  O66  1  0.03238489  0.93457528  0.81638884  1  0  -0.660682  0  1.926339  0  0  -0.613634  0  2.160731  0  0  -0.636958  0  2.151396  0  0  -0.379642  -0.597329  0  2.166684  0
O  O67  1  0.96761462  0.06541483  0.18361025  1  0  -0.660764  0  1.926405  0  0  -0.613687  0  2.160872  0  0  -0.637012  0  2.151537  0  0  -0.379677  -0.597379  0  2.166825  0
