# generated using pymatgen
data_DyH11C10N2O9
_symmetry_space_group_name_H-M   'P 1'
_cell_length_a   6.49079572
_cell_length_b   9.43690564
_cell_length_c   11.55627540
_cell_angle_alpha   116.98092029
_cell_angle_beta   97.26028729
_cell_angle_gamma   103.26386016
_symmetry_Int_Tables_number   1
_chemical_formula_structural   DyH11C10N2O9
_chemical_formula_sum   'Dy2 H22 C20 N4 O18'
_cell_volume   591.91389799
_cell_formula_units_Z   2
loop_
 _symmetry_equiv_pos_site_id
 _symmetry_equiv_pos_as_xyz
  1  'x, y, z'
loop_
 _atom_site_type_symbol
 _atom_site_label
 _atom_site_symmetry_multiplicity
 _atom_site_fract_x
 _atom_site_fract_y
 _atom_site_fract_z
 _atom_site_occupancy
 _atom_site_pbe_bader_spin_density
 _atom_site_pbe_cm5_charge
 _atom_site_pbe_ddec_charge
 _atom_site_pbe_ddec_spin_density
 _atom_site_pbe_ddec_sum_bond_order
 _atom_site_pbe_magmom
Dy  Dy0  1  0.36269809  0.29071098  0.68386726  1  0  1.469253  2.073242  0  2.127514  0
Dy  Dy1  1  0.63730341  0.70929624  0.31613828  1  0  1.469308  2.073381  0  2.127432  0
H  H2  1  0.59075395  0.39776777  0.53759935  1  0  0.286712  0.369322  0  0.993241  0
H  H3  1  0.40924683  0.60222813  0.46239491  1  0  0.286715  0.369355  0  0.993197  0
H  H4  1  0.24770303  0.55503720  0.61859607  1  0  0.306109  0.398918  0  0.93138  0
H  H5  1  0.75229780  0.44495870  0.38139905  1  0  0.306103  0.398817  0  0.931503  0
H  H6  1  0.05621523  0.44064537  0.64309661  1  0  0.309444  0.391638  0  0.935128  0
H  H7  1  0.94378062  0.55934683  0.35689251  1  0  0.309479  0.391654  0  0.9351  0
H  H8  1  0.86639417  0.60214060  0.74673586  1  0  0.314871  0.299886  0  0.982923  0
H  H9  1  0.13360477  0.39785783  0.25326186  1  0  0.314891  0.299899  0  0.982916  0
H  H10  1  0.57294354  0.57105196  0.64547399  1  0  0.299012  0.381131  0  0.965208  0
H  H11  1  0.42706233  0.42894897  0.35451813  1  0  0.299025  0.381131  0  0.965181  0
H  H12  1  0.30547888  0.06432979  0.86071821  1  0  0.322042  0.30428  0  0.950823  0
H  H13  1  0.69451984  0.93567496  0.13928364  1  0  0.32206  0.304296  0  0.950894  0
H  H14  1  0.05175074  0.77873485  0.65539684  1  0  0.138445  0.105212  0  1.043858  0
H  H15  1  0.94825129  0.22126355  0.34460103  1  0  0.138425  0.105209  0  1.043881  0
H  H16  1  0.42729443  0.20040680  0.14482480  1  0  0.101739  0.127942  0  1.043759  0
H  H17  1  0.57270806  0.79959287  0.85517185  1  0  0.101703  0.127944  0  1.043814  0
H  H18  1  0.95092046  0.61700162  0.01040290  1  0  0.106667  0.114662  0  1.016219  0
H  H19  1  0.04906956  0.38300069  0.98960014  1  0  0.106665  0.114666  0  1.016177  0
H  H20  1  0.21670446  0.92486521  0.53155697  1  0  0.328875  0.419865  0  0.873961  0
H  H21  1  0.78330996  0.07513931  0.46845083  1  0  0.328829  0.419834  0  0.873966  0
H  H22  1  0.00830648  0.95372961  0.58791642  1  0  0.302362  0.385794  0  0.960775  0
H  H23  1  0.99170605  0.04627499  0.41208439  1  0  0.302384  0.385775  0  0.960776  0
C  C24  1  0.49071595  0.41912356  0.00351214  1  0  0.208076  0.480517  0  4.262426  0
C  C25  1  0.50926240  0.58087386  0.99648494  1  0  0.208008  0.480555  0  4.262699  0
C  C26  1  0.15942982  0.79410254  0.26898430  1  0  0.23593  0.667825  0  4.13117  0
C  C27  1  0.84056590  0.20589842  0.73102027  1  0  0.235974  0.667911  0  4.131639  0
C  C28  1  0.08316982  0.81411465  0.76039603  1  0  0.153078  0.148341  0  3.889886  0
C  C29  1  0.91683182  0.18588628  0.23960365  1  0  0.153107  0.14836  0  3.88993  0
C  C30  1  0.22014384  0.95696440  0.98434736  1  0  0.092488  0.14561  0  4.046275  0
C  C31  1  0.77986882  0.04303009  0.01564873  1  0  0.092383  0.145579  0  4.04668  0
C  C32  1  0.32292272  0.07588882  0.11699002  1  0  -0.120305  -0.230586  0  3.993041  0
C  C33  1  0.67707991  0.92411083  0.88300923  1  0  -0.120193  -0.230619  0  3.993616  0
C  C34  1  0.28062648  0.03139749  0.21711810  1  0  -0.050445  -0.124074  0  4.07  0
C  C35  1  0.71937155  0.96860221  0.78288179  1  0  -0.050465  -0.124095  0  4.070882  0
C  C36  1  0.36046071  0.15714974  0.35687221  1  0  0.172819  0.527809  0  4.16634  0
C  C37  1  0.63955671  0.84285857  0.64313287  1  0  0.172904  0.52761  0  4.167469  0
C  C38  1  0.15296286  0.86179879  0.17473872  1  0  -0.015083  -0.053175  0  3.963984  0
C  C39  1  0.84703409  0.13820847  0.82526831  1  0  -0.015106  -0.053269  0  3.964425  0
C  C40  1  0.04486942  0.74541580  0.04046007  1  0  -0.093956  -0.184531  0  3.966626  0
C  C41  1  0.95512874  0.25458769  0.95954127  1  0  -0.094038  -0.184526  0  3.966726  0
C  C42  1  0.07559522  0.79551652  0.94505040  1  0  0.092197  0.141116  0  4.007888  0
C  C43  1  0.92439819  0.20447942  0.05495040  1  0  0.092291  0.141137  0  4.007977  0
N  N44  1  0.21968869  0.96166169  0.86542053  1  0  -0.370114  -0.25292  0  3.608975  0
N  N45  1  0.78030957  0.03833170  0.13457523  1  0  -0.370144  -0.252963  0  3.609007  0
N  N46  1  0.00102437  0.71158198  0.80663934  1  0  -0.379339  -0.268946  0  3.6686  0
N  N47  1  0.99897882  0.28841512  0.19336157  1  0  -0.379382  -0.268984  0  3.668787  0
O  O48  1  0.28258962  0.13510310  0.44928182  1  0  -0.427677  -0.719005  0  2.38158  0
O  O49  1  0.71741733  0.86490282  0.55072006  1  0  -0.427722  -0.718999  0  2.382122  0
O  O50  1  0.43773443  0.28332427  0.89118194  1  0  -0.356844  -0.610026  0  2.351958  0
O  O51  1  0.56224686  0.71666798  0.10882372  1  0  -0.356794  -0.610047  0  2.351866  0
O  O52  1  0.52898286  0.43598023  0.12024914  1  0  -0.370958  -0.59645  0  2.292747  0
O  O53  1  0.47101013  0.56401691  0.87976334  1  0  -0.370858  -0.596312  0  2.293153  0
O  O54  1  0.34432439  0.80534759  0.33123781  1  0  -0.414135  -0.670459  0  2.304195  0
O  O55  1  0.65567870  0.19465960  0.66876867  1  0  -0.414123  -0.670464  0  2.304482  0
O  O56  1  0.51769286  0.29804228  0.39323617  1  0  -0.338953  -0.585658  0  2.28737  0
O  O57  1  0.48231281  0.70195734  0.60676237  1  0  -0.338986  -0.585675  0  2.287539  0
O  O58  1  0.16961056  0.43870181  0.59477435  1  0  -0.62063  -0.816307  0  2.083177  0
O  O59  1  0.83038808  0.56129286  0.40521846  1  0  -0.620662  -0.816239  0  2.083332  0
O  O60  1  0.97948216  0.71807558  0.28077132  1  0  -0.418048  -0.700069  0  2.328793  0
O  O61  1  0.02049798  0.28192312  0.71922029  1  0  -0.418129  -0.700153  0  2.328969  0
O  O62  1  0.17215455  0.99851149  0.60880150  1  0  -0.618209  -0.820309  0  2.096986  0
O  O63  1  0.82785068  0.00149447  0.39119684  1  0  -0.618191  -0.820268  0  2.09687  0
O  O64  1  0.61985377  0.47559465  0.64295899  1  0  -0.645434  -0.850549  0  2.186821  0
O  O65  1  0.38014790  0.52441008  0.35704041  1  0  -0.645455  -0.850551  0  2.186814  0
