# generated using pymatgen
data_CuH18C10(NO)6
_symmetry_space_group_name_H-M   'P 1'
_cell_length_a   8.24357639
_cell_length_b   10.48841322
_cell_length_c   11.06820508
_cell_angle_alpha   116.69343220
_cell_angle_beta   111.89615896
_cell_angle_gamma   89.99085605
_symmetry_Int_Tables_number   1
_chemical_formula_structural   CuH18C10(NO)6
_chemical_formula_sum   'Cu2 H36 C20 N12 O12'
_cell_volume   776.97334210
_cell_formula_units_Z   2
loop_
 _symmetry_equiv_pos_site_id
 _symmetry_equiv_pos_as_xyz
  1  'x, y, z'
loop_
 _atom_site_type_symbol
 _atom_site_label
 _atom_site_symmetry_multiplicity
 _atom_site_fract_x
 _atom_site_fract_y
 _atom_site_fract_z
 _atom_site_occupancy
 _atom_site_hle17_ddec_charge
 _atom_site_hle17_ddec_spin_density
 _atom_site_hle17_ddec_sum_bond_order
 _atom_site_hle17_magmom
 _atom_site_hse06_10hf_ddec_charge
 _atom_site_hse06_10hf_ddec_spin_density
 _atom_site_hse06_10hf_ddec_sum_bond_order
 _atom_site_hse06_10hf_magmom
 _atom_site_hse06_ddec_charge
 _atom_site_hse06_ddec_spin_density
 _atom_site_hse06_ddec_sum_bond_order
 _atom_site_hse06_magmom
 _atom_site_pbe_cm5_charge
 _atom_site_pbe_ddec_charge
 _atom_site_pbe_ddec_spin_density
 _atom_site_pbe_ddec_sum_bond_order
 _atom_site_pbe_magmom
Cu  Cu0  1  0.20453614  0.24999532  0.99991924  1  0.928763  0.747919  1.791586  0.545  0.928149  0.831602  2.162988  0.668  1.00584  0.898508  2.113385  0.753  0.751218  0.872823  0.778464  2.204834  0.608
Cu  Cu1  1  0.79546363  0.75000549  0.00008018  1  0.928785  -0.747922  1.791573  -0.545  0.928159  -0.831603  2.162978  -0.668  1.005855  -0.898507  2.113368  -0.753  0.751214  0.872852  -0.778469  2.204825  -0.608
H  H2  1  0.16952450  0.60748613  0.63227978  1  0.074563  1e-06  0.937224  0.0  0.091993  4e-06  0.999315  0.0  0.092668  1e-06  0.999662  0.0  0.092392  0.09136  1.2e-05  0.999207  0.0
H  H3  1  0.53731519  0.89257263  0.36780741  1  0.074806  3e-06  0.93652  0.0  0.09224  9e-06  0.998353  0.0  0.092989  4e-06  0.998593  0.0  0.091981  0.091597  1.3e-05  0.998217  0.0
H  H4  1  0.83047735  0.39251249  0.36772017  1  0.074568  3e-06  0.937159  0.0  0.091996  -4e-06  0.999261  0.0  0.09267  -1e-06  0.99961  0.0  0.092398  0.091363  -1.2e-05  0.999154  0.0
H  H5  1  0.46268271  0.10742600  0.63218966  1  0.074765  -1e-06  0.936568  0.0  0.09219  -9e-06  0.99842  0.0  0.092956  -4e-06  0.998632  0.0  0.091968  0.091551  -1.3e-05  0.998287  0.0
H  H6  1  0.06629005  0.60355513  0.45708258  1  0.07786  4.1e-05  0.934038  0.0  0.092461  2.6e-05  0.998415  0.0  0.093642  1.5e-05  0.998713  0.0  0.092615  0.091562  3.4e-05  0.998285  0.0
H  H7  1  0.60937476  0.89650824  0.54300477  1  0.077627  3.1e-05  0.934642  0.0  0.092292  2e-05  0.998686  0.0  0.093432  1.2e-05  0.999069  0.0  0.092731  0.091411  3.4e-05  0.998537  0.0
H  H8  1  0.93370740  0.39644676  0.54291938  1  0.077847  -4.1e-05  0.933995  0.0  0.092439  -2.6e-05  0.998399  0.0  0.093622  -1.5e-05  0.998694  0.0  0.092589  0.091538  -3.4e-05  0.998272  0.0
H  H9  1  0.39062418  0.10348931  0.45699121  1  0.07762  -3.5e-05  0.934624  0.0  0.092265  -2e-05  0.998695  0.0  0.093403  -1.2e-05  0.99908  0.0  0.092727  0.091385  -3.4e-05  0.998547  0.0
H  H10  1  0.78699145  0.65092722  0.49809508  1  0.081605  7.6e-05  0.928654  0.0  0.093008  5.4e-05  0.999064  0.0  0.093845  4.1e-05  0.998853  0.0  0.111578  0.09225  8.7e-05  0.999378  0.0
H  H11  1  0.28897807  0.84893521  0.50176251  1  0.081768  7.1e-05  0.929353  0.0  0.093183  4.8e-05  0.999515  0.0  0.093962  3.5e-05  0.999345  0.0  0.111682  0.092521  8.7e-05  0.999648  0.0
H  H12  1  0.21300915  0.34907136  0.50191173  1  0.081586  -7.7e-05  0.928694  0.0  0.093017  -5.4e-05  0.99908  0.0  0.093852  -4.1e-05  0.998871  0.0  0.111564  0.092242  -8.7e-05  0.999411  0.0
H  H13  1  0.71102114  0.15106343  0.49823491  1  0.081756  -6.7e-05  0.929379  0.0  0.093187  -4.8e-05  0.999537  0.0  0.09397  -3.5e-05  0.999362  0.0  0.11168  0.092526  -8.7e-05  0.999669  0.0
H  H14  1  0.89383701  0.66032637  0.67517042  1  0.092604  1.7e-05  0.917329  0.0  0.110491  2.5e-05  0.975808  0.0  0.110712  2.2e-05  0.976637  0.0  0.1197  0.110171  3.6e-05  0.975401  0.0
H  H15  1  0.21858918  0.83950671  0.32467844  1  0.092394  2.1e-05  0.917374  0.0  0.110027  2.8e-05  0.976221  0.0  0.110255  2.4e-05  0.976987  0.0  0.119678  0.109691  3.7e-05  0.975835  0.0
H  H16  1  0.10616750  0.33967222  0.32483566  1  0.092593  -1.7e-05  0.917427  0.0  0.11043  -2.5e-05  0.975971  0.0  0.110648  -2.2e-05  0.976805  0.0  0.119699  0.11011  -3.6e-05  0.97556  0.0
H  H17  1  0.78141006  0.16049191  0.67532170  1  0.092337  -1.5e-05  0.917404  0.0  0.110002  -2.8e-05  0.97624  0.0  0.110231  -2.4e-05  0.977004  0.0  0.119685  0.109669  -3.7e-05  0.975855  0.0
H  H18  1  0.12025483  0.10649377  0.64858140  1  0.093206  -0.000149  0.967927  0.0  0.095402  -3.3e-05  1.041611  0.0  0.098141  -2.2e-05  1.038068  0.0  0.132979  0.093269  -5e-05  1.044183  0.0
H  H19  1  0.47202912  0.39343397  0.35127616  1  0.092945  -0.000166  0.968104  0.0  0.095197  -4e-05  1.041716  0.0  0.098014  -2.7e-05  1.03811  0.0  0.13309  0.093002  -5.1e-05  1.044353  0.0
H  H20  1  0.87974386  0.89350268  0.35141675  1  0.093158  0.000152  0.967993  0.0  0.095371  3.3e-05  1.041654  0.0  0.098108  2.2e-05  1.038121  0.0  0.13296  0.093239  5e-05  1.044227  0.0
H  H21  1  0.52796514  0.60656576  0.64872129  1  0.092956  0.000168  0.968045  0.0  0.095165  4.1e-05  1.041696  0.0  0.097982  2.7e-05  1.038091  0.0  0.133101  0.092971  5.1e-05  1.044333  0.0
H  H22  1  0.04086290  0.91081468  0.88809392  1  0.126285  -0.000152  0.958857  0.0  0.13104  -1.3e-05  1.027682  0.0  0.134889  1.3e-05  1.022207  0.0  0.144502  0.127912  -3.3e-05  1.031882  0.0
H  H23  1  0.15256589  0.58913949  0.11186601  1  0.12759  -0.000141  0.956998  0.0  0.131618  -3e-06  1.026618  0.0  0.135415  1.9e-05  1.021254  0.0  0.144764  0.128506  -3.3e-05  1.0308  0.0
H  H24  1  0.95914164  0.08918937  0.11191271  1  0.126313  0.000154  0.958857  0.0  0.131053  1.3e-05  1.027688  0.0  0.1349  -1.3e-05  1.022217  0.0  0.144509  0.127924  3.3e-05  1.031889  0.0
H  H25  1  0.84743489  0.41086024  0.88813050  1  0.127454  0.000133  0.957141  0.0  0.131531  3e-06  1.0267  0.0  0.135329  -1.9e-05  1.021336  0.0  0.144724  0.128419  3.2e-05  1.030884  0.0
H  H26  1  0.50779161  0.13148973  0.15188625  1  0.007588  0.000416  0.927585  0.001  0.014299  9.6e-05  0.999136  0.0  0.014547  -7.8e-05  0.993804  0.0  0.102016  0.013906  0.000248  1.002983  0.0
H  H27  1  0.35575180  0.36859079  0.84810657  1  0.007485  0.000415  0.928244  0.001  0.014335  9.7e-05  0.999712  0.0  0.014631  -7.7e-05  0.994357  0.0  0.102161  0.013905  0.000247  1.003588  0.0
H  H28  1  0.49221322  0.86852088  0.84811877  1  0.007566  -0.00041  0.92762  -0.001  0.014247  -9.6e-05  0.999195  0.0  0.014493  7.7e-05  0.993866  0.0  0.102011  0.013855  -0.000248  1.003041  0.0
H  H29  1  0.64424082  0.63140789  0.15188275  1  0.007543  -0.000416  0.928162  -0.001  0.014311  -9.7e-05  0.999709  0.0  0.014602  7.7e-05  0.994361  0.0  0.102177  0.013889  -0.000247  1.003575  0.0
H  H30  1  0.87319822  0.33264523  0.06599204  1  0.405712  0.000145  0.903572  0.0  0.377972  9.2e-05  0.964508  0.0  0.389628  6.5e-05  0.947317  0.0  0.278035  0.369415  0.000109  0.97709  0.0
H  H31  1  0.80705826  0.16721850  0.93383688  1  0.405782  0.000146  0.903257  0.0  0.378439  9.2e-05  0.963583  0.0  0.390082  6.5e-05  0.946399  0.0  0.278456  0.369912  0.000109  0.976164  0.0
H  H32  1  0.12680259  0.66735449  0.93400809  1  0.405779  -0.000145  0.903482  0.0  0.378017  -9.2e-05  0.96444  0.0  0.389681  -6.5e-05  0.947249  0.0  0.278035  0.369463  -0.000109  0.977019  0.0
H  H33  1  0.19294384  0.83278122  0.06616180  1  0.405873  -0.000145  0.903141  0.0  0.378488  -9.1e-05  0.963538  0.0  0.390135  -6.5e-05  0.946354  0.0  0.278453  0.36996  -0.000109  0.97612  0.0
H  H34  1  0.59530906  0.33215639  0.06686092  1  0.407786  -0.00031  0.90334  0.0  0.380161  -0.000305  0.963911  0.0  0.39112  -0.000166  0.947975  0.0  0.277981  0.372216  -0.000348  0.975429  0.0
H  H35  1  0.52831647  0.16772799  0.93301476  1  0.408499  -0.000311  0.902146  0.0  0.380755  -0.000307  0.962534  0.0  0.391658  -0.000167  0.946681  0.0  0.278462  0.372848  -0.000348  0.974  0.0
H  H36  1  0.40469230  0.66784549  0.93314120  1  0.407781  0.00031  0.903345  0.0  0.380141  0.000305  0.963932  0.0  0.391098  0.000166  0.947996  0.0  0.27797  0.372204  0.000348  0.975446  0.0
H  H37  1  0.47168750  0.83227390  0.06698807  1  0.408511  0.000312  0.902132  0.0  0.380768  0.000307  0.962516  0.0  0.391673  0.000167  0.94666  0.0  0.278458  0.372862  0.000348  0.973982  0.0
C  C38  1  0.04126905  0.58041166  0.53686872  1  -0.122621  -2e-06  3.683721  0.0  -0.165552  1.8e-05  3.952656  0.0  -0.16719  6e-06  3.966633  0.0  -0.163971  -0.164251  1.2e-05  3.942997  0.0
C  C39  1  0.50447185  0.91959699  0.46314983  1  -0.122643  -1.4e-05  3.684409  0.0  -0.165321  -3e-06  3.951632  0.0  -0.167062  -5e-06  3.965786  0.0  -0.16354  -0.163966  1.2e-05  3.941837  0.0
C  C40  1  0.95872999  0.41959131  0.46313504  1  -0.122534  -1e-06  3.683557  0.0  -0.165471  -1.8e-05  3.952505  0.0  -0.16711  -6e-06  3.966479  0.0  -0.163939  -0.16417  -1.2e-05  3.942842  0.0
C  C41  1  0.49552606  0.08040164  0.53684815  1  -0.122463  2.3e-05  3.684379  0.0  -0.165145  2e-06  3.951659  0.0  -0.166886  5e-06  3.965805  0.0  -0.163497  -0.163801  -1.2e-05  3.941878  0.0
C  C42  1  0.91691218  0.67556287  0.59062593  1  -0.00811  0.000642  3.61242  0.001  -0.083189  0.000474  3.872464  0.001  -0.079635  0.00037  3.883789  0.0  -0.044881  -0.085353  0.000558  3.864912  0.001
C  C43  1  0.32632340  0.82431638  0.40926586  1  -0.007503  0.000676  3.614589  0.001  -0.08341  0.00051  3.874738  0.001  -0.079739  0.000393  3.885912  0.0  -0.045146  -0.085564  0.000557  3.867029  0.001
C  C44  1  0.08308922  0.32443899  0.40938071  1  -0.008127  -0.00064  3.612386  -0.001  -0.083215  -0.000475  3.872437  -0.001  -0.079662  -0.000371  3.883763  0.0  -0.044858  -0.085366  -0.000558  3.864886  -0.001
C  C45  1  0.67367370  0.17567899  0.59073048  1  -0.007373  -0.000699  3.614557  -0.001  -0.083362  -0.00051  3.874782  -0.001  -0.079686  -0.000393  3.885948  0.0  -0.045167  -0.085523  -0.000557  3.86709  -0.001
C  C46  1  0.08819553  0.02705234  0.67784493  1  0.196312  -0.002476  3.708894  -0.002  0.148754  -0.000362  3.997224  0.0  0.162357  -0.000709  4.009316  -0.001  0.146699  0.139977  -8.5e-05  3.988736  0.0
C  C47  1  0.41063304  0.47286844  0.32201673  1  0.196412  -0.00245  3.709255  -0.002  0.148731  -0.000346  3.997886  0.0  0.162257  -0.000702  4.00997  -0.001  0.146322  0.140069  -8.5e-05  3.989379  0.0
C  C48  1  0.91180213  0.97294519  0.32215431  1  0.196455  0.002444  3.708871  0.002  0.148892  0.000363  3.997198  0.0  0.162492  0.000711  4.009292  0.001  0.146763  0.140112  8.6e-05  3.988713  0.0
C  C49  1  0.58936384  0.52713128  0.67798143  1  0.196453  0.002443  3.709151  0.002  0.148802  0.000344  3.997809  0.0  0.162331  0.000701  4.009884  0.001  0.146319  0.140141  8.5e-05  3.989301  0.0
C  C50  1  0.04939939  0.93158497  0.80288719  1  0.184231  -0.00293  3.592368  -0.003  0.113828  -0.000405  3.850545  0.0  0.131073  -0.000894  3.859435  -0.001  0.169172  0.102831  -8.6e-05  3.844595  0.0
C  C51  1  0.24646335  0.56835501  0.19704496  1  0.183726  -0.002991  3.591709  -0.003  0.11335  -0.000431  3.849784  0.0  0.130595  -0.00091  3.858679  -0.001  0.168552  0.102121  -8.6e-05  3.844082  0.0
C  C52  1  0.95060433  0.06841582  0.19711690  1  0.18414  0.002907  3.59235  0.003  0.113768  0.000403  3.850485  0.0  0.131005  0.000892  3.859383  0.001  0.169113  0.10277  8.6e-05  3.844535  0.0
C  C53  1  0.75353509  0.43164581  0.80295229  1  0.183851  0.003024  3.591705  0.003  0.113416  0.000428  3.849776  0.0  0.130668  0.000908  3.858667  0.001  0.168604  0.102187  8.5e-05  3.844074  0.0
C  C54  1  0.38494282  0.08300182  0.14815813  1  0.568588  -0.003787  3.897105  -0.007  0.504079  0.00096  4.212583  -0.001  0.539642  0.000648  4.206843  0.0  0.141005  0.479574  0.001229  4.21505  -0.001
C  C55  1  0.23671659  0.41714199  0.85188062  1  0.569946  -0.003768  3.895795  -0.007  0.505291  0.000953  4.210872  -0.001  0.540792  0.000642  4.205187  0.0  0.140835  0.480803  0.001227  4.21332  -0.001
C  C56  1  0.61506273  0.91700116  0.85184470  1  0.568617  0.003758  3.897087  0.007  0.504145  -0.000963  4.212536  0.001  0.539706  -0.000646  4.206793  0.0  0.140998  0.479642  -0.001228  4.21501  0.001
C  C57  1  0.76328212  0.58285992  0.14811718  1  0.569859  0.00377  3.89583  0.007  0.505267  -0.000957  4.210899  0.001  0.540769  -0.000642  4.20521  0.0  0.140784  0.480775  -0.001228  4.213355  0.001
N  N58  1  0.99164498  0.82992900  0.65966746  1  0.051658  0.001916  3.559089  0.002  0.170086  0.001315  3.746679  0.002  0.160623  0.00105  3.76833  0.001  -0.131286  0.17531  0.001495  3.733388  0.002
N  N59  1  0.33206879  0.66997688  0.34027062  1  0.049291  0.001888  3.563046  0.002  0.169728  0.001302  3.748053  0.002  0.1602  0.001041  3.769735  0.001  -0.131002  0.174931  0.001496  3.734867  0.002
N  N60  1  0.00835456  0.17007070  0.34033593  1  0.051712  -0.001901  3.558994  -0.002  0.170185  -0.001314  3.746503  -0.002  0.160744  -0.001051  3.768113  -0.001  -0.131265  0.17541  -0.001495  3.733202  -0.002
N  N61  1  0.66792624  0.33002067  0.65972610  1  0.049111  -0.001893  3.563169  -0.002  0.169635  -0.001301  3.748112  -0.002  0.160069  -0.001042  3.769863  -0.001  -0.131055  0.174842  -0.001496  3.734927  -0.002
N  N62  1  0.01550945  0.88815428  0.57801155  1  -0.283874  0.006429  2.870824  0.007  -0.278973  0.003171  3.133701  0.004  -0.288515  0.002197  3.14689  0.003  -0.2227  -0.272589  0.004001  3.125109  0.005
N  N63  1  0.43779032  0.61174542  0.42189429  1  -0.282742  0.0063  2.871561  0.007  -0.278402  0.003102  3.133977  0.004  -0.287911  0.00217  3.147233  0.003  -0.222342  -0.27198  0.004003  3.125377  0.005
N  N64  1  0.98448953  0.11184324  0.42198985  1  -0.283961  -0.00641  2.870847  -0.007  -0.279073  -0.003173  3.133707  -0.004  -0.288622  -0.0022  3.146898  -0.003  -0.22274  -0.272688  -0.004001  3.125113  -0.005
N  N65  1  0.56220656  0.38825430  0.57810387  1  -0.282754  -0.0063  2.871629  -0.007  -0.278438  -0.003102  3.134023  -0.004  -0.287939  -0.00217  3.147276  -0.003  -0.222313  -0.272014  -0.004003  3.125417  -0.005
N  N66  1  0.11137106  0.05849025  0.81772558  1  -0.384799  0.061305  3.28941  0.077  -0.341724  0.043084  3.602676  0.057  -0.373718  0.035396  3.618743  0.049  -0.372758  -0.32121  0.047043  3.592291  0.06
N  N67  1  0.29369809  0.44145409  0.18214987  1  -0.384903  0.061333  3.288943  0.077  -0.341785  0.043101  3.6022  0.057  -0.373762  0.035406  3.618271  0.049  -0.372869  -0.321211  0.047057  3.591779  0.06
N  N68  1  0.88862948  0.94150837  0.18227491  1  -0.384828  -0.061293  3.28929  -0.077  -0.341783  -0.043083  3.602577  -0.057  -0.373776  -0.035397  3.618644  -0.049  -0.372764  -0.321272  -0.047045  3.592199  -0.06
N  N69  1  0.70630166  0.55854673  0.81784774  1  -0.384844  -0.061339  3.288828  -0.077  -0.341718  -0.043097  3.602099  -0.057  -0.373692  -0.035404  3.618162  -0.049  -0.372854  -0.321147  -0.047055  3.591685  -0.06
O  O70  1  0.91071258  0.24993136  0.99991122  1  -0.856933  -0.000155  1.852982  0.001  -0.822424  0.000324  2.037057  0.001  -0.840545  2.5e-05  2.000003  0.001  -0.607447  -0.80866  0.000521  2.064209  0.002
O  O71  1  0.08929009  0.75006505  0.00009431  1  -0.857084  0.000153  1.852806  -0.001  -0.822527  -0.000324  2.036963  -0.001  -0.840669  -2.5e-05  1.999871  -0.001  -0.607432  -0.808767  -0.000521  2.064115  -0.002
O  O72  1  0.49136094  0.24993991  0.99994524  1  -0.886234  -0.003184  1.886911  -0.003  -0.851858  -0.001462  2.07127  -0.001  -0.871557  -0.000982  2.03593  0.0  -0.61293  -0.836771  -0.002031  2.096735  -0.002
O  O73  1  0.50864620  0.75005866  0.00006426  1  -0.886228  0.003184  1.886855  0.003  -0.851842  0.001464  2.071265  0.001  -0.871535  0.000982  2.035928  0.0  -0.612911  -0.83677  0.002032  2.096706  0.002
O  O74  1  0.24917957  0.14114409  0.12057470  1  -0.570736  0.086048  2.101865  0.115  -0.550935  0.051065  2.395312  0.075  -0.592739  0.036723  2.39119  0.057  -0.322322  -0.520524  0.0619  2.396798  0.087
O  O75  1  0.12846066  0.35895464  0.87932606  1  -0.571113  0.086046  2.100107  0.114  -0.551147  0.051059  2.393264  0.075  -0.592855  0.036724  2.389076  0.057  -0.32219  -0.520665  0.061925  2.394678  0.087
O  O76  1  0.75082150  0.85885672  0.87942508  1  -0.570777  -0.086025  2.102033  -0.115  -0.550986  -0.051061  2.39547  -0.075  -0.592789  -0.036721  2.391344  -0.057  -0.322338  -0.52058  -0.061895  2.396966  -0.087
O  O77  1  0.87153572  0.64104836  0.12067157  1  -0.571111  -0.086046  2.100254  -0.114  -0.551135  -0.05106  2.393395  -0.075  -0.592845  -0.036726  2.389206  -0.057  -0.322191  -0.520654  -0.061926  2.394818  -0.087
O  O78  1  0.38704013  0.97443164  0.16996634  1  -0.590816  0.013296  2.021547  0.017  -0.53071  0.006871  2.2426  0.01  -0.558506  0.00391  2.233974  0.006  -0.316659  -0.510211  0.010605  2.247533  0.014
O  O79  1  0.21705647  0.52577891  0.83015968  1  -0.592086  0.013232  2.021579  0.017  -0.531499  0.006856  2.242547  0.01  -0.559296  0.003907  2.233934  0.006  -0.316566  -0.510956  0.010576  2.247531  0.014
O  O80  1  0.61296065  0.02556809  0.83003018  1  -0.590773  -0.013291  2.021301  -0.017  -0.530691  -0.006869  2.242324  -0.01  -0.558486  -0.003909  2.233699  -0.006  -0.316639  -0.510192  -0.010605  2.247262  -0.014
O  O81  1  0.78293701  0.47422301  0.16983579  1  -0.592051  -0.013235  2.021575  -0.017  -0.531482  -0.006855  2.242533  -0.01  -0.559276  -0.003907  2.233903  -0.006  -0.316539  -0.510939  -0.010576  2.247519  -0.014
