# generated using pymatgen
data_K2CdH6C14(NO4)2
_symmetry_space_group_name_H-M   'P 1'
_cell_length_a   13.01001433
_cell_length_b   13.02910000
_cell_length_c   13.00814799
_cell_angle_alpha   101.85533879
_cell_angle_beta   113.35968184
_cell_angle_gamma   113.45544673
_symmetry_Int_Tables_number   1
_chemical_formula_structural   K2CdH6C14(NO4)2
_chemical_formula_sum   'K8 Cd4 H24 C56 N8 O32'
_cell_volume   1675.36280414
_cell_formula_units_Z   4
loop_
 _symmetry_equiv_pos_site_id
 _symmetry_equiv_pos_as_xyz
  1  'x, y, z'
loop_
 _atom_site_type_symbol
 _atom_site_label
 _atom_site_symmetry_multiplicity
 _atom_site_fract_x
 _atom_site_fract_y
 _atom_site_fract_z
 _atom_site_occupancy
 _atom_site_hle17_bader_spin_density
 _atom_site_hle17_ddec_charge
 _atom_site_hle17_ddec_spin_density
 _atom_site_hle17_ddec_sum_bond_order
 _atom_site_hle17_magmom
 _atom_site_hse06_10hf_bader_spin_density
 _atom_site_hse06_10hf_ddec_charge
 _atom_site_hse06_10hf_ddec_spin_density
 _atom_site_hse06_10hf_ddec_sum_bond_order
 _atom_site_hse06_10hf_magmom
 _atom_site_hse06_bader_spin_density
 _atom_site_hse06_ddec_charge
 _atom_site_hse06_ddec_spin_density
 _atom_site_hse06_ddec_sum_bond_order
 _atom_site_hse06_magmom
 _atom_site_pbe_bader_charge
 _atom_site_pbe_bader_spin_density
 _atom_site_pbe_cm5_charge
 _atom_site_pbe_ddec_charge
 _atom_site_pbe_ddec_spin_density
 _atom_site_pbe_ddec_sum_bond_order
 _atom_site_pbe_magmom
K  K0  1  0.68967258  0.10677540  0.62750095  1  0  0.944405  0  0.421275  0  0  0.907112  0  0.581101  0  0  0.920719  0  0.559774  0  0.892349  0  0.767397  0.896673  0  0.596646  0
K  K1  1  0.81031981  0.93783609  0.91713327  1  0  0.944238  0  0.421919  0  0  0.907001  0  0.581634  0  0  0.920528  0  0.560398  0  0.891661  0  0.768271  0.896535  0  0.597222  0
K  K2  1  0.47925677  0.91710034  0.10678889  1  0  0.944369  0  0.421027  0  0  0.907069  0  0.580644  0  0  0.920626  0  0.559397  0  0.892282  0  0.7677  0.896614  0  0.596205  0
K  K3  1  0.02075030  0.62752683  0.93783644  1  0  0.94431  0  0.42152  0  0  0.906975  0  0.581386  0  0  0.920538  0  0.560074  0  0.892039  0  0.767753  0.896499  0  0.596975  0
K  K4  1  0.31032685  0.89322456  0.37249848  1  0  0.944409  0  0.421269  0  0  0.90711  0  0.581099  0  0  0.920714  0  0.559777  0  0.892355  0  0.767399  0.896673  0  0.596645  0
K  K5  1  0.18967900  0.06215698  0.08286368  1  0  0.944218  0  0.42194  0  0  0.90701  0  0.581618  0  0  0.920547  0  0.560371  0  0.891663  0  0.76827  0.896547  0  0.597203  0
K  K6  1  0.52074760  0.08289819  0.89321269  1  0  0.944382  0  0.421014  0  0  0.907072  0  0.580648  0  0  0.920637  0  0.55939  0  0.892252  0  0.767692  0.896612  0  0.596212  0
K  K7  1  0.97924882  0.37247276  0.06216176  1  0  0.944318  0  0.421523  0  0  0.906976  0  0.581385  0  0  0.92053  0  0.560086  0  0.892037  0  0.767757  0.896493  0  0.596978  0
Cd  Cd8  1  0.75004658  0.84144309  0.59141554  1  0  1.114116  0  1.825143  0  0  0.926182  0  2.295689  0  0  0.981944  0  2.240733  0  1.271774  0  0.785131  0.886367  0  2.333338  0
Cd  Cd9  1  0.24995767  0.59130959  0.84142640  1  0  1.114133  0  1.823646  0  0  0.926086  0  2.294051  0  0  0.981907  0  2.239071  0  1.269509  0  0.784765  0.886224  0  2.331715  0
Cd  Cd10  1  0.24995285  0.15855687  0.40858390  1  0  1.114107  0  1.825156  0  0  0.926173  0  2.295708  0  0  0.981937  0  2.24075  0  1.271771  0  0.785128  0.886358  0  2.333357  0
Cd  Cd11  1  0.75004207  0.40869075  0.15857427  1  0  1.114175  0  1.82366  0  0  0.926137  0  2.294063  0  0  0.981962  0  2.239078  0  1.269469  0  0.784792  0.886277  0  2.331724  0
H  H12  1  0.60898090  0.53949164  0.46775055  1  0  0.0777  0  0.93631  0  0  0.085121  0  1.002634  0  0  0.087251  0  1.001916  0  0.108439  0  0.113655  0.08353  0  1.003275  0
H  H13  1  0.89107535  0.85879916  0.43040862  1  0  0.077693  0  0.936003  0  0  0.084905  0  1.002612  0  0  0.087028  0  1.001899  0  0.104674  0  0.113639  0.083322  0  1.003262  0
H  H14  1  0.07154174  0.43033764  0.53939537  1  0  0.07769  0  0.936005  0  0  0.084867  0  1.002682  0  0  0.086988  0  1.001979  0  0.107277  0  0.113678  0.083285  0  1.00333  0
H  H15  1  0.42855741  0.46776186  0.85883165  1  0  0.077413  0  0.936769  0  0  0.084615  0  1.003378  0  0  0.086731  0  1.00268  0  0.101447  0  0.11358  0.083037  0  1.004018  0
H  H16  1  0.39101884  0.46050793  0.53225012  1  0  0.077703  0  0.936336  0  0  0.08513  0  1.002651  0  0  0.08726  0  1.001933  0  0.10845  0  0.113648  0.083538  0  1.003292  0
H  H17  1  0.10892461  0.14120170  0.56959041  1  0  0.077714  0  0.935998  0  0  0.084915  0  1.002613  0  0  0.087039  0  1.0019  0  0.104692  0  0.113642  0.083333  0  1.003264  0
H  H18  1  0.92845769  0.56966156  0.46060407  1  0  0.077691  0  0.935981  0  0  0.084866  0  1.00266  0  0  0.086987  0  1.001957  0  0.107284  0  0.11368  0.083285  0  1.003309  0
H  H19  1  0.57144339  0.53223951  0.14116822  1  0  0.077487  0  0.936694  0  0  0.08467  0  1.003322  0  0  0.086786  0  1.002624  0  0.101472  0  0.113584  0.083092  0  1.003964  0
H  H20  1  0.40196014  0.35339862  0.27824101  1  0  0.12084  0  0.967423  0  0  0.125921  0  1.032813  0  0  0.130594  0  1.029856  0  0.139744  0  0.112131  0.122505  0  1.035151  0
H  H21  1  0.09816102  0.87635613  0.45118024  1  0  0.120108  0  0.968635  0  0  0.125625  0  1.033541  0  0  0.130375  0  1.030525  0  0.143602  0  0.111924  0.122146  0  1.035936  0
H  H22  1  0.07490769  0.45122862  0.35314801  1  0  0.120547  0  0.96776  0  0  0.125851  0  1.032838  0  0  0.13055  0  1.029883  0  0.158933  0  0.112088  0.122373  0  1.035228  0
H  H23  1  0.42514988  0.27836713  0.87633004  1  0  0.120768  0  0.967714  0  0  0.125907  0  1.033016  0  0  0.130577  0  1.030065  0  0.140125  0  0.112056  0.122462  0  1.035367  0
H  H24  1  0.59804097  0.64660159  0.72176009  1  0  0.120856  0  0.967389  0  0  0.125933  0  1.032779  0  0  0.130605  0  1.029822  0  0.139747  0  0.112147  0.122518  0  1.035116  0
H  H25  1  0.90183925  0.12364511  0.54882003  1  0  0.120085  0  0.968647  0  0  0.125593  0  1.033575  0  0  0.130346  0  1.030556  0  0.143652  0  0.111915  0.122115  0  1.035969  0
H  H26  1  0.92509174  0.54877134  0.64685142  1  0  0.120527  0  0.967774  0  0  0.125839  0  1.032836  0  0  0.130559  0  1.029857  0  0.158966  0  0.112083  0.122362  0  1.035225  0
H  H27  1  0.57485260  0.72163448  0.12367151  1  0  0.120738  0  0.967759  0  0  0.125882  0  1.03305  0  0  0.130551  0  1.0301  0  0.140161  0  0.112049  0.122432  0  1.035407  0
H  H28  1  0.26051710  0.38963188  0.10832064  1  0  0.102086  0  0.93246  0  0  0.113328  0  0.991308  0  0  0.116737  0  0.989121  0  0.085967  0  0.120354  0.110777  0  0.993057  0
H  H29  1  0.23955209  0.84783532  0.62899064  1  0  0.102147  0  0.932426  0  0  0.113449  0  0.991283  0  0  0.116855  0  0.989061  0  0.069697  0  0.120387  0.110888  0  0.993052  0
H  H30  1  0.28126917  0.62909572  0.38948045  1  0  0.102176  0  0.932512  0  0  0.113374  0  0.991411  0  0  0.116789  0  0.989208  0  0.077218  0  0.120265  0.110796  0  0.993198  0
H  H31  1  0.21871483  0.10854073  0.84779359  1  0  0.102471  0  0.932476  0  0  0.113616  0  0.991393  0  0  0.117029  0  0.989202  0  0.069362  0  0.120268  0.111063  0  0.993141  0
H  H32  1  0.73948180  0.61036642  0.89167919  1  0  0.102087  0  0.932466  0  0  0.113332  0  0.991309  0  0  0.11674  0  0.989122  0  0.086002  0  0.120351  0.11078  0  0.993058  0
H  H33  1  0.76044735  0.15216542  0.37100879  1  0  0.102143  0  0.932398  0  0  0.11344  0  0.99126  0  0  0.116846  0  0.989037  0  0.069699  0  0.120383  0.110878  0  0.993029  0
H  H34  1  0.71873110  0.37090474  0.61051982  1  0  0.102196  0  0.932486  0  0  0.113402  0  0.991373  0  0  0.116816  0  0.989169  0  0.077214  0  0.120271  0.110816  0  0.993169  0
H  H35  1  0.78128513  0.89146013  0.15220544  1  0  0.102436  0  0.932519  0  0  0.113589  0  0.991424  0  0  0.117003  0  0.989233  0  0.069387  0  0.120274  0.111038  0  0.99317  0
C  C36  1  0.50121821  0.68761153  0.32089549  1  0  0.080266  0  3.688418  0  0  0.075399  0  3.92765  0  0  0.077656  0  3.947143  0  0.462737  0  0.114441  0.073693  0  3.914737  0
C  C37  1  0.99872804  0.81963331  0.68645070  1  0  0.080416  0  3.689708  0  0  0.075224  0  3.929281  0  0  0.077492  0  3.948763  0  0.472606  0  0.114723  0.073511  0  3.916375  0
C  C38  1  0.36675439  0.68642908  0.68768703  1  0  0.080066  0  3.689525  0  0  0.075088  0  3.928592  0  0  0.077361  0  3.948084  0  0.469689  0  0.114313  0.073377  0  3.915683  0
C  C39  1  0.13318598  0.32084402  0.81961972  1  0  0.079902  0  3.689785  0  0  0.074837  0  3.929363  0  0  0.077072  0  3.94886  0  0.470033  0  0.11448  0.073142  0  3.916448  0
C  C40  1  0.49878017  0.31238741  0.67910474  1  0  0.080266  0  3.688418  0  0  0.075412  0  3.927656  0  0  0.07767  0  3.947146  0  0.462763  0  0.114434  0.073704  0  3.914746  0
C  C41  1  0.00127108  0.18036628  0.31354749  1  0  0.080474  0  3.68996  0  0  0.075336  0  3.929441  0  0  0.077604  0  3.948924  0  0.472467  0  0.114781  0.073621  0  3.916536  0
C  C42  1  0.63324535  0.31357050  0.31231364  1  0  0.080056  0  3.689467  0  0  0.075062  0  3.928564  0  0  0.077334  0  3.948057  0  0.469683  0  0.114297  0.073351  0  3.915655  0
C  C43  1  0.86681627  0.67915784  0.18038347  1  0  0.079974  0  3.689661  0  0  0.074954  0  3.929172  0  0  0.077189  0  3.948668  0  0.470223  0  0.114512  0.073259  0  3.916259  0
C  C44  1  0.54297791  0.54939213  0.39215883  1  0  0.125575  0  3.71324  0  0  0.092584  0  3.971454  0  0  0.099058  0  3.989433  0  0.415288  0  0.045106  0.088281  0  3.959222  0
C  C45  1  0.95706126  0.84919450  0.50631949  1  0  0.125804  0  3.712695  0  0  0.092884  0  3.971054  0  0  0.099364  0  3.98906  0  0.427024  0  0.045084  0.088561  0  3.958823  0
C  C46  1  0.15710358  0.50627754  0.54930804  1  0  0.126038  0  3.711865  0  0  0.093084  0  3.970249  0  0  0.099573  0  3.988231  0  0.430065  0  0.045052  0.088759  0  3.958018  0
C  C47  1  0.34297836  0.39216722  0.84922498  1  0  0.126002  0  3.712329  0  0  0.093186  0  3.970701  0  0  0.099662  0  3.98868  0  0.427092  0  0.045154  0.088871  0  3.958475  0
C  C48  1  0.45702183  0.45060821  0.60784184  1  0  0.125548  0  3.71332  0  0  0.092552  0  3.971527  0  0  0.099027  0  3.989508  0  0.415263  0  0.045096  0.088252  0  3.959293  0
C  C49  1  0.04293870  0.15080559  0.49367955  1  0  0.125803  0  3.71265  0  0  0.092897  0  3.970998  0  0  0.099377  0  3.989004  0  0.427024  0  0.045108  0.088574  0  3.958766  0
C  C50  1  0.84289502  0.49372115  0.45069055  1  0  0.126053  0  3.711879  0  0  0.093104  0  3.970251  0  0  0.099593  0  3.988239  0  0.430102  0  0.045055  0.088778  0  3.95802  0
C  C51  1  0.65702328  0.60783388  0.15077573  1  0  0.125902  0  3.71236  0  0  0.093097  0  3.970727  0  0  0.099575  0  3.988704  0  0.427103  0  0.045133  0.088783  0  3.9585  0
C  C52  1  0.54380920  0.82346549  0.35175878  1  0  0.623032  0  3.971777  0  0  0.573417  0  4.279027  0  0  0.606566  0  4.270961  0  1.63557  0  0.19675  0.550952  0  4.283665  0
C  C53  1  0.95611705  0.80791134  0.77984660  1  0  0.623382  0  3.972692  0  0  0.573824  0  4.280003  0  0  0.606961  0  4.271913  0  1.626219  0  0.197035  0.551368  0  4.284649  0
C  C54  1  0.47186410  0.77980811  0.82363132  1  0  0.623659  0  3.971544  0  0  0.574089  0  4.278693  0  0  0.607233  0  4.270618  0  1.628653  0  0.197279  0.551629  0  4.283331  0
C  C55  1  0.02810700  0.35166583  0.80791382  1  0  0.623017  0  3.971688  0  0  0.573455  0  4.278915  0  0  0.606602  0  4.270851  0  1.619879  0  0.196843  0.550992  0  4.283556  0
C  C56  1  0.45618970  0.17653435  0.64824106  1  0  0.623056  0  3.971889  0  0  0.573435  0  4.27914  0  0  0.606583  0  4.271073  0  1.635426  0  0.196786  0.550969  0  4.283783  0
C  C57  1  0.04388344  0.19208888  0.22015203  1  0  0.62319  0  3.972945  0  0  0.573628  0  4.280234  0  0  0.606765  0  4.272148  0  1.626291  0  0.196973  0.551173  0  4.284876  0
C  C58  1  0.52813564  0.22019146  0.17636935  1  0  0.623607  0  3.971582  0  0  0.574043  0  4.278742  0  0  0.607188  0  4.270666  0  1.628785  0  0.197228  0.551583  0  4.28338  0
C  C59  1  0.97189411  0.64833514  0.19208729  1  0  0.622988  0  3.971697  0  0  0.573417  0  4.278917  0  0  0.606563  0  4.270856  0  1.619882  0  0.196871  0.550954  0  4.28356  0
C  C60  1  0.42889185  0.44649535  0.28563211  1  0  -0.098522  0  3.711099  0  0  -0.112729  0  3.968173  0  0  -0.117196  0  3.985589  0  0.047927  0  -0.075104  -0.109944  0  3.956654  0
C  C61  1  0.07117714  0.85676993  0.51744033  1  0  -0.098233  0  3.711252  0  0  -0.112769  0  3.9683  0  0  -0.117328  0  3.985661  0  0.047621  0  -0.075009  -0.10992  0  3.956815  0
C  C62  1  0.16070743  0.51746206  0.44633434  1  0  -0.098752  0  3.711313  0  0  -0.113044  0  3.968357  0  0  -0.117561  0  3.985735  0  -0.004981  0  -0.075192  -0.110194  0  3.95687  0
C  C63  1  0.33934388  0.28573206  0.85676745  1  0  -0.098146  0  3.710577  0  0  -0.112383  0  3.967488  0  0  -0.116851  0  3.984912  0  0.039322  0  -0.074795  -0.109571  0  3.955993  0
C  C64  1  0.57110895  0.55350448  0.71436776  1  0  -0.098558  0  3.711131  0  0  -0.112758  0  3.968203  0  0  -0.117226  0  3.985619  0  0.04794  0  -0.075131  -0.109971  0  3.956678  0
C  C65  1  0.92882313  0.14323054  0.48255994  1  0  -0.098218  0  3.71121  0  0  -0.112755  0  3.968242  0  0  -0.117315  0  3.985601  0  0.047581  0  -0.075012  -0.109907  0  3.956756  0
C  C66  1  0.83929200  0.48253790  0.55366509  1  0  -0.098781  0  3.711312  0  0  -0.113061  0  3.968338  0  0  -0.117594  0  3.985704  0  -0.005015  0  -0.075212  -0.110212  0  3.956852  0
C  C67  1  0.66065859  0.71426954  0.14323410  1  0  -0.098085  0  3.710644  0  0  -0.112329  0  3.967558  0  0  -0.116797  0  3.984981  0  0.039316  0  -0.074764  -0.109511  0  3.956065  0
C  C68  1  0.38665845  0.58910083  0.20932826  1  0  -0.085309  0  3.686684  0  0  -0.067585  0  3.921089  0  0  -0.074558  0  3.939887  0  0.008766  0  0.006055  -0.063406  0  3.90897  0
C  C69  1  0.11329002  0.82261341  0.70243865  1  0  -0.085486  0  3.68647  0  0  -0.067622  0  3.921025  0  0  -0.074608  0  3.939795  0  0.017849  0  0.006002  -0.063444  0  3.908919  0
C  C70  1  0.37976411  0.70247241  0.58910193  1  0  -0.085108  0  3.68741  0  0  -0.067097  0  3.921622  0  0  -0.074102  0  3.940466  0  0.022029  0  0.006186  -0.062915  0  3.909499  0
C  C71  1  0.12013642  0.20940820  0.82266870  1  0  -0.084091  0  3.686012  0  0  -0.066234  0  3.920289  0  0  -0.073173  0  3.939048  0  0.018994  0  0.006388  -0.062069  0  3.908183  0
C  C72  1  0.61333993  0.41089812  0.79067197  1  0  -0.085338  0  3.686678  0  0  -0.067655  0  3.921114  0  0  -0.074626  0  3.939904  0  0.008783  0  0.006021  -0.063483  0  3.908993  0
C  C73  1  0.88670804  0.17738515  0.29756034  1  0  -0.085482  0  3.686457  0  0  -0.06763  0  3.921025  0  0  -0.074614  0  3.939791  0  0.017874  0  0.006013  -0.063452  0  3.908918  0
C  C74  1  0.62023616  0.29752729  0.41089834  1  0  -0.085059  0  3.687354  0  0  -0.06703  0  3.921568  0  0  -0.074037  0  3.940413  0  0.022015  0  0.006218  -0.062847  0  3.909442  0
C  C75  1  0.87986553  0.79059328  0.17733324  1  0  -0.08408  0  3.68589  0  0  -0.066224  0  3.92016  0  0  -0.073165  0  3.938923  0  0.018995  0  0.00639  -0.06206  0  3.908056  0
C  C76  1  0.35066958  0.46754685  0.19343913  1  0  -0.035315  0  3.690317  0  0  -0.062144  0  3.938982  0  0  -0.058881  0  3.954868  0  -0.071789  0  -0.058138  -0.064116  0  3.928386  0
C  C77  1  0.14934372  0.84276493  0.61674596  1  0  -0.035287  0  3.689976  0  0  -0.062094  0  3.938545  0  0  -0.058791  0  3.954398  0  -0.083534  0  -0.057929  -0.064072  0  3.927953  0
C  C78  1  0.27402950  0.61681622  0.46742480  1  0  -0.03528  0  3.690736  0  0  -0.062108  0  3.939204  0  0  -0.058827  0  3.955101  0  -0.060146  0  -0.057918  -0.064064  0  3.928597  0
C  C79  1  0.22594405  0.19358513  0.84276662  1  0  -0.036579  0  3.691362  0  0  -0.06326  0  3.939863  0  0  -0.059998  0  3.955709  0  -0.063919  0  -0.058091  -0.065233  0  3.929286  0
C  C80  1  0.64932933  0.53245299  0.80656070  1  0  -0.035288  0  3.690288  0  0  -0.062108  0  3.938956  0  0  -0.058844  0  3.954839  0  -0.071813  0  -0.058121  -0.064081  0  3.928364  0
C  C81  1  0.85065571  0.15723503  0.38325348  1  0  -0.035292  0  3.689967  0  0  -0.062094  0  3.938543  0  0  -0.058792  0  3.954395  0  -0.083532  0  -0.057935  -0.064069  0  3.927948  0
C  C82  1  0.72597130  0.38318437  0.53257507  1  0  -0.035291  0  3.69074  0  0  -0.062135  0  3.939206  0  0  -0.058854  0  3.955108  0  -0.060138  0  -0.057915  -0.064084  0  3.9286  0
C  C83  1  0.77405759  0.80641597  0.15723409  1  0  -0.036559  0  3.691326  0  0  -0.063251  0  3.939833  0  0  -0.059989  0  3.955681  0  -0.064008  0  -0.058093  -0.065223  0  3.929254  0
C  C84  1  0.30131257  0.60677572  0.10470276  1  0  0.691046  0  3.944964  0  0  0.638623  0  4.249257  0  0  0.674484  0  4.237521  0  1.648594  0  0.208715  0.614067  0  4.256632  0
C  C85  1  0.19865049  0.80335264  0.80550446  1  0  0.691446  0  3.944375  0  0  0.63879  0  4.249085  0  0  0.674708  0  4.237262  0  1.648587  0  0.208707  0.614214  0  4.256488  0
C  C86  1  0.50215736  0.80554987  0.60683834  1  0  0.691296  0  3.944367  0  0  0.638426  0  4.249306  0  0  0.674303  0  4.237536  0  1.646442  0  0.208627  0.613855  0  4.256705  0
C  C87  1  0.99778529  0.10470270  0.80336741  1  0  0.690652  0  3.944456  0  0  0.638027  0  4.24908  0  0  0.673896  0  4.237307  0  1.641915  0  0.208527  0.613471  0  4.25647  0
C  C88  1  0.69868770  0.39322398  0.89529751  1  0  0.690978  0  3.945099  0  0  0.6386  0  4.249324  0  0  0.674462  0  4.237588  0  1.648601  0  0.208706  0.614065  0  4.256675  0
C  C89  1  0.80134758  0.19664670  0.19449453  1  0  0.691537  0  3.944278  0  0  0.638841  0  4.24907  0  0  0.674759  0  4.237245  0  1.648593  0  0.208727  0.614265  0  4.256477  0
C  C90  1  0.49784291  0.19445060  0.39316193  1  0  0.691389  0  3.944262  0  0  0.638492  0  4.249247  0  0  0.674375  0  4.23747  0  1.64644  0  0.20865  0.613923  0  4.256645  0
C  C91  1  0.00221498  0.89529777  0.19663286  1  0  0.690694  0  3.944455  0  0  0.638057  0  4.249099  0  0  0.673923  0  4.237331  0  1.641916  0  0.208547  0.613501  0  4.256491  0
N  N92  1  0.57660329  0.66557657  0.40839558  1  0  -0.34354  0  3.307379  0  0  -0.272059  0  3.568761  0  0  -0.290106  0  3.587872  0  -1.242424  0  -0.328972  -0.259587  0  3.555567  0
N  N93  1  0.92339726  0.83179087  0.58902145  1  0  -0.34358  0  3.308476  0  0  -0.271751  0  3.569734  0  0  -0.289821  0  3.588824  0  -1.234338  0  -0.329037  -0.259271  0  3.556567  0
N  N94  1  0.25715449  0.58892218  0.66560611  1  0  -0.343538  0  3.307501  0  0  -0.271751  0  3.568668  0  0  -0.289827  0  3.587766  0  -1.239735  0  -0.328988  -0.259262  0  3.555491  0
N  N95  1  0.24288785  0.40833995  0.83179128  1  0  -0.343958  0  3.306353  0  0  -0.272512  0  3.567818  0  0  -0.290551  0  3.586923  0  -1.230899  0  -0.328914  -0.260044  0  3.554632  0
N  N96  1  0.42339562  0.33442327  0.59160425  1  0  -0.343509  0  3.307395  0  0  -0.272033  0  3.568778  0  0  -0.290082  0  3.587888  0  -1.242456  0  -0.32895  -0.259561  0  3.555583  0
N  N97  1  0.07660270  0.16821000  0.41097758  1  0  -0.343631  0  3.30868  0  0  -0.271822  0  3.569911  0  0  -0.289893  0  3.589002  0  -1.234323  0  -0.329097  -0.259341  0  3.556744  0
N  N98  1  0.74284494  0.41107779  0.33439332  1  0  -0.343575  0  3.307536  0  0  -0.271803  0  3.568729  0  0  -0.289879  0  3.587825  0  -1.239756  0  -0.329014  -0.259314  0  3.555553  0
N  N99  1  0.75711357  0.59166217  0.16821106  1  0  -0.344008  0  3.306356  0  0  -0.272575  0  3.567802  0  0  -0.290614  0  3.586903  0  -1.231055  0  -0.328957  -0.260108  0  3.554619  0
O  O100  1  0.45832105  0.84353056  0.28775145  1  0  -0.687573  0  1.966412  0  0  -0.647714  0  2.199077  0  0  -0.669927  0  2.188662  0  -1.189435  0  -0.429127  -0.631956  0  2.205703  0
O  O101  1  0.04163878  0.82939083  0.88544042  1  0  -0.687738  0  1.966318  0  0  -0.64786  0  2.198836  0  0  -0.670067  0  2.188426  0  -1.195849  0  -0.428986  -0.632085  0  2.205451  0
O  O102  1  0.55595049  0.88539141  0.84371731  1  0  -0.68757  0  1.966385  0  0  -0.647792  0  2.199071  0  0  -0.669998  0  2.188668  0  -1.196255  0  -0.428898  -0.632022  0  2.205682  0
O  O103  1  0.94385705  0.28768864  0.82938022  1  0  -0.687558  0  1.965926  0  0  -0.647645  0  2.198492  0  0  -0.669856  0  2.188072  0  -1.191732  0  -0.429643  -0.631886  0  2.205121  0
O  O104  1  0.54167869  0.15646978  0.71224922  1  0  -0.687643  0  1.966555  0  0  -0.647775  0  2.199213  0  0  -0.669991  0  2.188798  0  -1.189436  0  -0.429165  -0.632017  0  2.205839  0
O  O105  1  0.95836171  0.17060863  0.11455821  1  0  -0.687616  0  1.966415  0  0  -0.647733  0  2.198907  0  0  -0.669937  0  2.188501  0  -1.195865  0  -0.428913  -0.631957  0  2.205518  0
O  O106  1  0.44405030  0.11460842  0.15628255  1  0  -0.687536  0  1.966435  0  0  -0.647763  0  2.199113  0  0  -0.66997  0  2.188711  0  -1.196414  0  -0.428858  -0.631994  0  2.205725  0
O  O107  1  0.05614375  0.71231196  0.17061965  1  0  -0.687584  0  1.965935  0  0  -0.64767  0  2.198498  0  0  -0.669882  0  2.188079  0  -1.191747  0  -0.429675  -0.631912  0  2.205128  0
O  O108  1  0.66259623  0.90613193  0.44055735  1  0  -0.668183  0  2.009347  0  0  -0.610902  0  2.262981  0  0  -0.638224  0  2.251245  0  -1.190869  0  -0.36166  -0.591559  0  2.270268  0
O  O109  1  0.83731984  0.77796479  0.74378144  1  0  -0.668586  0  2.008512  0  0  -0.611383  0  2.26209  0  0  -0.638675  0  2.250325  0  -1.177116  0  -0.362263  -0.592048  0  2.269396  0
O  O110  1  0.46577123  0.74372254  0.90635029  1  0  -0.668594  0  2.008077  0  0  -0.611329  0  2.261592  0  0  -0.638638  0  2.249826  0  -1.179711  0  -0.362149  -0.591985  0  2.268892  0
O  O111  1  0.03435280  0.44044344  0.77800776  1  0  -0.668093  0  2.008828  0  0  -0.610781  0  2.262553  0  0  -0.638107  0  2.250783  0  -1.176351  0  -0.361648  -0.591426  0  2.269858  0
O  O112  1  0.33740404  0.09386777  0.55944292  1  0  -0.668144  0  2.009362  0  0  -0.610858  0  2.26299  0  0  -0.63818  0  2.251255  0  -1.190747  0  -0.36164  -0.591515  0  2.270279  0
O  O113  1  0.16268127  0.22203619  0.25621967  1  0  -0.668534  0  2.00854  0  0  -0.611344  0  2.262116  0  0  -0.638637  0  2.250353  0  -1.177103  0  -0.362274  -0.59201  0  2.269421  0
O  O114  1  0.53422768  0.25627807  0.09364955  1  0  -0.668586  0  2.008045  0  0  -0.611318  0  2.261557  0  0  -0.638629  0  2.249794  0  -1.179693  0  -0.362126  -0.591975  0  2.268856  0
O  O115  1  0.96564664  0.55955653  0.22199167  1  0  -0.668047  0  2.008804  0  0  -0.610736  0  2.262519  0  0  -0.63806  0  2.250747  0  -1.176337  0  -0.361633  -0.59138  0  2.269825  0
O  O116  1  0.18196138  0.55984047  0.07148945  1  0  -0.702562  0  1.96086  0  0  -0.664363  0  2.204118  0  0  -0.687986  0  2.192406  0  -1.202004  0  -0.445373  -0.647401  0  2.2116  0
O  O117  1  0.31797593  0.88944672  0.87788005  1  0  -0.702364  0  1.960818  0  0  -0.664117  0  2.204298  0  0  -0.68779  0  2.192635  0  -1.209092  0  -0.445194  -0.647158  0  2.211785  0
O  O118  1  0.48849341  0.87788866  0.55996213  1  0  -0.702493  0  1.960408  0  0  -0.66428  0  2.204091  0  0  -0.68794  0  2.192424  0  -1.202723  0  -0.444903  -0.647333  0  2.211585  0
O  O119  1  0.01156131  0.07143681  0.88942411  1  0  -0.702426  0  1.960642  0  0  -0.664152  0  2.203972  0  0  -0.6878  0  2.192315  0  -1.203597  0  -0.445527  -0.647198  0  2.211459  0
O  O120  1  0.81803669  0.44015809  0.92850955  1  0  -0.702478  0  1.960936  0  0  -0.664293  0  2.204173  0  0  -0.687916  0  2.192464  0  -1.201982  0  -0.445349  -0.64734  0  2.211644  0
O  O121  1  0.68202214  0.11055108  0.12211894  1  0  -0.702374  0  1.960699  0  0  -0.66414  0  2.204258  0  0  -0.687814  0  2.192595  0  -1.209142  0  -0.445221  -0.647181  0  2.211745  0
O  O122  1  0.51150603  0.12211054  0.44003730  1  0  -0.702579  0  1.960334  0  0  -0.664361  0  2.204033  0  0  -0.688022  0  2.192362  0  -1.202718  0  -0.444932  -0.647413  0  2.211526  0
O  O123  1  0.98843813  0.92856239  0.11057532  1  0  -0.702439  0  1.96064  0  0  -0.664174  0  2.204005  0  0  -0.68782  0  2.192351  0  -1.203591  0  -0.445536  -0.647219  0  2.211493  0
O  O124  1  0.35693681  0.66020309  0.05277330  1  0  -0.700577  0  2.059614  0  0  -0.636545  0  2.323248  0  0  -0.666574  0  2.309916  0  -1.184388  0  -0.378683  -0.615091  0  2.331616  0
O  O125  1  0.14315136  0.69590359  0.80330618  1  0  -0.701765  0  2.057992  0  0  -0.637897  0  2.321951  0  0  -0.667928  0  2.308583  0  -1.184974  0  -0.379811  -0.616443  0  2.330356  0
O  O126  1  0.60747423  0.80339016  0.66018438  1  0  -0.701071  0  2.059144  0  0  -0.636928  0  2.323146  0  0  -0.66694  0  2.309777  0  -1.183495  0  -0.379438  -0.61549  0  2.331568  0
O  O127  1  0.89246891  0.05269298  0.69586003  1  0  -0.700929  0  2.058746  0  0  -0.637104  0  2.322854  0  0  -0.667129  0  2.309512  0  -1.189649  0  -0.379137  -0.615649  0  2.331201  0
O  O128  1  0.64306240  0.33979635  0.94722777  1  0  -0.700566  0  2.059684  0  0  -0.636555  0  2.323327  0  0  -0.666589  0  2.309998  0  -1.184392  0  -0.378656  -0.615092  0  2.331647  0
O  O129  1  0.85684535  0.30409434  0.19669238  1  0  -0.701877  0  2.058152  0  0  -0.637962  0  2.32207  0  0  -0.667988  0  2.308692  0  -1.184927  0  -0.379841  -0.616511  0  2.330482  0
O  O130  1  0.39252604  0.19661030  0.33981589  1  0  -0.701059  0  2.059143  0  0  -0.63691  0  2.323164  0  0  -0.666925  0  2.309792  0  -1.18349  0  -0.379416  -0.615473  0  2.331586  0
O  O131  1  0.10753136  0.94730826  0.30414024  1  0  -0.700973  0  2.058772  0  0  -0.637146  0  2.322889  0  0  -0.667169  0  2.309547  0  -1.189655  0  -0.37915  -0.615689  0  2.331234  0
