# generated using pymatgen
data_NaTbH14C14(NO6)2
_symmetry_space_group_name_H-M   'P 1'
_cell_length_a   10.58445803
_cell_length_b   11.17047670
_cell_length_c   17.61373181
_cell_angle_alpha   90.00009028
_cell_angle_beta   90.00190227
_cell_angle_gamma   97.09827426
_symmetry_Int_Tables_number   1
_chemical_formula_structural   NaTbH14C14(NO6)2
_chemical_formula_sum   'Na4 Tb4 H56 C56 N8 O48'
_cell_volume   2066.57089903
_cell_formula_units_Z   4
loop_
 _symmetry_equiv_pos_site_id
 _symmetry_equiv_pos_as_xyz
  1  'x, y, z'
loop_
 _atom_site_type_symbol
 _atom_site_label
 _atom_site_symmetry_multiplicity
 _atom_site_fract_x
 _atom_site_fract_y
 _atom_site_fract_z
 _atom_site_occupancy
 _atom_site_pbe_bader_charge
 _atom_site_pbe_bader_spin_density
 _atom_site_pbe_cm5_charge
 _atom_site_pbe_ddec_charge
 _atom_site_pbe_ddec_spin_density
 _atom_site_pbe_ddec_sum_bond_order
 _atom_site_pbe_magmom
Na  Na0  1  0.93639285  0.38934933  0.63410866  1  0.877429  0  0.704155  0.850524  0  0.566694  0
Na  Na1  1  0.06362102  0.11065272  0.13411425  1  0.877427  0  0.704164  0.850555  0  0.56664  0
Na  Na2  1  0.06361256  0.61065734  0.36589051  1  0.877459  0  0.704141  0.850536  0  0.566651  0
Na  Na3  1  0.93638441  0.88934040  0.86588890  1  0.877464  0  0.704136  0.850533  0  0.566657  0
Tb  Tb4  1  0.90535687  0.21774480  0.81684182  1  2.149125  0  1.484234  1.968823  0  2.182861  0
Tb  Tb5  1  0.09463857  0.28226357  0.31684652  1  2.149095  0  1.484222  1.968936  0  2.182647  0
Tb  Tb6  1  0.09464308  0.78225649  0.18315565  1  2.149075  0  1.484212  1.968995  0  2.182503  0
Tb  Tb7  1  0.90534993  0.71773690  0.68315436  1  2.149225  0  1.484135  1.968952  0  2.182445  0
H  H8  1  0.44489951  0.39564206  0.84477571  1  0.115598  0  0.109676  0.113841  0  1.030555  0
H  H9  1  0.55507837  0.10435134  0.34477018  1  0.116191  0  0.109619  0.113814  0  1.030525  0
H  H10  1  0.55509730  0.60435022  0.15523084  1  0.115561  0  0.109665  0.113806  0  1.030569  0
H  H11  1  0.44491408  0.89565723  0.65522616  1  0.115821  0  0.109611  0.113755  0  1.030581  0
H  H12  1  0.30461730  0.19519143  0.84398389  1  0.08291  0  0.11298  0.112371  0  1.002727  0
H  H13  1  0.69537413  0.30480457  0.34398255  1  0.083286  0  0.112865  0.112193  0  1.002907  0
H  H14  1  0.69538448  0.80480262  0.15601585  1  0.08305  0  0.112993  0.112383  0  1.002789  0
H  H15  1  0.30460857  0.69519504  0.65602457  1  0.082959  0  0.112946  0.112248  0  1.002924  0
H  H16  1  0.40877583  0.00465318  0.84114444  1  0.156716  0  0.116605  0.133644  0  1.001749  0
H  H17  1  0.59122558  0.49534093  0.34114859  1  0.156821  0  0.116604  0.133752  0  1.001749  0
H  H18  1  0.59122476  0.99533908  0.15885076  1  0.156838  0  0.116602  0.133697  0  1.001715  0
H  H19  1  0.40876562  0.50465862  0.65886308  1  0.156716  0  0.116595  0.133662  0  1.00177  0
H  H20  1  0.31603077  0.56383968  0.86312553  1  0.136539  0  0.124026  0.136414  0  0.967866  0
H  H21  1  0.68395944  0.93615808  0.36311559  1  0.136432  0  0.124051  0.136412  0  0.967936  0
H  H22  1  0.68396848  0.43616342  0.13688727  1  0.136518  0  0.124031  0.136399  0  0.968024  0
H  H23  1  0.31605579  0.06385123  0.63687677  1  0.13682  0  0.124058  0.136447  0  0.967806  0
H  H24  1  0.31886517  0.55547915  0.00664550  1  0.085487  0  0.113501  0.111367  0  0.984194  0
H  H25  1  0.68112683  0.94452889  0.50662689  1  0.085795  0  0.113521  0.111454  0  0.984118  0
H  H26  1  0.68111100  0.44451419  0.99336900  1  0.086103  0  0.113461  0.11134  0  0.984015  0
H  H27  1  0.31887607  0.05547328  0.49336490  1  0.085685  0  0.113503  0.11144  0  0.984091  0
H  H28  1  0.15170310  0.41493870  0.07299708  1  0.108199  0  0.115393  0.116262  0  1.053163  0
H  H29  1  0.84829358  0.08505209  0.57299336  1  0.108377  0  0.115291  0.116068  0  1.053241  0
H  H30  1  0.84828628  0.58505454  0.92700607  1  0.108337  0  0.115321  0.11616  0  1.053229  0
H  H31  1  0.15169814  0.91493753  0.42701093  1  0.108401  0  0.115302  0.11608  0  1.05322  0
H  H32  1  0.12854057  0.05584489  0.82799281  1  0.642855  0  0.294557  0.388889  0  0.959731  0
H  H33  1  0.87145777  0.44415272  0.32799631  1  0.642854  0  0.294581  0.388953  0  0.959645  0
H  H34  1  0.87146165  0.94414555  0.17199841  1  0.642958  0  0.294536  0.388814  0  0.95986  0
H  H35  1  0.12854255  0.55585127  0.67200344  1  0.642861  0  0.294547  0.38892  0  0.959705  0
H  H36  1  0.09947733  0.08248038  0.91535960  1  0.648347  0  0.29567  0.394992  0  0.936662  0
H  H37  1  0.90052532  0.41752071  0.41536478  1  0.648335  0  0.295705  0.395152  0  0.936431  0
H  H38  1  0.90052469  0.91751547  0.08462879  1  0.648303  0  0.295697  0.395167  0  0.936453  0
H  H39  1  0.09948879  0.58248048  0.58463326  1  0.648197  0  0.295689  0.395138  0  0.936491  0
H  H40  1  0.74600556  0.15989719  0.67942467  1  0.649529  0  0.292035  0.389611  0  0.952484  0
H  H41  1  0.25398950  0.34010812  0.17942810  1  0.649426  0  0.292056  0.389671  0  0.95239  0
H  H42  1  0.25399941  0.84011309  0.32057337  1  0.649348  0  0.292019  0.389684  0  0.95241  0
H  H43  1  0.74599333  0.65989239  0.82057505  1  0.649456  0  0.292  0.389695  0  0.952428  0
H  H44  1  0.71432809  0.29508941  0.68750732  1  0.639437  0  0.288857  0.38984  0  0.951091  0
H  H45  1  0.28567780  0.20491590  0.18751181  1  0.639442  0  0.288856  0.389844  0  0.951081  0
H  H46  1  0.28567166  0.70491730  0.31248788  1  0.6398  0  0.288879  0.389892  0  0.95102  0
H  H47  1  0.71431119  0.79508818  0.81248793  1  0.639334  0  0.288832  0.389942  0  0.950966  0
H  H48  1  0.00834269  0.15469990  0.66491492  1  0.648146  0  0.308402  0.403062  0  0.919841  0
H  H49  1  0.99166239  0.34530160  0.16491334  1  0.648009  0  0.308418  0.403062  0  0.919819  0
H  H50  1  0.99166675  0.84530855  0.33508312  1  0.648151  0  0.30834  0.403021  0  0.919933  0
H  H51  1  0.00833743  0.65469879  0.83508527  1  0.648018  0  0.308391  0.403069  0  0.919815  0
H  H52  1  0.92257568  0.03460487  0.69266378  1  0.641532  0  0.300907  0.389881  0  0.953855  0
H  H53  1  0.07741250  0.46540694  0.19266493  1  0.641526  0  0.300901  0.389895  0  0.953849  0
H  H54  1  0.07742532  0.96541086  0.30733597  1  0.641428  0  0.300945  0.390045  0  0.953679  0
H  H55  1  0.92257473  0.53459806  0.80732971  1  0.641522  0  0.300914  0.389985  0  0.953712  0
H  H56  1  0.85174917  0.54379341  0.51661434  1  0.644918  0  0.300642  0.391163  0  0.942367  0
H  H57  1  0.14825421  0.95621102  0.01661634  1  0.644923  0  0.300653  0.391162  0  0.942356  0
H  H58  1  0.14825247  0.45621328  0.48338313  1  0.644969  0  0.300657  0.391185  0  0.942325  0
H  H59  1  0.85174901  0.04378663  0.98338340  1  0.64498  0  0.300622  0.391191  0  0.942325  0
H  H60  1  0.75288043  0.42706469  0.51231266  1  0.6418  0  0.32723  0.400342  0  0.880077  0
H  H61  1  0.24712462  0.07293542  0.01231451  1  0.641837  0  0.32724  0.40035  0  0.880113  0
H  H62  1  0.24712600  0.57293566  0.48768368  1  0.641812  0  0.327233  0.400319  0  0.880133  0
H  H63  1  0.75287741  0.92706044  0.98768239  1  0.641817  0  0.327263  0.400357  0  0.880081  0
C  C64  1  0.70809274  0.42545831  0.83990207  1  1.570421  0  0.224179  0.558871  0  4.209738  0
C  C65  1  0.29190734  0.07454031  0.33990199  1  1.570765  0  0.224211  0.558881  0  4.209668  0
C  C66  1  0.29191836  0.57453478  0.16009767  1  1.57038  0  0.224132  0.558823  0  4.209598  0
C  C67  1  0.70808940  0.92545830  0.66009435  1  1.570387  0  0.224005  0.558549  0  4.209501  0
C  C68  1  0.61645894  0.31125639  0.84442199  1  0.498023  0  0.117153  0.112111  0  3.991951  0
C  C69  1  0.38353729  0.18874681  0.34441593  1  0.497869  0  0.117213  0.112354  0  3.991741  0
C  C70  1  0.38354347  0.68874218  0.15557776  1  0.498116  0  0.117121  0.112068  0  3.991736  0
C  C71  1  0.61645756  0.81125181  0.65558267  1  0.498455  0  0.117267  0.112457  0  3.99145  0
C  C72  1  0.48447018  0.31027484  0.84554194  1  -0.008352  0  -0.066855  -0.11302  0  3.909529  0
C  C73  1  0.51552429  0.18972206  0.34553401  1  -0.009054  0  -0.066811  -0.113043  0  3.909659  0
C  C74  1  0.51553858  0.68972187  0.15445950  1  -0.008329  0  -0.066804  -0.112927  0  3.909352  0
C  C75  1  0.48446162  0.81028024  0.65446517  1  -0.008818  0  -0.066771  -0.112975  0  3.909197  0
C  C76  1  0.40797524  0.19926853  0.84518173  1  0.041029  0  -0.06099  -0.017711  0  3.915764  0
C  C77  1  0.59201355  0.30072841  0.34518341  1  0.041276  0  -0.060854  -0.017413  0  3.915988  0
C  C78  1  0.59202855  0.80072641  0.15481744  1  0.041201  0  -0.061018  -0.017746  0  3.915973  0
C  C79  1  0.40796494  0.69927484  0.65482144  1  0.04087  0  -0.061028  -0.017616  0  3.915963  0
C  C80  1  0.46499592  0.09296292  0.84377482  1  -0.045167  0  -0.063222  -0.107651  0  3.88282  0
C  C81  1  0.53500047  0.40703485  0.34378001  1  -0.045725  0  -0.063277  -0.108026  0  3.883235  0
C  C82  1  0.53500372  0.90702934  0.15622265  1  -0.045676  0  -0.063261  -0.107782  0  3.882893  0
C  C83  1  0.46498475  0.59296926  0.65622314  1  -0.045399  0  -0.063321  -0.107868  0  3.882885  0
C  C84  1  0.59771217  0.10238509  0.84238180  1  0.476324  0  0.118218  0.117533  0  3.971633  0
C  C85  1  0.40228558  0.39761628  0.34238317  1  0.476278  0  0.118251  0.117724  0  3.971604  0
C  C86  1  0.40228916  0.89761258  0.15762249  1  0.476257  0  0.118249  0.117614  0  3.971527  0
C  C87  1  0.59770172  0.60238240  0.65762112  1  0.476407  0  0.118298  0.117668  0  3.97113  0
C  C88  1  0.67132387  0.99569724  0.83551908  1  1.602246  0  0.214417  0.558655  0  4.239806  0
C  C89  1  0.32868876  0.50431636  0.33552307  1  1.602063  0  0.214315  0.558537  0  4.239842  0
C  C90  1  0.32868432  0.00430219  0.16447896  1  1.60251  0  0.214539  0.558886  0  4.239588  0
C  C91  1  0.67130050  0.49567598  0.66448235  1  1.602609  0  0.21443  0.558914  0  4.239517  0
C  C92  1  0.14286664  0.42477932  0.77077247  1  1.629327  0  0.222747  0.579923  0  4.221142  0
C  C93  1  0.85714189  0.07522582  0.27077355  1  1.628924  0  0.2227  0.579726  0  4.221389  0
C  C94  1  0.85714538  0.57522730  0.22922614  1  1.628849  0  0.222718  0.579723  0  4.221528  0
C  C95  1  0.14285691  0.92478090  0.72923016  1  1.62912  0  0.222838  0.580082  0  4.221264  0
C  C96  1  0.15541271  0.42603122  0.85603221  1  0.461657  0  0.123074  0.117064  0  3.97607  0
C  C97  1  0.84458759  0.07395580  0.35602907  1  0.461051  0  0.123164  0.117127  0  3.975842  0
C  C98  1  0.84459146  0.57396643  0.14397151  1  0.461298  0  0.123123  0.117138  0  3.975975  0
C  C99  1  0.15542148  0.92604994  0.64397351  1  0.461376  0  0.123209  0.117063  0  3.975673  0
C  C100  1  0.24757244  0.50267277  0.89507772  1  0.02921  0  -0.0595  -0.109172  0  3.897098  0
C  C101  1  0.75242082  0.99732075  0.39506752  1  0.02906  0  -0.059609  -0.109123  0  3.896982  0
C  C102  1  0.75241523  0.49732861  0.10492940  1  0.029424  0  -0.059574  -0.109192  0  3.897056  0
C  C103  1  0.24758693  0.00268229  0.60493109  1  0.028597  0  -0.059662  -0.109119  0  3.89683  0
C  C104  1  0.24737521  0.49840780  0.97415920  1  -0.022311  0  -0.057278  -0.011517  0  3.91673  0
C  C105  1  0.75262330  0.00159476  0.47414731  1  -0.022388  0  -0.057202  -0.01164  0  3.916766  0
C  C106  1  0.75261279  0.50158907  0.02584793  1  -0.022969  0  -0.057131  -0.011453  0  3.916542  0
C  C107  1  0.24738243  0.99840739  0.52584846  1  -0.022487  0  -0.057165  -0.011697  0  3.916691  0
C  C108  1  0.15431138  0.42050264  0.01149283  1  -0.039567  0  -0.066908  -0.11521  0  3.897835  0
C  C109  1  0.84570131  0.07948476  0.51148393  1  -0.039704  0  -0.066752  -0.114932  0  3.89801  0
C  C110  1  0.84567599  0.57948971  0.98851316  1  -0.039858  0  -0.066924  -0.115145  0  3.897941  0
C  C111  1  0.15430531  0.92051016  0.48851752  1  -0.039498  0  -0.066805  -0.114929  0  3.897838  0
C  C112  1  0.06405831  0.34874149  0.96825562  1  0.495574  0  0.117642  0.11011  0  3.980429  0
C  C113  1  0.93595114  0.15125371  0.46825043  1  0.496131  0  0.117526  0.110132  0  3.98034  0
C  C114  1  0.93592930  0.65126622  0.03174980  1  0.496062  0  0.117681  0.110188  0  3.980179  0
C  C115  1  0.06406007  0.84874027  0.53174931  1  0.49591  0  0.117602  0.110174  0  3.980331  0
C  C116  1  0.96069467  0.25954443  0.00291437  1  1.622014  0  0.217555  0.571107  0  4.223756  0
C  C117  1  0.03931639  0.24046187  0.50291213  1  1.612333  0  0.21752  0.570893  0  4.223515  0
C  C118  1  0.03929829  0.74045420  0.99708764  1  1.615969  0  0.217517  0.571028  0  4.223433  0
C  C119  1  0.96070457  0.75954108  0.49708591  1  1.62197  0  0.217487  0.570964  0  4.223535  0
N  N120  1  0.67092695  0.20933294  0.84301449  1  -1.237359  0  -0.383442  -0.358756  0  3.55481  0
N  N121  1  0.32907014  0.29067024  0.34301143  1  -1.237548  0  -0.38355  -0.359014  0  3.554839  0
N  N122  1  0.32907639  0.79066561  0.15699037  1  -1.2374  0  -0.383476  -0.358806  0  3.554761  0
N  N123  1  0.67091880  0.70932662  0.65699456  1  -1.237611  0  -0.383522  -0.359018  0  3.554767  0
N  N124  1  0.06651035  0.35123533  0.89220816  1  -1.243777  0  -0.388627  -0.363835  0  3.564551  0
N  N125  1  0.93349763  0.14875196  0.39220178  1  -1.243557  0  -0.388636  -0.36382  0  3.564259  0
N  N126  1  0.93348286  0.64876511  0.10779556  1  -1.243952  0  -0.388657  -0.363912  0  3.56459  0
N  N127  1  0.06651359  0.85124202  0.60779569  1  -1.243558  0  -0.38864  -0.363891  0  3.564121  0
O  O128  1  0.66546785  0.52523855  0.84230323  1  -1.165394  0  -0.299366  -0.51662  0  2.157061  0
O  O129  1  0.33453964  0.97476251  0.34231298  1  -1.165365  0  -0.299438  -0.516703  0  2.157042  0
O  O130  1  0.33454563  0.47475813  0.15769367  1  -1.165548  0  -0.299355  -0.5166  0  2.157032  0
O  O131  1  0.66545395  0.02524063  0.65768620  1  -1.165412  0  -0.299263  -0.516513  0  2.156679  0
O  O132  1  0.82655637  0.41015206  0.83337880  1  -1.190321  0  -0.369357  -0.648371  0  2.359939  0
O  O133  1  0.17344002  0.08982936  0.33337862  1  -1.190223  0  -0.369262  -0.648385  0  2.359978  0
O  O134  1  0.17344950  0.58983745  0.16662378  1  -1.190005  0  -0.369286  -0.648422  0  2.359726  0
O  O135  1  0.82655460  0.91015391  0.66661317  1  -1.190222  0  -0.369319  -0.648282  0  2.359764  0
O  O136  1  0.61358176  0.89058081  0.83796142  1  -1.172438  0  -0.309225  -0.521118  0  2.115018  0
O  O137  1  0.38644537  0.60942729  0.33796385  1  -1.171911  0  -0.309055  -0.520943  0  2.115121  0
O  O138  1  0.38644355  0.10941939  0.16202527  1  -1.172312  0  -0.30933  -0.521336  0  2.114657  0
O  O139  1  0.61355214  0.39056318  0.66203873  1  -1.172213  0  -0.309087  -0.521141  0  2.115071  0
O  O140  1  0.79251964  0.02206278  0.82697074  1  -1.214093  0  -0.461458  -0.707041  0  2.35955  0
O  O141  1  0.20748963  0.47795280  0.32697339  1  -1.21441  0  -0.461524  -0.707157  0  2.359425  0
O  O142  1  0.20749212  0.97795558  0.17302673  1  -1.214448  0  -0.461495  -0.707112  0  2.359548  0
O  O143  1  0.79249788  0.52202691  0.67303828  1  -1.214372  0  -0.46157  -0.707277  0  2.359369  0
O  O144  1  0.05084549  0.35086936  0.74422233  1  -1.207513  0  -0.451654  -0.685575  0  2.315025  0
O  O145  1  0.94916131  0.14913375  0.24422592  1  -1.207248  0  -0.451653  -0.685543  0  2.315228  0
O  O146  1  0.94915872  0.64914906  0.25577174  1  -1.207352  0  -0.451673  -0.685516  0  2.31527  0
O  O147  1  0.05083290  0.85087390  0.75576985  1  -1.207504  0  -0.451709  -0.685684  0  2.315329  0
O  O148  1  0.21788272  0.49682279  0.73249972  1  -1.17613  0  -0.301255  -0.530422  0  2.196929  0
O  O149  1  0.78212109  0.00319740  0.23249126  1  -1.176019  0  -0.301265  -0.530354  0  2.196933  0
O  O150  1  0.78212708  0.50320191  0.26750797  1  -1.175878  0  -0.301233  -0.530329  0  2.196995  0
O  O151  1  0.21788264  0.99680387  0.76751245  1  -1.176192  0  -0.301305  -0.530508  0  2.196911  0
O  O152  1  0.88942387  0.19484718  0.95519961  1  -1.195734  0  -0.365712  -0.641453  0  2.29144  0
O  O153  1  0.11057591  0.30515158  0.45519159  1  -1.186423  0  -0.365743  -0.641362  0  2.291406  0
O  O154  1  0.11056815  0.80515146  0.04480809  1  -1.189465  0  -0.365684  -0.64147  0  2.291273  0
O  O155  1  0.88942951  0.69484154  0.54479509  1  -1.195687  0  -0.365691  -0.641411  0  2.291412  0
O  O156  1  0.95333052  0.25063727  0.07388903  1  -1.199194  0  -0.376845  -0.595863  0  2.187829  0
O  O157  1  0.04668525  0.24937505  0.57389376  1  -1.198915  0  -0.37683  -0.595835  0  2.187553  0
O  O158  1  0.04666239  0.74935414  0.92611469  1  -1.199237  0  -0.376887  -0.595792  0  2.187803  0
O  O159  1  0.95334116  0.75064681  0.42610655  1  -1.199259  0  -0.376843  -0.595822  0  2.187536  0
O  O160  1  0.06592554  0.08924110  0.86312048  1  -1.307398  0  -0.670155  -0.890923  0  2.113967  0
O  O161  1  0.93406917  0.41075055  0.36312633  1  -1.307444  0  -0.670171  -0.891125  0  2.11375  0
O  O162  1  0.93407517  0.91075206  0.13687018  1  -1.30744  0  -0.670114  -0.890992  0  2.113839  0
O  O163  1  0.06593348  0.58924982  0.63686944  1  -1.30728  0  -0.670146  -0.891092  0  2.113715  0
O  O164  1  0.78400039  0.24245954  0.69613138  1  -1.310764  0  -0.680311  -0.90571  0  2.125587  0
O  O165  1  0.21599744  0.25753868  0.19613225  1  -1.310713  0  -0.680327  -0.9058  0  2.125452  0
O  O166  1  0.21600043  0.75754806  0.30386666  1  -1.310986  0  -0.680283  -0.90588  0  2.125441  0
O  O167  1  0.78399043  0.74245728  0.80386522  1  -1.310575  0  -0.680253  -0.906003  0  2.125303  0
O  O168  1  0.98053192  0.10713967  0.71037956  1  -1.273828  0  -0.629005  -0.809283  0  2.099571  0
O  O169  1  0.01945990  0.39286414  0.21038230  1  -1.273661  0  -0.62904  -0.809292  0  2.099369  0
O  O170  1  0.01947009  0.89286973  0.28961735  1  -1.273699  0  -0.629017  -0.809484  0  2.099137  0
O  O171  1  0.98053381  0.60713990  0.78961290  1  -1.273646  0  -0.629  -0.809406  0  2.099252  0
O  O172  1  0.84348276  0.45441968  0.50734133  1  -1.285148  0  -0.582633  -0.767084  0  1.954751  0
O  O173  1  0.15652422  0.04557585  0.00733168  1  -1.285168  0  -0.582639  -0.767065  0  1.954917  0
O  O174  1  0.15652650  0.54558064  0.49266579  1  -1.285199  0  -0.582617  -0.767049  0  1.95486  0
O  O175  1  0.84348260  0.95441365  0.99265728  1  -1.285219  0  -0.58264  -0.767133  0  1.95487  0
