# generated using pymatgen
data_CdH4CSeN
_symmetry_space_group_name_H-M   'P 1'
_cell_length_a   6.69838362
_cell_length_b   7.11871403
_cell_length_c   16.70593561
_cell_angle_alpha   89.99984959
_cell_angle_beta   89.99933566
_cell_angle_gamma   90.00038321
_symmetry_Int_Tables_number   1
_chemical_formula_structural   CdH4CSeN
_chemical_formula_sum   'Cd8 H32 C8 Se8 N8'
_cell_volume   796.60378575
_cell_formula_units_Z   8
loop_
 _symmetry_equiv_pos_site_id
 _symmetry_equiv_pos_as_xyz
  1  'x, y, z'
loop_
 _atom_site_type_symbol
 _atom_site_label
 _atom_site_symmetry_multiplicity
 _atom_site_fract_x
 _atom_site_fract_y
 _atom_site_fract_z
 _atom_site_occupancy
 _atom_site_hle17_bader_spin_density
 _atom_site_hle17_ddec_charge
 _atom_site_hle17_ddec_spin_density
 _atom_site_hle17_ddec_sum_bond_order
 _atom_site_hle17_magmom
 _atom_site_hse06_10hf_bader_spin_density
 _atom_site_hse06_10hf_ddec_charge
 _atom_site_hse06_10hf_ddec_spin_density
 _atom_site_hse06_10hf_ddec_sum_bond_order
 _atom_site_hse06_10hf_magmom
 _atom_site_hse06_bader_spin_density
 _atom_site_hse06_ddec_charge
 _atom_site_hse06_ddec_spin_density
 _atom_site_hse06_ddec_sum_bond_order
 _atom_site_hse06_magmom
 _atom_site_pbe_bader_spin_density
 _atom_site_pbe_cm5_charge
 _atom_site_pbe_ddec_charge
 _atom_site_pbe_ddec_spin_density
 _atom_site_pbe_ddec_sum_bond_order
 _atom_site_pbe_magmom
Cd  Cd0  1  0.92559936  0.40161226  0.70027997  1  0  0.726634  0  2.155459  0  0  0.569178  0  2.619379  0  0  0.610766  0  2.591862  0  0  0.41361  0.540689  0  2.637447  0
Cd  Cd1  1  0.42560158  0.09838451  0.70028542  1  0  0.726652  0  2.155392  0  0  0.569124  0  2.61948  0  0  0.610712  0  2.591967  0  0  0.413566  0.540635  0  2.63755  0
Cd  Cd2  1  0.57439967  0.40161439  0.20029141  1  0  0.726588  0  2.155421  0  0  0.569108  0  2.619403  0  0  0.610702  0  2.591884  0  0  0.413553  0.540623  0  2.637467  0
Cd  Cd3  1  0.92560856  0.90161933  0.79971387  1  0  0.72666  0  2.15542  0  0  0.569119  0  2.619533  0  0  0.61071  0  2.592015  0  0  0.413564  0.540633  0  2.637595  0
Cd  Cd4  1  0.07440361  0.59839933  0.29972118  1  0  0.726548  0  2.155238  0  0  0.569078  0  2.619191  0  0  0.610672  0  2.591674  0  0  0.413554  0.540591  0  2.637253  0
Cd  Cd5  1  0.57439543  0.90161865  0.29971154  1  0  0.726584  0  2.155417  0  0  0.569055  0  2.619529  0  0  0.610643  0  2.592017  0  0  0.413559  0.540571  0  2.637587  0
Cd  Cd6  1  0.42560630  0.59838315  0.79971274  1  0  0.726672  0  2.155442  0  0  0.569139  0  2.619555  0  0  0.610726  0  2.592041  0  0  0.413568  0.54065  0  2.637624  0
Cd  Cd7  1  0.07439591  0.09838103  0.20028908  1  0  0.726633  0  2.155278  0  0  0.569116  0  2.619348  0  0  0.610705  0  2.591833  0  0  0.413541  0.540631  0  2.637414  0
H  H8  1  0.21975052  0.55463376  0.59794661  1  0  0.276316  0  0.939268  0  0  0.267367  0  0.997086  0  0  0.273851  0  0.993058  0  0  0.260585  0.26263  0  1.000187  0
H  H9  1  0.71973816  0.94536889  0.59795130  1  0  0.276582  0  0.9392  0  0  0.267551  0  0.997058  0  0  0.274032  0  0.993031  0  0  0.260769  0.262821  0  1.000143  0
H  H10  1  0.28026060  0.55462179  0.09795532  1  0  0.276563  0  0.939141  0  0  0.267511  0  0.997057  0  0  0.273993  0  0.993029  0  0  0.260754  0.262782  0  1.000144  0
H  H11  1  0.21977863  0.05462799  0.90204653  1  0  0.276403  0  0.939  0  0  0.267483  0  0.996782  0  0  0.273967  0  0.992754  0  0  0.260646  0.262749  0  0.999877  0
H  H12  1  0.78024648  0.44537783  0.40204257  1  0  0.276549  0  0.939054  0  0  0.267552  0  0.996914  0  0  0.274033  0  0.992886  0  0  0.260757  0.262818  0  1.000014  0
H  H13  1  0.28026034  0.05461601  0.40204507  1  0  0.276546  0  0.939188  0  0  0.267538  0  0.997047  0  0  0.274017  0  0.99302  0  0  0.260791  0.262809  0  1.000136  0
H  H14  1  0.71976627  0.44538699  0.90204403  1  0  0.276488  0  0.938999  0  0  0.267444  0  0.996912  0  0  0.273927  0  0.992886  0  0  0.260714  0.262715  0  0.999992  0
H  H15  1  0.78024823  0.94537517  0.09795282  1  0  0.276589  0  0.939012  0  0  0.267586  0  0.996881  0  0  0.27407  0  0.992849  0  0  0.260732  0.262853  0  0.999976  0
H  H16  1  0.06855006  0.72687636  0.62433151  1  0  0.268992  0  0.967963  0  0  0.256877  0  1.03405  0  0  0.26338  0  1.029943  0  0  0.251078  0.251992  0  1.037394  0
H  H17  1  0.56857235  0.77313354  0.62433395  1  0  0.268906  0  0.968059  0  0  0.256833  0  1.034063  0  0  0.263331  0  1.029966  0  0  0.251105  0.251952  0  1.037402  0
H  H18  1  0.43142712  0.72684430  0.12433236  1  0  0.268921  0  0.968046  0  0  0.256849  0  1.034037  0  0  0.263344  0  1.029946  0  0  0.251184  0.251969  0  1.037377  0
H  H19  1  0.06859090  0.22685112  0.87566695  1  0  0.2689  0  0.968101  0  0  0.256809  0  1.034128  0  0  0.263311  0  1.030019  0  0  0.251168  0.251924  0  1.037484  0
H  H20  1  0.93140663  0.27316754  0.37566904  1  0  0.268884  0  0.968278  0  0  0.256785  0  1.0343  0  0  0.26328  0  1.030206  0  0  0.251135  0.251906  0  1.03764  0
H  H21  1  0.43141421  0.22684575  0.37567318  1  0  0.268955  0  0.967869  0  0  0.256886  0  1.033882  0  0  0.263383  0  1.029787  0  0  0.251176  0.252005  0  1.037224  0
H  H22  1  0.56858780  0.27314341  0.87566460  1  0  0.268901  0  0.967926  0  0  0.256823  0  1.033949  0  0  0.263324  0  1.029845  0  0  0.25114  0.251942  0  1.037291  0
H  H23  1  0.93141805  0.77315626  0.12432821  1  0  0.26895  0  0.968197  0  0  0.256869  0  1.034181  0  0  0.263369  0  1.030074  0  0  0.251193  0.251992  0  1.037518  0
H  H24  1  0.02542825  0.71157201  0.48460523  1  0  0.048721  0  0.947919  0  0  0.063235  0  1.0179  0  0  0.06423  0  1.017146  0  0  0.083522  0.062421  0  1.018611  0
H  H25  1  0.52546258  0.78843022  0.48460946  1  0  0.048689  0  0.948088  0  0  0.06318  0  1.018011  0  0  0.064172  0  1.017264  0  0  0.083506  0.062374  0  1.018722  0
H  H26  1  0.47455605  0.71153789  0.98461213  1  0  0.048887  0  0.947933  0  0  0.06332  0  1.017903  0  0  0.064312  0  1.017152  0  0  0.083599  0.062516  0  1.018603  0
H  H27  1  0.02547829  0.21155087  0.01539138  1  0  0.048764  0  0.948087  0  0  0.063219  0  1.018097  0  0  0.06421  0  1.017351  0  0  0.083502  0.062418  0  1.018792  0
H  H28  1  0.97453293  0.28846908  0.51538694  1  0  0.048829  0  0.948089  0  0  0.063308  0  1.018077  0  0  0.0643  0  1.017332  0  0  0.083596  0.062502  0  1.018776  0
H  H29  1  0.47453592  0.21152518  0.51539230  1  0  0.048885  0  0.947957  0  0  0.063312  0  1.017954  0  0  0.064305  0  1.017204  0  0  0.083556  0.062507  0  1.018658  0
H  H30  1  0.52548724  0.28844701  0.01538842  1  0  0.048796  0  0.948095  0  0  0.063277  0  1.018082  0  0  0.064265  0  1.017342  0  0  0.083527  0.062477  0  1.018775  0
H  H31  1  0.97454709  0.78846353  0.98460977  1  0  0.048872  0  0.948041  0  0  0.063314  0  1.018019  0  0  0.064305  0  1.017272  0  0  0.083575  0.062512  0  1.018718  0
H  H32  1  0.81445338  0.60385973  0.52992571  1  0  0.054604  0  0.938565  0  0  0.073011  0  1.00094  0  0  0.073312  0  1.001501  0  0  0.091633  0.072634  0  1.00083  0
H  H33  1  0.31446361  0.89612157  0.52992192  1  0  0.054639  0  0.938571  0  0  0.072996  0  1.000924  0  0  0.073297  0  1.001485  0  0  0.091632  0.072621  0  1.000821  0
H  H34  1  0.68554612  0.60385557  0.02993186  1  0  0.054707  0  0.93846  0  0  0.073067  0  1.000796  0  0  0.073368  0  1.001354  0  0  0.091676  0.072671  0  1.000712  0
H  H35  1  0.81449142  0.10386750  0.97007368  1  0  0.054719  0  0.938594  0  0  0.073098  0  1.000941  0  0  0.073398  0  1.0015  0  0  0.09165  0.07268  0  1.000887  0
H  H36  1  0.18552422  0.39616309  0.47007245  1  0  0.054684  0  0.93838  0  0  0.073102  0  1.000732  0  0  0.073404  0  1.001292  0  0  0.091638  0.07272  0  1.000636  0
H  H37  1  0.68552593  0.10384367  0.47007504  1  0  0.054824  0  0.938536  0  0  0.073187  0  1.000839  0  0  0.073488  0  1.001398  0  0  0.091689  0.072809  0  1.00074  0
H  H38  1  0.31449866  0.39613495  0.97007768  1  0  0.054798  0  0.938638  0  0  0.073201  0  1.000972  0  0  0.073502  0  1.001531  0  0  0.091693  0.072813  0  1.000884  0
H  H39  1  0.18554739  0.89613566  0.02992867  1  0  0.054709  0  0.938416  0  0  0.073092  0  1.000766  0  0  0.073393  0  1.001325  0  0  0.091672  0.07271  0  1.000673  0
C  C40  1  0.97711509  0.59132713  0.52157861  1  0  0.060974  0  3.64786  0  0  0.00748  0  3.906174  0  0  0.011235  0  3.91872  0  0  -0.082322  0.004953  0  3.897472  0
C  C41  1  0.47713586  0.90866231  0.52158439  1  0  0.061144  0  3.648157  0  0  0.007833  0  3.906104  0  0  0.011592  0  3.918636  0  0  -0.082133  0.005287  0  3.897427  0
C  C42  1  0.52286815  0.59132472  0.02159208  1  0  0.060733  0  3.648457  0  0  0.007511  0  3.90646  0  0  0.01126  0  3.919019  0  0  -0.082331  0.004992  0  3.897772  0
C  C43  1  0.97715288  0.09131798  0.97841526  1  0  0.060953  0  3.648595  0  0  0.007541  0  3.906771  0  0  0.011295  0  3.91932  0  0  -0.082233  0.005033  0  3.898083  0
C  C44  1  0.02283713  0.40869429  0.47840877  1  0  0.060921  0  3.648903  0  0  0.007435  0  3.907262  0  0  0.011191  0  3.919805  0  0  -0.082254  0.004908  0  3.898549  0
C  C45  1  0.52285368  0.09130432  0.47840539  1  0  0.060535  0  3.648881  0  0  0.007256  0  3.906869  0  0  0.011001  0  3.919438  0  0  -0.082322  0.004724  0  3.89818  0
C  C46  1  0.47715125  0.40868126  0.97841805  1  0  0.060735  0  3.648531  0  0  0.007207  0  3.906794  0  0  0.010966  0  3.919328  0  0  -0.082322  0.004681  0  3.898099  0
C  C47  1  0.02285458  0.90868378  0.02159068  1  0  0.060677  0  3.648825  0  0  0.007351  0  3.906976  0  0  0.011101  0  3.919531  0  0  -0.082328  0.004821  0  3.898283  0
Se  Se48  1  0.04241401  0.05554982  0.66367417  1  0  -0.834241  0  2.057083  0  0  -0.70027  0  2.491092  0  0  -0.739216  0  2.468906  0  0  -0.379523  -0.673105  0  2.505909  0
Se  Se49  1  0.54240910  0.44444753  0.66367048  1  0  -0.83416  0  2.056964  0  0  -0.700217  0  2.490974  0  0  -0.739163  0  2.468791  0  0  -0.379506  -0.673051  0  2.505796  0
Se  Se50  1  0.45758278  0.05555305  0.16367490  1  0  -0.83419  0  2.057083  0  0  -0.700257  0  2.491107  0  0  -0.739199  0  2.468919  0  0  -0.379514  -0.673107  0  2.505929  0
Se  Se51  1  0.04242361  0.55554819  0.83632097  1  0  -0.834272  0  2.057017  0  0  -0.700331  0  2.491045  0  0  -0.739279  0  2.468857  0  0  -0.379568  -0.67317  0  2.505868  0
Se  Se52  1  0.95757404  0.94446177  0.33632818  1  0  -0.83417  0  2.057081  0  0  -0.700201  0  2.491086  0  0  -0.739145  0  2.468905  0  0  -0.379495  -0.673049  0  2.505906  0
Se  Se53  1  0.45758940  0.55555563  0.33632948  1  0  -0.834138  0  2.056978  0  0  -0.700194  0  2.490988  0  0  -0.73914  0  2.468805  0  0  -0.379515  -0.673037  0  2.505802  0
Se  Se54  1  0.54241721  0.94444731  0.83632446  1  0  -0.834258  0  2.057116  0  0  -0.700309  0  2.491156  0  0  -0.739255  0  2.468965  0  0  -0.379538  -0.673143  0  2.50597  0
Se  Se55  1  0.95758534  0.44445497  0.16368138  1  0  -0.834272  0  2.056959  0  0  -0.70035  0  2.490964  0  0  -0.739295  0  2.468778  0  0  -0.379556  -0.673201  0  2.505784  0
N  N56  1  0.07153126  0.59255023  0.60114161  1  0  -0.602143  0  3.129675  0  0  -0.536925  0  3.363179  0  0  -0.557605  0  3.364609  0  0  -0.638593  -0.522259  0  3.362171  0
N  N57  1  0.57156193  0.90745284  0.60113555  1  0  -0.602337  0  3.13001  0  0  -0.537186  0  3.363674  0  0  -0.557857  0  3.36509  0  0  -0.638896  -0.522521  0  3.36268  0
N  N58  1  0.42844270  0.59254905  0.10113288  1  0  -0.602207  0  3.130272  0  0  -0.537002  0  3.363883  0  0  -0.557675  0  3.365295  0  0  -0.638906  -0.522346  0  3.362883  0
N  N59  1  0.07155648  0.09255291  0.89886056  1  0  -0.602121  0  3.129794  0  0  -0.536974  0  3.363402  0  0  -0.557647  0  3.364821  0  0  -0.63878  -0.52231  0  3.362388  0
N  N60  1  0.92842543  0.40744169  0.39887571  1  0  -0.602152  0  3.130553  0  0  -0.536953  0  3.364239  0  0  -0.557621  0  3.365651  0  0  -0.638865  -0.5223  0  3.363243  0
N  N61  1  0.42842462  0.09254049  0.39886920  1  0  -0.602161  0  3.130283  0  0  -0.537061  0  3.363957  0  0  -0.557732  0  3.365364  0  0  -0.638952  -0.522406  0  3.362964  0
N  N62  1  0.57156476  0.40746675  0.89886108  1  0  -0.602165  0  3.129536  0  0  -0.536931  0  3.363306  0  0  -0.557599  0  3.364729  0  0  -0.638809  -0.522268  0  3.3623  0
N  N63  1  0.92844649  0.90743480  0.10113221  1  0  -0.602226  0  3.130347  0  0  -0.537052  0  3.363991  0  0  -0.557722  0  3.365406  0  0  -0.638849  -0.522393  0  3.362993  0
