# generated using pymatgen
data_NiH12C16(SN3)2
_symmetry_space_group_name_H-M   'P 1'
_cell_length_a   7.50788828
_cell_length_b   10.96295029
_cell_length_c   11.59010690
_cell_angle_alpha   111.97638137
_cell_angle_beta   108.90822038
_cell_angle_gamma   89.99856342
_symmetry_Int_Tables_number   1
_chemical_formula_structural   NiH12C16(SN3)2
_chemical_formula_sum   'Ni2 H24 C32 S4 N12'
_cell_volume   828.88120357
_cell_formula_units_Z   2
loop_
 _symmetry_equiv_pos_site_id
 _symmetry_equiv_pos_as_xyz
  1  'x, y, z'
loop_
 _atom_site_type_symbol
 _atom_site_label
 _atom_site_symmetry_multiplicity
 _atom_site_fract_x
 _atom_site_fract_y
 _atom_site_fract_z
 _atom_site_occupancy
 _atom_site_hle17_ddec_charge
 _atom_site_hle17_ddec_spin_density
 _atom_site_hle17_ddec_sum_bond_order
 _atom_site_hle17_magmom
 _atom_site_hse06_10hf_ddec_charge
 _atom_site_hse06_10hf_ddec_spin_density
 _atom_site_hse06_10hf_ddec_sum_bond_order
 _atom_site_hse06_10hf_magmom
 _atom_site_hse06_ddec_charge
 _atom_site_hse06_ddec_spin_density
 _atom_site_hse06_ddec_sum_bond_order
 _atom_site_hse06_magmom
 _atom_site_pbe_cm5_charge
 _atom_site_pbe_ddec_charge
 _atom_site_pbe_ddec_spin_density
 _atom_site_pbe_ddec_sum_bond_order
 _atom_site_pbe_magmom
Ni  Ni0  1  0.00000000  0.00000000  0.00000000  1  0.866112  1.889454  2.269083  1.477  0.883287  1.874519  2.674142  1.59  0.963334  1.949998  2.600616  1.685  0.727312  0.828554  1.803065  2.724944  1.504
Ni  Ni1  1  0.99999926  0.49999944  0.99999919  1  0.868138  -1.888957  2.265348  -1.477  0.88725  -1.874434  2.667848  -1.59  0.967136  -1.950149  2.594469  -1.685  0.727688  0.83042  -1.803124  2.721793  -1.505
H  H2  1  0.81589066  0.49782683  0.54115666  1  0.096771  0.000109  0.971579  0.0  0.106455  -5.2e-05  1.035853  0.0  0.108558  -3.5e-05  1.035586  0.0  0.103874  0.104813  -8.3e-05  1.036326  0.0
H  H3  1  0.72497959  0.99765602  0.54098096  1  0.097202  -9.1e-05  0.972371  0.0  0.106679  6.5e-05  1.036505  0.0  0.108752  4.1e-05  1.036248  0.0  0.104101  0.104816  8.2e-05  1.037396  0.0
H  H4  1  0.18411498  0.50217493  0.45884662  1  0.096727  0.000109  0.971625  0.0  0.106439  -5.2e-05  1.035863  0.0  0.108541  -3.5e-05  1.035596  0.0  0.103863  0.104798  -8.3e-05  1.036336  0.0
H  H5  1  0.27502023  0.00234475  0.45901988  1  0.097288  -9.3e-05  0.972398  0.0  0.106765  6.5e-05  1.036516  0.0  0.108838  4.1e-05  1.036262  0.0  0.104141  0.104899  8.2e-05  1.037412  0.0
H  H6  1  0.76000781  0.58297676  0.36304352  1  0.100462  -0.000565  0.95583  -0.001  0.111419  -2.5e-05  1.014929  0.0  0.114108  -2.3e-05  1.014594  0.0  0.097148  0.109533  3.3e-05  1.015081  0.0
H  H7  1  0.60272378  0.08266211  0.36278232  1  0.100105  0.00057  0.955547  0.001  0.111191  -2.2e-05  1.014764  0.0  0.11378  -7e-06  1.014565  0.0  0.097068  0.109184  -3.3e-05  1.015234  0.0
H  H8  1  0.23999161  0.41702202  0.63695826  1  0.100475  -0.000565  0.955832  -0.001  0.111425  -2.5e-05  1.01494  0.0  0.114114  -2.3e-05  1.014607  0.0  0.097151  0.109543  3.3e-05  1.015095  0.0
H  H9  1  0.39727725  0.91733767  0.63721757  1  0.100096  0.00057  0.955571  0.001  0.111179  -2.2e-05  1.014795  0.0  0.113769  -7e-06  1.014594  0.0  0.097071  0.109172  -3.3e-05  1.015267  0.0
H  H10  1  0.87914640  0.81726075  0.42146854  1  0.085813  0.000211  0.975309  0.0  0.092331  2.2e-05  1.042477  0.0  0.094811  2.6e-05  1.040819  0.0  0.09286  0.090151  7e-06  1.044577  0.0
H  H11  1  0.54250201  0.31705221  0.42120182  1  0.085544  -0.000222  0.976669  -0.001  0.091494  -6e-06  1.044547  0.0  0.093927  -1.5e-05  1.042967  0.0  0.092667  0.089793  -6e-06  1.0457  0.0
H  H12  1  0.12085001  0.18273705  0.57852881  1  0.085827  0.000211  0.97531  0.0  0.092336  2.2e-05  1.042493  0.0  0.094818  2.6e-05  1.040825  0.0  0.092869  0.090157  7e-06  1.04459  0.0
H  H13  1  0.45749781  0.68294857  0.57879645  1  0.085514  -0.000224  0.976704  -0.001  0.091467  -6e-06  1.044578  0.0  0.093899  -1.5e-05  1.042996  0.0  0.092674  0.089771  -6e-06  1.045726  0.0
H  H14  1  0.06390972  0.96474430  0.65721544  1  0.097031  -0.000482  0.989487  -0.001  0.103163  1.3e-05  1.058543  0.0  0.106051  1.8e-05  1.058423  0.0  0.094365  0.101024  -0.0  1.058687  0.0
H  H15  1  0.59368995  0.46468707  0.65690972  1  0.097109  0.000535  0.989385  0.001  0.10359  -2.2e-05  1.058063  0.0  0.106433  -2.2e-05  1.05805  0.0  0.0944  0.10141  1e-06  1.05836  0.0
H  H16  1  0.93608567  0.03525549  0.34277982  1  0.09708  -0.000481  0.989517  -0.001  0.103228  1.3e-05  1.058534  0.0  0.106117  1.8e-05  1.058414  0.0  0.094396  0.101087  -0.0  1.058678  0.0
H  H17  1  0.40630525  0.53531172  0.34308860  1  0.097074  0.000535  0.989317  0.001  0.103551  -2.2e-05  1.058009  0.0  0.106395  -2.2e-05  1.057995  0.0  0.094394  0.101379  1e-06  1.058301  0.0
H  H18  1  0.24325776  0.85142438  0.91204927  1  0.307411  -0.00102  0.890279  -0.002  0.293046  -0.00024  0.958341  -0.001  0.298943  -0.000321  0.955188  -0.001  0.296353  0.288845  -0.000137  0.96049  -0.001
H  H19  1  0.66876407  0.35138614  0.91173328  1  0.306922  0.001009  0.891115  0.002  0.292223  0.000239  0.959869  0.001  0.298139  0.000323  0.956718  0.001  0.296019  0.288432  0.000138  0.961236  0.001
H  H20  1  0.75674084  0.14857739  0.08794996  1  0.307502  -0.001019  0.89019  -0.002  0.293116  -0.00024  0.958276  -0.001  0.299015  -0.000322  0.955116  -0.001  0.296372  0.288913  -0.000137  0.960427  -0.001
H  H21  1  0.33123293  0.64861463  0.08826698  1  0.306866  0.001009  0.891142  0.002  0.292166  0.000239  0.959901  0.001  0.298082  0.000323  0.956751  0.001  0.296008  0.288373  0.000138  0.96127  0.001
H  H22  1  0.22458066  0.98167632  0.86848236  1  0.305378  -0.001045  0.904122  -0.002  0.291046  -0.000183  0.971966  -0.001  0.297256  -0.000254  0.968804  -0.001  0.289508  0.286475  -9.2e-05  0.974338  -0.001
H  H23  1  0.64401396  0.48162515  0.86813277  1  0.305352  0.001019  0.904829  0.002  0.290913  0.000182  0.972924  0.001  0.297124  0.000256  0.969768  0.001  0.289211  0.286287  9.2e-05  0.97544  0.001
H  H24  1  0.77542076  0.01832544  0.13151832  1  0.305406  -0.001044  0.90402  -0.002  0.291085  -0.000183  0.971857  -0.001  0.297295  -0.000255  0.968695  -0.001  0.289513  0.286513  -9.2e-05  0.974229  -0.001
H  H25  1  0.35598445  0.51837562  0.13186778  1  0.305383  0.00102  0.9048  0.002  0.290939  0.000182  0.972898  0.001  0.297151  0.000256  0.969742  0.001  0.289233  0.286315  9.2e-05  0.975413  0.001
C  C26  1  0.35892511  0.22262300  0.13350074  1  0.306087  -0.011423  4.019722  -0.009  0.30083  -0.001781  4.318834  0.002  0.325784  -0.002948  4.330949  0.0  0.142513  0.283526  -0.000974  4.310659  0.003
C  C27  1  0.77424411  0.72257948  0.13343442  1  0.305485  0.01144  4.01961  0.009  0.30034  0.001826  4.319121  -0.002  0.325275  0.002981  4.331118  0.0  0.141774  0.28298  0.000965  4.310222  -0.003
C  C28  1  0.64108639  0.77737279  0.86650251  1  0.306139  -0.011424  4.019548  -0.009  0.300876  -0.001782  4.31868  0.002  0.325832  -0.002949  4.330793  0.0  0.142539  0.283572  -0.000975  4.310504  0.003
C  C29  1  0.22575351  0.27741732  0.86656369  1  0.305683  0.01144  4.019443  0.009  0.300538  0.001826  4.318952  -0.002  0.325473  0.002981  4.330947  0.0  0.141858  0.283177  0.000965  4.310057  -0.003
C  C30  1  0.04307232  0.81605979  0.73204592  1  0.28152  -0.010218  3.759411  -0.015  0.27203  -0.002527  4.014069  -0.005  0.284526  -0.002876  4.035615  -0.005  0.105991  0.263035  -0.001858  3.998978  -0.005
C  C31  1  0.68908468  0.31596365  0.73182414  1  0.280228  0.010832  3.760642  0.015  0.273016  0.002716  4.012442  0.005  0.285572  0.003045  4.033915  0.005  0.106632  0.263857  0.001857  3.99761  0.005
C  C32  1  0.95692589  0.18393999  0.26795424  1  0.281579  -0.010211  3.759339  -0.015  0.272082  -0.002529  4.01401  -0.005  0.284583  -0.002871  4.035553  -0.005  0.105988  0.263086  -0.001858  3.998919  -0.005
C  C33  1  0.31091092  0.68403713  0.26817496  1  0.280168  0.010836  3.760854  0.015  0.273098  0.002716  4.01248  0.005  0.285655  0.003043  4.033954  0.005  0.106653  0.263938  0.001857  3.997649  0.005
C  C34  1  0.96903504  0.68354354  0.69853338  1  -0.083336  0.013979  3.839731  0.014  -0.067916  0.006152  4.070615  0.006  -0.079287  0.004463  4.093555  0.005  -0.005212  -0.06079  0.006755  4.056404  0.006
C  C35  1  0.72959621  0.18345682  0.69835722  1  -0.083445  -0.012393  3.839856  -0.012  -0.068796  -0.005257  4.070704  -0.005  -0.080015  -0.003957  4.093486  -0.004  -0.005557  -0.061155  -0.006761  4.055683  -0.006
C  C36  1  0.03096598  0.31645624  0.30146479  1  -0.083334  0.013973  3.839732  0.014  -0.067916  0.006157  4.070637  0.006  -0.07929  0.004459  4.093578  0.005  -0.005224  -0.060789  0.006756  4.056423  0.006
C  C37  1  0.27040360  0.81654395  0.30164277  1  -0.083479  -0.012397  3.840031  -0.012  -0.068898  -0.005256  4.070869  -0.005  -0.080117  -0.003955  4.093651  -0.004  -0.005591  -0.061248  -0.006761  4.05583  -0.006
C  C38  1  0.86768873  0.60016686  0.56518259  1  -0.063009  -0.006261  3.724297  -0.008  -0.084864  -0.000586  3.973388  -0.001  -0.082096  -0.001134  3.993615  -0.002  -0.073087  -0.086311  -0.000308  3.959349  -0.001
C  C39  1  0.69735329  0.10001484  0.56498896  1  -0.064824  0.0068  3.726632  0.008  -0.086464  0.000819  3.975998  0.002  -0.083701  0.001352  3.996243  0.002  -0.073904  -0.087705  0.000308  3.962153  0.001
C  C40  1  0.13231250  0.39983391  0.43481855  1  -0.062951  -0.006253  3.724363  -0.008  -0.08481  -0.00059  3.973441  -0.001  -0.08204  -0.00113  3.993669  -0.002  -0.073064  -0.086258  -0.000308  3.959403  -0.001
C  C41  1  0.30264512  0.89998593  0.43501160  1  -0.064922  0.006807  3.726759  0.008  -0.086555  0.000818  3.976141  0.002  -0.083792  0.001349  3.996386  0.002  -0.07395  -0.087794  0.000307  3.962298  0.001
C  C42  1  0.83734219  0.64796908  0.46605125  1  -0.078553  0.018752  3.760561  0.02  -0.09939  0.006722  4.020476  0.007  -0.106518  0.005064  4.043682  0.006  -0.094146  -0.093803  0.009981  4.003791  0.01
C  C43  1  0.62855917  0.14772604  0.46579999  1  -0.075929  -0.020968  3.758755  -0.022  -0.097357  -0.007635  4.018782  -0.008  -0.104569  -0.00568  4.042269  -0.006  -0.093825  -0.092164  -0.009987  4.002665  -0.01
C  C44  1  0.16265240  0.35203368  0.53395008  1  -0.078593  0.018745  3.760664  0.02  -0.09943  0.006722  4.020575  0.007  -0.106558  0.005062  4.043782  0.006  -0.094162  -0.093849  0.00998  4.003898  0.01
C  C45  1  0.37144346  0.85227473  0.53419887  1  -0.075868  -0.020971  3.758755  -0.022  -0.097292  -0.007635  4.018781  -0.008  -0.104505  -0.005677  4.042267  -0.006  -0.093801  -0.092103  -0.009986  4.002669  -0.01
C  C46  1  0.90495210  0.77977371  0.49955889  1  -0.018685  -0.009645  3.740697  -0.011  -0.031123  -0.001482  3.989167  -0.002  -0.026675  -0.001761  4.007892  -0.002  -0.07801  -0.034345  -0.001279  3.976788  -0.002
C  C47  1  0.59475578  0.27960232  0.49933004  1  -0.019006  0.010645  3.740939  0.013  -0.031199  0.001653  3.990295  0.003  -0.026738  0.001924  4.009139  0.003  -0.07776  -0.034541  0.00128  3.97762  0.002
C  C48  1  0.09505033  0.22022607  0.50044043  1  -0.018691  -0.009636  3.740788  -0.011  -0.031112  -0.001479  3.989238  -0.002  -0.026662  -0.001758  4.007965  -0.002  -0.078017  -0.034335  -0.001279  3.976865  -0.002
C  C49  1  0.40523942  0.72039647  0.50066827  1  -0.019003  0.010651  3.740816  0.013  -0.031195  0.001653  3.990195  0.003  -0.026732  0.001922  4.009039  0.003  -0.077773  -0.03454  0.00128  3.977527  0.002
C  C50  1  0.00548079  0.86290844  0.63098794  1  -0.174063  0.018569  3.727007  0.02  -0.192236  0.006587  3.976769  0.007  -0.202066  0.005149  3.999426  0.006  -0.095457  -0.18442  0.009524  3.960472  0.01
C  C51  1  0.62563678  0.36278506  0.63073836  1  -0.17346  -0.021187  3.727125  -0.023  -0.192739  -0.007626  3.975861  -0.008  -0.202736  -0.00583  3.998737  -0.007  -0.095987  -0.185384  -0.009525  3.960272  -0.01
C  C52  1  0.99451762  0.13709233  0.36901261  1  -0.17417  0.018556  3.727181  0.02  -0.192352  0.006585  3.976954  0.007  -0.202184  0.005145  3.99961  0.006  -0.095503  -0.184534  0.009523  3.960654  0.01
C  C53  1  0.37435861  0.63721472  0.36925948  1  -0.173381  -0.021188  3.727081  -0.023  -0.192712  -0.007626  3.975816  -0.008  -0.202709  -0.005828  3.99869  -0.007  -0.095983  -0.185365  -0.009524  3.960225  -0.01
C  C54  1  0.99431276  0.63348016  0.79820031  1  0.344748  0.016462  3.700183  0.013  0.333887  0.004749  3.9697  0.001  0.35515  0.005318  3.982745  0.002  0.219788  0.318427  0.004646  3.962281  0.0
C  C55  1  0.80394831  0.13335957  0.79801618  1  0.344853  -0.016541  3.700559  -0.013  0.334116  -0.004687  3.970166  -0.001  0.355348  -0.005275  3.983164  -0.002  0.219667  0.318605  -0.004646  3.962594  0.0
C  C56  1  0.00569126  0.36652756  0.20180303  1  0.344604  0.016468  3.700295  0.013  0.333737  0.00475  3.969825  0.001  0.354999  0.005315  3.982873  0.002  0.219753  0.318277  0.004646  3.962404  0.0
C  C57  1  0.19604811  0.86663821  0.20198634  1  0.344842  -0.016539  3.700519  -0.013  0.33412  -0.004687  3.970125  -0.001  0.355352  -0.005276  3.983126  -0.002  0.219685  0.318607  -0.004646  3.962553  0.0
S  S58  1  0.54044238  0.33562419  0.18799771  1  -0.39613  -0.000585  2.065814  0.001  -0.372959  -0.001107  2.360988  0.0  -0.386654  -0.001651  2.353887  -0.001  -0.167918  -0.363288  -0.000324  2.365716  0.001
S  S59  1  0.64708516  0.83547779  0.18785387  1  -0.396581  0.000811  2.066309  -0.001  -0.373881  0.001113  2.361389  0.0  -0.387479  0.001648  2.3542  0.001  -0.167521  -0.363274  0.000333  2.366396  -0.001
S  S60  1  0.45956409  0.66437459  0.81200382  1  -0.396109  -0.000582  2.065713  0.001  -0.372949  -0.001107  2.360901  0.0  -0.386642  -0.00165  2.353797  -0.001  -0.167899  -0.363276  -0.000324  2.365629  0.001
S  S61  1  0.35291366  0.16451802  0.81214328  1  -0.396623  0.00081  2.066252  -0.001  -0.373921  0.001113  2.361328  0.0  -0.387522  0.001648  2.354138  0.001  -0.16753  -0.363307  0.000332  2.366324  -0.001
N  N62  1  0.22573331  0.14170263  0.09489300  1  -0.53778  0.057351  3.038836  0.077  -0.514835  0.038623  3.329406  0.053  -0.545024  0.033485  3.336002  0.047  -0.399093  -0.494101  0.04299  3.324989  0.058
N  N63  1  0.86886573  0.64168624  0.09480807  1  -0.538012  -0.057315  3.036296  -0.077  -0.515697  -0.038704  3.326825  -0.053  -0.545784  -0.033531  3.333357  -0.047  -0.39872  -0.49407  -0.042997  3.32218  -0.058
N  N64  1  0.77427174  0.85829615  0.90510824  1  -0.537836  0.057351  3.038781  0.077  -0.514887  0.038624  3.329341  0.053  -0.545079  0.033486  3.335937  0.047  -0.399122  -0.494151  0.042991  3.324924  0.058
N  N65  1  0.13113451  0.35830957  0.90518851  1  -0.538188  -0.057311  3.036192  -0.077  -0.515865  -0.038701  3.32671  -0.053  -0.545951  -0.033529  3.333239  -0.047  -0.398785  -0.494237  -0.042995  3.322068  -0.058
N  N66  1  0.15016163  0.90006667  0.86396438  1  -0.611707  0.06927  3.199728  0.097  -0.601129  0.042488  3.456027  0.062  -0.63283  0.03195  3.457163  0.048  -0.576022  -0.577688  0.050029  3.454388  0.07
N  N67  1  0.71392744  0.40002084  0.86370974  1  -0.611066  -0.068972  3.201772  -0.097  -0.601256  -0.042185  3.457573  -0.061  -0.633023  -0.031693  3.458658  -0.047  -0.575665  -0.577591  -0.050003  3.455835  -0.07
N  N68  1  0.84983838  0.09993510  0.13603342  1  -0.611838  0.069267  3.199577  0.097  -0.601267  0.042487  3.455884  0.062  -0.632974  0.031951  3.457025  0.048  -0.57604  -0.577825  0.050029  3.454246  0.07
N  N69  1  0.28606956  0.59997994  0.13628966  1  -0.611024  -0.068969  3.20172  -0.097  -0.601241  -0.042185  3.457459  -0.061  -0.633007  -0.031692  3.458545  -0.047  -0.5757  -0.577576  -0.050002  3.455721  -0.07
N  N70  1  0.00940725  0.59101520  0.87879640  1  -0.394777  -0.048016  2.939891  -0.064  -0.380728  -0.03452  3.228341  -0.047  -0.404936  -0.030626  3.233465  -0.043  -0.316926  -0.365165  -0.037918  3.226525  -0.051
N  N71  1  0.86947091  0.09092486  0.87861629  1  -0.394758  0.048336  2.940922  0.065  -0.380444  0.034635  3.229381  0.047  -0.404618  0.030672  3.234414  0.043  -0.316619  -0.364863  0.03794  3.227237  0.051
N  N72  1  0.99059659  0.40898458  0.12120235  1  -0.394667  -0.048025  2.939942  -0.064  -0.380619  -0.034521  3.228414  -0.047  -0.404826  -0.030624  3.233536  -0.043  -0.316909  -0.365057  -0.037918  3.226598  -0.051
N  N73  1  0.13052871  0.90907492  0.12138330  1  -0.394728  0.048333  2.94083  0.065  -0.380422  0.034635  3.229283  0.047  -0.404597  0.030673  3.234319  0.043  -0.316615  -0.364842  0.03794  3.22714  0.051
