# generated using pymatgen
data_AlH18C27(NO2)3
_symmetry_space_group_name_H-M   'P 1'
_cell_length_a   3.95535503
_cell_length_b   15.77514855
_cell_length_c   15.46035601
_cell_angle_alpha   61.34764254
_cell_angle_beta   77.63189251
_cell_angle_gamma   79.11659614
_symmetry_Int_Tables_number   1
_chemical_formula_structural   AlH18C27(NO2)3
_chemical_formula_sum   'Al1 H18 C27 N3 O6'
_cell_volume   822.71129522
_cell_formula_units_Z   1
loop_
 _symmetry_equiv_pos_site_id
 _symmetry_equiv_pos_as_xyz
  1  'x, y, z'
loop_
 _atom_site_type_symbol
 _atom_site_label
 _atom_site_symmetry_multiplicity
 _atom_site_fract_x
 _atom_site_fract_y
 _atom_site_fract_z
 _atom_site_occupancy
 _atom_site_pbe_bader_charge
 _atom_site_pbe_bader_spin_density
 _atom_site_pbe_cm5_charge
 _atom_site_pbe_ddec_charge
 _atom_site_pbe_ddec_spin_density
 _atom_site_pbe_ddec_sum_bond_order
 _atom_site_pbe_magmom
Al  Al0  1  0.00940537  0.49469720  0.50009252  1  2.502375  0  0.42618  1.587289  0  2.581048  0
H  H1  1  0.23472321  0.76933511  0.50698327  1  0.061021  0  0.105967  0.107357  0  0.990139  0
H  H2  1  0.24642739  0.86665584  0.59561809  1  0.05851  0  0.105085  0.107429  0  1.005102  0
H  H3  1  0.37082911  0.60241666  0.86455290  1  0.084442  0  0.103481  0.106317  0  1.021371  0
H  H4  1  0.45552294  0.04784571  0.58971779  1  0.089601  0  0.103094  0.105921  0  1.014798  0
H  H5  1  0.60963308  0.22557875  0.76796381  1  0.047771  0  0.105876  0.109  0  0.983916  0
H  H6  1  0.57348027  0.04612639  0.85994496  1  0.082288  0  0.103175  0.103928  0  1.014023  0
H  H7  1  0.58686379  0.85848115  0.04744708  1  0.126396  0  0.10393  0.108411  0  1.013353  0
H  H8  1  0.40847562  0.50944351  0.23122493  1  0.089281  0  0.107519  0.112381  0  0.988475  0
H  H9  1  0.36242771  0.60233078  0.04892512  1  0.091847  0  0.104191  0.105093  0  1.016136  0
H  H10  1  0.66833143  0.44472833  0.79262262  1  0.073903  0  0.094977  0.136411  0  1.007028  0
H  H11  1  0.26578631  0.43840937  0.76584635  1  0.04753  0  0.094292  0.135073  0  1.009363  0
H  H12  1  0.28143201  0.45067550  0.87380209  1  0.020864  0  0.090605  0.123105  0  0.998273  0
H  H13  1  0.63120029  0.19686761  0.42732798  1  0.002066  0  0.090236  0.124134  0  0.997362  0
H  H14  1  0.58737680  0.31155379  0.42709530  1  0.088944  0  0.094628  0.139288  0  1.015296  0
H  H15  1  0.21436904  0.25207574  0.45383458  1  0.068012  0  0.094785  0.140564  0  1.011309  0
H  H16  1  0.94314604  0.78313878  0.23764973  1  0.052741  0  0.093467  0.138564  0  1.02232  0
H  H17  1  0.54777838  0.75482696  0.31872224  1  0.051135  0  0.095454  0.141854  0  1.005552  0
H  H18  1  0.55876050  0.86176971  0.20148296  1  0.042086  0  0.089092  0.121563  0  1.001295  0
C  C19  1  0.56586152  0.56889566  0.34774669  1  1.538028  0  0.277856  0.656168  0  4.052507  0
C  C20  1  0.38597545  0.57681407  0.57615746  1  1.576354  0  0.278241  0.658518  0  4.054283  0
C  C21  1  0.55259379  0.34478877  0.57653625  1  1.600303  0  0.28239  0.668123  0  4.043306  0
C  C22  1  0.46643749  0.93192730  0.78478693  1  1.095192  0  0.257897  0.38657  0  4.006645  0
C  C23  1  0.36434869  0.79338682  0.78738548  1  1.096947  0  0.256402  0.379522  0  4.021588  0
C  C24  1  0.45029000  0.79093608  0.92958232  1  1.078307  0  0.257309  0.383684  0  4.020945  0
C  C25  1  0.26766131  0.73342570  0.58544462  1  -0.056745  0  -0.080455  -0.088775  0  3.988835  0
C  C26  1  0.27306723  0.78760626  0.63431886  1  0.032042  0  -0.082206  -0.106245  0  3.976943  0
C  C27  1  0.32069279  0.73965413  0.73487166  1  -0.024236  0  -0.004744  0.015568  0  3.981293  0
C  C28  1  0.34513885  0.63796323  0.78567516  1  -0.030715  0  -0.081001  -0.160463  0  3.92157  0
C  C29  1  0.35211103  0.58229375  0.73740576  1  -0.040517  0  0.00133  0.158572  0  3.939908  0
C  C30  1  0.32210393  0.63171985  0.63492078  1  0.019377  0  -0.004656  -0.08534  0  3.907217  0
C  C31  1  0.49251351  0.08784608  0.62760706  1  0.06287  0  -0.078878  -0.15345  0  3.914885  0
C  C32  1  0.51842715  0.18775509  0.57405573  1  0.020903  0  -0.000836  0.149355  0  3.948935  0
C  C33  1  0.55519691  0.23670215  0.62689947  1  -0.089572  0  -0.002133  -0.077621  0  3.903011  0
C  C34  1  0.57630927  0.18597707  0.72922275  1  0.002943  0  -0.084897  -0.100249  0  4.004714  0
C  C35  1  0.55587334  0.08648625  0.78062897  1  0.009648  0  -0.083913  -0.104145  0  3.991065  0
C  C36  1  0.50718874  0.03677926  0.73009999  1  -0.097573  0  -0.008226  0.004897  0  3.996215  0
C  C37  1  0.55674499  0.78101824  0.08833747  1  -0.036937  0  -0.081004  -0.166776  0  3.910584  0
C  C38  1  0.59231217  0.73040726  0.18956324  1  0.005045  0  0.00617  0.166513  0  3.927845  0
C  C39  1  0.54352617  0.63056082  0.23997093  1  -0.045036  0  -0.006811  -0.096911  0  3.908629  0
C  C40  1  0.45622607  0.58566623  0.18920792  1  0.032762  0  -0.081047  -0.085692  0  3.993357  0
C  C41  1  0.42952884  0.63672195  0.08857964  1  -0.007642  0  -0.083218  -0.108125  0  3.985253  0
C  C42  1  0.48069461  0.73566754  0.03698737  1  -0.084697  0  -0.00051  0.02176  0  3.9752  0
C  C43  1  0.39236168  0.47320161  0.79540703  1  -0.041376  0  -0.237663  -0.409834  0  3.964384  0
C  C44  1  0.48855247  0.24009484  0.46459038  1  -0.094036  0  -0.241085  -0.421067  0  3.960196  0
C  C45  1  0.66209185  0.78530542  0.24006437  1  -0.070397  0  -0.240758  -0.419611  0  3.96399  0
N  N46  1  0.40002922  0.88882303  0.73398018  1  -1.1874  0  -0.30798  -0.411764  0  3.211445  0
N  N47  1  0.37958054  0.74190650  0.88569213  1  -1.210932  0  -0.309412  -0.412189  0  3.232485  0
N  N48  1  0.49913719  0.88566108  0.88233757  1  -1.20219  0  -0.310647  -0.414959  0  3.211561  0
O  O49  1  0.27513642  0.39202907  0.59731390  1  -1.256317  0  -0.240297  -0.599959  0  2.349679  0
O  O50  1  0.36774706  0.49984257  0.39533923  1  -1.263858  0  -0.248584  -0.626553  0  2.397775  0
O  O51  1  0.18748074  0.59496534  0.51306624  1  -1.254444  0  -0.238141  -0.591868  0  2.332029  0
O  O52  1  0.82071020  0.38259102  0.51723640  1  -1.250599  0  -0.226393  -0.580407  0  2.370149  0
O  O53  1  0.65189970  0.51386032  0.59292120  1  -1.251961  0  -0.233422  -0.602215  0  2.419585  0
O  O54  1  0.77755399  0.58582982  0.38782537  1  -1.254354  0  -0.224711  -0.578714  0  2.389082  0
