# generated using pymatgen
data_Mn3H46(C25O12)2
_symmetry_space_group_name_H-M   'P 1'
_cell_length_a   9.74518503
_cell_length_b   12.22296291
_cell_length_c   13.52858234
_cell_angle_alpha   107.56248856
_cell_angle_beta   105.52974780
_cell_angle_gamma   107.47212914
_symmetry_Int_Tables_number   1
_chemical_formula_structural   Mn3H46(C25O12)2
_chemical_formula_sum   'Mn3 H46 C50 O24'
_cell_volume   1346.90078445
_cell_formula_units_Z   1
loop_
 _symmetry_equiv_pos_site_id
 _symmetry_equiv_pos_as_xyz
  1  'x, y, z'
loop_
 _atom_site_type_symbol
 _atom_site_label
 _atom_site_symmetry_multiplicity
 _atom_site_fract_x
 _atom_site_fract_y
 _atom_site_fract_z
 _atom_site_occupancy
 _atom_site_pbe_bader_charge
 _atom_site_pbe_bader_spin_density
 _atom_site_pbe_cm5_charge
 _atom_site_pbe_ddec_charge
 _atom_site_pbe_ddec_spin_density
 _atom_site_pbe_ddec_sum_bond_order
 _atom_site_pbe_magmom
Mn  Mn0  1  0.21585218  0.65169996  0.46410313  1  1.535418  4.564123  0.608379  1.073166  4.681954  2.188931  4.485
Mn  Mn1  1  0.78415368  0.34829668  0.53589617  1  1.535418  4.564107  0.608402  1.073234  4.681951  2.188882  4.485
Mn  Mn2  1  0.49999303  0.49999213  0.49999152  1  1.544512  4.536734  0.605137  1.095506  4.651492  2.245442  4.473
H  H3  1  0.85602673  0.48404262  0.88379397  1  0.074657  0.000179  0.107704  0.08204  -0.000118  0.999294  0.0
H  H4  1  0.14397248  0.51596114  0.11621033  1  0.074722  0.000179  0.107707  0.082043  -0.000118  0.999295  0.0
H  H5  1  0.80898226  0.61719292  0.89598719  1  0.082248  0.000245  0.109971  0.090347  5e-06  0.9726  0.0
H  H6  1  0.19102026  0.38281477  0.10402237  1  0.082487  0.000245  0.109968  0.090397  5e-06  0.972604  0.0
H  H7  1  0.92183765  0.57570713  0.77230930  1  0.121257  0.000529  0.108321  0.122143  0.000217  1.071507  0.0
H  H8  1  0.07815136  0.42429915  0.22769968  1  0.121124  0.000529  0.108333  0.122176  0.000218  1.071504  0.0
H  H9  1  0.69120763  0.46571922  0.97929514  1  0.06983  0.00016  0.104128  0.076354  0.000119  1.01815  0.0
H  H10  1  0.30879908  0.53428257  0.02071299  1  0.069774  0.00016  0.104124  0.076386  0.000119  1.018229  0.0
H  H11  1  0.88139800  0.53766612  0.09031952  1  0.067251  0.000251  0.103791  0.075689  4.5e-05  1.008455  0.0
H  H12  1  0.11860707  0.46234046  0.90968875  1  0.067251  0.000251  0.103771  0.075682  4.5e-05  1.008551  0.0
H  H13  1  0.32906126  0.79281057  0.08795831  1  0.067605  0.000165  0.115058  0.146351  6.6e-05  0.991086  0.0
H  H14  1  0.67093911  0.20719328  0.91204843  1  0.067663  0.000165  0.115051  0.146296  6.6e-05  0.991217  0.0
H  H15  1  0.03413673  0.84074683  0.17566174  1  0.137554  0.000235  0.103483  0.119079  0.000138  1.037692  0.0
H  H16  1  0.96587597  0.15925102  0.82432948  1  0.137475  0.000235  0.103513  0.119142  0.000138  1.03774  0.0
H  H17  1  0.36652204  0.76948924  0.77050443  1  0.102866  0.000161  0.108577  0.126742  -0.000432  1.04178  0.0
H  H18  1  0.63346054  0.23049781  0.22949346  1  0.102623  0.000162  0.10855  0.126707  -0.000432  1.041822  0.0
H  H19  1  0.31490473  0.96595501  0.31612138  1  0.095045  0.000432  0.108681  0.116286  9e-05  0.990808  0.0
H  H20  1  0.68510481  0.03405063  0.68387193  1  0.095006  0.000431  0.108648  0.116182  9e-05  0.990823  0.0
H  H21  1  0.57196779  0.94396500  0.89169232  1  0.068171  5e-05  0.108734  0.081934  1.9e-05  0.98447  0.0
H  H22  1  0.42802246  0.05602259  0.10830340  1  0.06805  5e-05  0.108685  0.08189  1.9e-05  0.984559  0.0
H  H23  1  0.62340679  0.81415953  0.88734319  1  0.073712  3.8e-05  0.106906  0.082485  -2.1e-05  0.990153  0.0
H  H24  1  0.37658091  0.18582380  0.11264139  1  0.073754  3.8e-05  0.106944  0.082493  -2.1e-05  0.990156  0.0
H  H25  1  0.51847595  0.43982252  0.24724380  1  0.070432  0.000127  0.105439  0.106325  -0.000435  1.015191  0.0
H  H26  1  0.48151737  0.56017260  0.75275359  1  0.070476  0.000126  0.105438  0.106291  -0.000435  1.015227  0.0
H  H27  1  0.29687230  0.29989659  0.27964558  1  0.105639  0.000864  0.107093  0.110207  0.00018  1.069504  0.0
H  H28  1  0.70312219  0.70010289  0.72034570  1  0.105686  0.000865  0.10707  0.110239  0.00018  1.069559  0.0
H  H29  1  0.84422168  0.03656924  0.98506607  1  0.074826  8.3e-05  0.102166  0.07106  5.4e-05  1.022619  0.0
H  H30  1  0.15576809  0.96341400  0.01491813  1  0.075401  8.3e-05  0.102186  0.071151  5.4e-05  1.022436  0.0
H  H31  1  0.77251468  0.06561892  0.09474279  1  0.087923  8.9e-05  0.104584  0.076601  5.9e-05  1.016447  0.0
H  H32  1  0.22748087  0.93436706  0.90524387  1  0.087711  8.9e-05  0.104626  0.076726  5.9e-05  1.016496  0.0
H  H33  1  0.48803527  0.78836445  0.26561686  1  0.083216  0.000312  0.105675  0.110648  -6e-05  0.993576  0.0
H  H34  1  0.51197315  0.21164032  0.73439527  1  0.083293  0.000312  0.105705  0.110626  -6e-05  0.993527  0.0
H  H35  1  0.06893797  0.76678601  0.33946104  1  0.625228  0.003022  0.341107  0.420306  0.001678  0.857173  0.002
H  H36  1  0.93108284  0.23322398  0.66055167  1  0.625181  0.003022  0.341111  0.42036  0.001678  0.857114  0.002
H  H37  1  0.95200971  0.70712080  0.38814872  1  0.636257  0.00333  0.336756  0.415563  0.00191  0.867235  0.002
H  H38  1  0.04800252  0.29289116  0.61185922  1  0.63621  0.003331  0.336787  0.41562  0.00191  0.867117  0.002
H  H39  1  0.02411681  0.18035977  0.14679082  1  0.087359  7.4e-05  0.098737  0.110017  -0.0  1.066305  0.0
H  H40  1  0.97588011  0.81963462  0.85319521  1  0.087019  7.4e-05  0.098699  0.110036  -0.0  1.066345  0.0
H  H41  1  0.65887613  0.81294952  0.15656205  1  0.103632  4.6e-05  0.104925  0.12729  -1.2e-05  1.021944  0.0
H  H42  1  0.34112699  0.18705341  0.84344718  1  0.103942  4.6e-05  0.104918  0.127301  -1.2e-05  1.021964  0.0
H  H43  1  0.68406551  0.46122477  0.13933729  1  0.094105  6.8e-05  0.096854  0.105435  -2.7e-05  1.07548  0.0
H  H44  1  0.31593257  0.53877508  0.86066361  1  0.094003  6.8e-05  0.096888  0.105481  -2.7e-05  1.075559  0.0
H  H45  1  0.80183061  0.59721769  0.52519070  1  0.650343  0.001091  0.296166  0.38364  0.000459  0.959367  0.001
H  H46  1  0.19817526  0.40278281  0.47481029  1  0.65  0.001092  0.296152  0.383669  0.00046  0.959349  0.001
H  H47  1  0.75717133  0.71247500  0.55817009  1  0.592497  0.001436  0.30476  0.374945  0.001024  0.935742  0.001
H  H48  1  0.24283775  0.28752740  0.44183343  1  0.592546  0.001436  0.304803  0.375004  0.001024  0.935689  0.001
C  C49  1  0.48846771  0.61046503  0.26062962  1  -0.013017  -0.000417  -0.036909  -0.085164  -0.001561  4.026794  -0.001
C  C50  1  0.51153090  0.38953962  0.73937330  1  -0.01332  -0.000417  -0.036905  -0.085126  -0.001561  4.026963  -0.001
C  C51  1  0.87028421  0.57504575  0.94339331  1  0.396716  0.000263  -0.069023  -0.008981  0.000139  3.890684  0.0
C  C52  1  0.12971307  0.42495631  0.05661316  1  0.396488  0.000263  -0.069012  -0.009  0.000139  3.890775  0.0
C  C53  1  0.04629416  0.63398560  0.82034855  1  -0.029724  0.007338  -0.115015  -0.275602  0.005693  3.99177  0.004
C  C54  1  0.95369699  0.36601916  0.17965082  1  -0.029497  0.007339  -0.11504  -0.275711  0.005694  3.991973  0.004
C  C55  1  0.80107302  0.55176878  0.02572458  1  0.419126  0.000119  -0.070626  -0.012134  0.000121  3.907281  0.0
C  C56  1  0.19892889  0.44823402  0.97428145  1  0.419373  0.000119  -0.070653  -0.01229  0.000122  3.907555  0.0
C  C57  1  0.32392351  0.14163458  0.30884442  1  -0.043152  -0.000215  -0.036448  -0.08674  -0.001335  4.038568  -0.001
C  C58  1  0.67608203  0.85837523  0.69115364  1  -0.043981  -0.000214  -0.036557  -0.086856  -0.001335  4.038652  -0.001
C  C59  1  0.06214810  0.63028338  0.63828523  1  1.567081  0.035031  0.231507  0.610986  0.032847  4.119603  0.03
C  C60  1  0.93785544  0.36971655  0.36172113  1  1.566969  0.035048  0.231458  0.610819  0.032863  4.11933  0.03
C  C61  1  0.01070047  0.00224954  0.15412829  1  0.416883  0.002397  0.090183  0.271121  0.001903  4.043255  0.002
C  C62  1  0.98930077  0.99774872  0.84586243  1  0.415827  0.002396  0.090233  0.271347  0.001902  4.043287  0.002
C  C63  1  0.13934184  0.66777061  0.76234909  1  0.021683  -0.000424  -0.017625  0.00729  -0.001454  4.01073  -0.002
C  C64  1  0.86065205  0.33223323  0.23765278  1  0.021581  -0.000425  -0.017596  0.007353  -0.001454  4.010522  -0.002
C  C65  1  0.11544793  0.68112693  0.93822631  1  0.397253  -0.001225  0.080594  0.265259  -0.001537  4.108069  -0.001
C  C66  1  0.88455136  0.31887690  0.06177949  1  0.397698  -0.001225  0.080545  0.265212  -0.001538  4.108199  -0.001
C  C67  1  0.36771870  0.78771965  0.93687979  1  0.383796  -0.000825  0.083851  0.271568  -0.001133  4.087641  -0.001
C  C68  1  0.63227928  0.21227817  0.06311837  1  0.383474  -0.000825  0.083876  0.271715  -0.001132  4.08788  -0.001
C  C69  1  0.27590195  0.75695542  0.99649056  1  0.062583  0.008291  -0.110393  -0.318474  0.006591  3.952488  0.005
C  C70  1  0.72409296  0.24304643  0.00351026  1  0.062241  0.008295  -0.110395  -0.31849  0.006594  3.952626  0.005
C  C71  1  0.09372756  0.94209985  0.20253169  1  -0.055068  -7.8e-05  -0.107743  -0.214187  -0.000118  3.990951  0.0
C  C72  1  0.90628163  0.05790308  0.79746384  1  -0.05447  -7.8e-05  -0.107805  -0.214431  -0.000118  3.991033  0.0
C  C73  1  0.38331230  0.58975597  0.32095151  1  1.493514  0.027721  0.216221  0.580669  0.02761  4.19308  0.023
C  C74  1  0.61668426  0.41024687  0.67905133  1  1.493414  0.027712  0.216211  0.580577  0.027602  4.193146  0.023
C  C75  1  0.30013536  0.74418566  0.81924899  1  -0.0052  0.007186  -0.111822  -0.262122  0.005359  3.966691  0.004
C  C76  1  0.69985066  0.25580780  0.18074740  1  -0.004836  0.00719  -0.111773  -0.262088  0.005362  3.966619  0.004
C  C77  1  0.24849603  0.01132425  0.27882704  1  -0.09769  0.003194  -0.084677  -0.076651  0.002351  3.992134  0.002
C  C78  1  0.75151257  0.98868153  0.72116836  1  -0.096981  0.003194  -0.084479  -0.076205  0.00235  3.991896  0.002
C  C79  1  0.61929513  0.89877381  0.94308537  1  0.410709  7.7e-05  -0.066077  -0.002578  4.7e-05  3.90187  0.0
C  C80  1  0.38069762  0.10121069  0.05690707  1  0.411225  7.7e-05  -0.066082  -0.002454  4.8e-05  3.901799  0.0
C  C81  1  0.54702449  0.52050987  0.22570866  1  -0.00195  0.006763  -0.083877  -0.05512  0.004881  3.981947  0.004
C  C82  1  0.45296835  0.47948821  0.77429086  1  -0.001689  0.006761  -0.083829  -0.055088  0.004879  3.981924  0.004
C  C83  1  0.23992575  0.19980560  0.25950901  1  -0.081785  0.003819  -0.091441  -0.101328  0.002768  4.031556  0.002
C  C84  1  0.76007139  0.80019480  0.74048372  1  -0.081837  0.003818  -0.091468  -0.101488  0.002767  4.031645  0.002
C  C85  1  0.49052333  0.21605950  0.38807097  1  1.532462  0.01471  0.206327  0.565526  0.01498  4.195394  0.012
C  C86  1  0.50948020  0.78394853  0.61192776  1  1.5326  0.014708  0.206372  0.565497  0.014976  4.195573  0.012
C  C87  1  0.78015051  0.99209970  0.02830188  1  0.395438  5.2e-05  -0.070685  -0.012068  5.8e-05  3.906745  0.0
C  C88  1  0.21984456  0.00788538  0.97168521  1  0.394959  5.2e-05  -0.070662  -0.012192  5.8e-05  3.906782  0.0
C  C89  1  0.53118081  0.71712457  0.23672160  1  -0.049987  0.005764  -0.084369  -0.073852  0.004267  3.996869  0.004
C  C90  1  0.46882617  0.28288176  0.76328325  1  -0.049756  0.005763  -0.084359  -0.073751  0.004267  3.996777  0.004
C  C91  1  0.08478864  0.13174798  0.18331080  1  0.02881  -0.000201  -0.114499  -0.220251  -0.000339  3.992023  0.0
C  C92  1  0.91521375  0.86825227  0.81668284  1  0.02967  -0.000201  -0.114507  -0.220335  -0.000339  3.991973  0.0
C  C93  1  0.62700124  0.73208679  0.17756936  1  -0.012882  -0.001071  -0.108783  -0.213721  -0.001089  3.989963  -0.001
C  C94  1  0.37299805  0.26791704  0.82243644  1  -0.013264  -0.001071  -0.108862  -0.213881  -0.001089  3.990046  -0.001
C  C95  1  0.64123441  0.53303180  0.16531843  1  -0.046424  -0.000959  -0.115912  -0.230599  -0.001131  4.014678  -0.001
C  C96  1  0.35875906  0.46696926  0.83468415  1  -0.046436  -0.000958  -0.115941  -0.230568  -0.00113  4.014665  -0.001
C  C97  1  0.68012713  0.63861814  0.13982401  1  0.419735  0.005457  0.084668  0.260727  0.004349  4.064349  0.003
C  C98  1  0.31986993  0.36138369  0.86017793  1  0.419755  0.005455  0.084684  0.260762  0.004347  4.064309  0.003
O  O99  1  0.13472821  0.69184352  0.59402658  1  -1.201629  0.061348  -0.312567  -0.567476  0.041435  2.323785  0.024
O  O100  1  0.86527549  0.30815078  0.40598063  1  -1.201557  0.061355  -0.312597  -0.567447  0.041439  2.323524  0.024
O  O101  1  0.55139268  0.33832750  0.42109065  1  -1.219064  0.095154  -0.316331  -0.613771  0.072761  2.324464  0.046
O  O102  1  0.44860978  0.66167861  0.57890667  1  -1.218907  0.095143  -0.31631  -0.613759  0.072756  2.324599  0.046
O  O103  1  0.03427859  0.65761199  0.00331288  1  -1.079101  -0.000405  -0.183774  -0.199777  -0.000493  2.520402  0.0
O  O104  1  0.96572200  0.34239208  0.99669840  1  -1.079303  -0.000406  -0.183718  -0.19965  -0.000493  2.52056  0.0
O  O105  1  0.31022677  0.65982211  0.33905391  1  -1.177105  0.070612  -0.316623  -0.566835  0.048869  2.24216  0.035
O  O106  1  0.68977697  0.34018228  0.66094766  1  -1.177174  0.070598  -0.316634  -0.566857  0.048863  2.241948  0.035
O  O107  1  0.92174829  0.54294825  0.58388428  1  -1.226062  0.070621  -0.312018  -0.596681  0.050965  2.394135  0.032
O  O108  1  0.07825588  0.45705314  0.41611440  1  -1.226166  0.070632  -0.311995  -0.596598  0.050972  2.394107  0.032
O  O109  1  0.57343878  0.16254935  0.42238512  1  -1.163327  0.05969  -0.304867  -0.530157  0.042414  2.144671  0.035
O  O110  1  0.42656374  0.83745875  0.57761419  1  -1.163505  0.059682  -0.304935  -0.530158  0.042409  2.144703  0.035
O  O111  1  0.52216678  0.86493259  0.00160271  1  -1.083701  -0.000275  -0.180116  -0.196118  -0.000332  2.532041  0.0
O  O112  1  0.47783450  0.13505373  0.99839469  1  -1.083952  -0.000275  -0.180163  -0.19631  -0.000332  2.532076  0.0
O  O113  1  0.36614350  0.49784580  0.35111272  1  -1.218667  0.066348  -0.32959  -0.618851  0.048194  2.417275  0.026
O  O114  1  0.63385907  0.50216001  0.64889713  1  -1.218757  0.066326  -0.329608  -0.618841  0.048173  2.417341  0.026
O  O115  1  0.86101993  0.92857215  0.07778191  1  -1.066055  0.001029  -0.172535  -0.182159  0.000716  2.524234  0.001
O  O116  1  0.13898189  0.07141748  0.92220679  1  -1.065958  0.001029  -0.172615  -0.182387  0.000716  2.524389  0.001
O  O117  1  0.76865479  0.65669402  0.07849807  1  -1.075638  0.002232  -0.178185  -0.195361  0.001553  2.545608  0.002
O  O118  1  0.23134397  0.34330888  0.92150741  1  -1.075685  0.002231  -0.178162  -0.195323  0.001552  2.545593  0.002
O  O119  1  0.03533790  0.69943162  0.36350100  1  -1.229891  0.052186  -0.534175  -0.732528  0.038127  2.055248  0.02
O  O120  1  0.96466753  0.30057188  0.63650288  1  -1.229809  0.05219  -0.534217  -0.732667  0.038131  2.055067  0.02
O  O121  1  0.72170510  0.62913843  0.49819843  1  -1.247977  0.053234  -0.557174  -0.736193  0.038868  2.063976  0.024
O  O122  1  0.27830184  0.37086400  0.50180398  1  -1.247531  0.053245  -0.557185  -0.736289  0.038877  2.063892  0.024
