# generated using pymatgen
data_CdH8C12N3Cl2
_symmetry_space_group_name_H-M   'P 1'
_cell_length_a   11.90701533
_cell_length_b   11.90823561
_cell_length_c   12.97496879
_cell_angle_alpha   94.04479344
_cell_angle_beta   114.15184277
_cell_angle_gamma   118.50446580
_symmetry_Int_Tables_number   1
_chemical_formula_structural   CdH8C12N3Cl2
_chemical_formula_sum   'Cd4 H32 C48 N12 Cl8'
_cell_volume   1391.80257566
_cell_formula_units_Z   4
loop_
 _symmetry_equiv_pos_site_id
 _symmetry_equiv_pos_as_xyz
  1  'x, y, z'
loop_
 _atom_site_type_symbol
 _atom_site_label
 _atom_site_symmetry_multiplicity
 _atom_site_fract_x
 _atom_site_fract_y
 _atom_site_fract_z
 _atom_site_occupancy
 _atom_site_hle17_bader_spin_density
 _atom_site_hle17_ddec_charge
 _atom_site_hle17_ddec_spin_density
 _atom_site_hle17_ddec_sum_bond_order
 _atom_site_hle17_magmom
 _atom_site_hse06_10hf_bader_spin_density
 _atom_site_hse06_10hf_ddec_charge
 _atom_site_hse06_10hf_ddec_spin_density
 _atom_site_hse06_10hf_ddec_sum_bond_order
 _atom_site_hse06_10hf_magmom
 _atom_site_hse06_bader_spin_density
 _atom_site_hse06_ddec_charge
 _atom_site_hse06_ddec_spin_density
 _atom_site_hse06_ddec_sum_bond_order
 _atom_site_hse06_magmom
 _atom_site_pbe_bader_spin_density
 _atom_site_pbe_cm5_charge
 _atom_site_pbe_ddec_charge
 _atom_site_pbe_ddec_spin_density
 _atom_site_pbe_ddec_sum_bond_order
 _atom_site_pbe_magmom
Cd  Cd0  1  0.67111666  0.20482271  0.31153760  1  0  0.95063  0  1.998279  0  0  0.765853  0  2.47618  0  0  0.813955  0  2.433025  0  0  0.635199  0.732146  0  2.505404  0
Cd  Cd1  1  0.39343685  0.35973023  0.18845183  1  0  0.950597  0  1.998816  0  0  0.765653  0  2.476811  0  0  0.813732  0  2.433679  0  0  0.635319  0.731962  0  2.506008  0
Cd  Cd2  1  0.32888489  0.79517787  0.68846276  1  0  0.950629  0  1.998272  0  0  0.765862  0  2.476168  0  0  0.813966  0  2.433011  0  0  0.635198  0.732158  0  2.505391  0
Cd  Cd3  1  0.60656255  0.64026833  0.81154836  1  0  0.950625  0  1.998798  0  0  0.765691  0  2.476796  0  0  0.813776  0  2.433664  0  0  0.635335  0.732002  0  2.505996  0
H  H4  1  0.94406037  0.50541884  0.36840543  1  0  0.086931  0  0.938704  0  0  0.092305  0  1.006399  0  0  0.095204  0  1.00345  0  0  0.111927  0.090307  0  1.008245  0
H  H5  1  0.63683653  0.57575559  0.13156156  1  0  0.086956  0  0.938438  0  0  0.092261  0  1.006165  0  0  0.095157  0  1.003223  0  0  0.111533  0.090259  0  1.008018  0
H  H6  1  0.05594485  0.49457869  0.63159762  1  0  0.086948  0  0.938603  0  0  0.092309  0  1.00632  0  0  0.095208  0  1.00337  0  0  0.111925  0.090311  0  1.008167  0
H  H7  1  0.36316041  0.42424500  0.86843555  1  0  0.086999  0  0.93842  0  0  0.0923  0  1.006137  0  0  0.095196  0  1.003195  0  0  0.111561  0.090297  0  1.007992  0
H  H8  1  0.12794713  0.61569094  0.30383503  1  0  0.108302  0  0.949772  0  0  0.117022  0  1.010296  0  0  0.119825  0  1.010056  0  0  0.107604  0.114958  0  1.01062  0
H  H9  1  0.81184453  0.82413567  0.19623857  1  0  0.108637  0  0.951129  0  0  0.117711  0  1.011151  0  0  0.120519  0  1.010901  0  0  0.10764  0.115633  0  1.011478  0
H  H10  1  0.87205689  0.38430761  0.69616918  1  0  0.108293  0  0.94985  0  0  0.117016  0  1.01037  0  0  0.119819  0  1.010134  0  0  0.107592  0.114952  0  1.010693  0
H  H11  1  0.18815121  0.17586594  0.80375970  1  0  0.108661  0  0.95109  0  0  0.117724  0  1.011129  0  0  0.12054  0  1.010874  0  0  0.107656  0.115646  0  1.011456  0
H  H12  1  0.07934533  0.48618821  0.10896956  1  0  0.098485  0  0.951167  0  0  0.107735  0  1.014649  0  0  0.11021  0  1.013248  0  0  0.103508  0.105878  0  1.015876  0
H  H13  1  0.87741167  0.97034258  0.39121311  1  0  0.09801  0  0.951922  0  0  0.107192  0  1.015329  0  0  0.109677  0  1.013868  0  0  0.103928  0.105324  0  1.016595  0
H  H14  1  0.92065531  0.51381237  0.89103123  1  0  0.098491  0  0.951175  0  0  0.107743  0  1.014654  0  0  0.110217  0  1.013256  0  0  0.103499  0.105885  0  1.015882  0
H  H15  1  0.12258374  0.02965700  0.60878414  1  0  0.098039  0  0.951881  0  0  0.107212  0  1.015294  0  0  0.109698  0  1.013829  0  0  0.103939  0.105342  0  1.016566  0
H  H16  1  0.84401561  0.26187382  0.98691719  1  0  0.112396  0  0.93692  0  0  0.126062  0  0.987519  0  0  0.128741  0  0.987608  0  0  0.112406  0.124089  0  0.987772  0
H  H17  1  0.77500570  0.85703405  0.51322040  1  0  0.112067  0  0.93597  0  0  0.125546  0  0.986882  0  0  0.128296  0  0.986871  0  0  0.111982  0.123528  0  0.9872  0
H  H18  1  0.15598657  0.73812777  0.01308501  1  0  0.112419  0  0.936973  0  0  0.126074  0  0.987569  0  0  0.128756  0  0.987657  0  0  0.11241  0.1241  0  0.987822  0
H  H19  1  0.22499463  0.14296754  0.48677957  1  0  0.112046  0  0.936003  0  0  0.125528  0  0.986911  0  0  0.128275  0  0.986903  0  0  0.11198  0.123508  0  0.987228  0
H  H20  1  0.63526205  0.33176617  0.92029435  1  0  0.120932  0  0.968279  0  0  0.126594  0  1.033746  0  0  0.130092  0  1.032512  0  0  0.099636  0.123851  0  1.03507  0
H  H21  1  0.91191522  0.71527660  0.57998792  1  0  0.121699  0  0.968898  0  0  0.127055  0  1.034478  0  0  0.130576  0  1.033177  0  0  0.100024  0.124313  0  1.035817  0
H  H22  1  0.36473918  0.66823238  0.07970497  1  0  0.120918  0  0.96827  0  0  0.126559  0  1.033763  0  0  0.130056  0  1.032529  0  0  0.099635  0.123815  0  1.035086  0
H  H23  1  0.08808326  0.28472500  0.42000983  1  0  0.121726  0  0.968891  0  0  0.127076  0  1.034488  0  0  0.130594  0  1.033191  0  0  0.100042  0.124339  0  1.035813  0
H  H24  1  0.65615807  0.40833227  0.75407115  1  0  0.094657  0  0.962054  0  0  0.099882  0  1.03281  0  0  0.102666  0  1.030683  0  0  0.100893  0.097876  0  1.034386  0
H  H25  1  0.15442619  0.90252712  0.74640296  1  0  0.094302  0  0.960914  0  0  0.099451  0  1.031741  0  0  0.10217  0  1.02972  0  0  0.101024  0.097486  0  1.033277  0
H  H26  1  0.34384900  0.59166829  0.24593125  1  0  0.094656  0  0.962087  0  0  0.099872  0  1.032833  0  0  0.102643  0  1.030737  0  0  0.100901  0.097866  0  1.034412  0
H  H27  1  0.84557229  0.09747448  0.25359479  1  0  0.094312  0  0.96087  0  0  0.099466  0  1.031693  0  0  0.102186  0  1.029671  0  0  0.101021  0.0975  0  1.033238  0
H  H28  1  0.56793693  0.23848717  0.56448245  1  0  0.110488  0  0.999925  0  0  0.116317  0  1.068173  0  0  0.120196  0  1.06625  0  0  0.088141  0.113409  0  1.069912  0
H  H29  1  0.17356304  0.00365576  0.93573789  1  0  0.11072  0  0.999138  0  0  0.115712  0  1.068357  0  0  0.119583  0  1.066455  0  0  0.08813  0.11283  0  1.070054  0
H  H30  1  0.43206983  0.76151441  0.43551836  1  0  0.110537  0  0.99991  0  0  0.116332  0  1.068189  0  0  0.120208  0  1.06627  0  0  0.088144  0.113426  0  1.069927  0
H  H31  1  0.82643820  0.99634279  0.06426299  1  0  0.110714  0  0.999169  0  0  0.115715  0  1.068379  0  0  0.119586  0  1.066476  0  0  0.088138  0.112834  0  1.070076  0
H  H32  1  0.44994959  0.99325180  0.55161771  1  0  0.074186  0  0.947723  0  0  0.082958  0  1.01197  0  0  0.085192  0  1.009789  0  0  0.114532  0.081215  0  1.013838  0
H  H33  1  0.94082883  0.89807322  0.94828596  1  0  0.073773  0  0.946871  0  0  0.082728  0  1.011177  0  0  0.084888  0  1.009064  0  0  0.113719  0.080974  0  1.013064  0
H  H34  1  0.55005166  0.00674979  0.44838183  1  0  0.07419  0  0.947708  0  0  0.082963  0  1.011955  0  0  0.085196  0  1.009774  0  0  0.114535  0.08122  0  1.013822  0
H  H35  1  0.05917334  0.10192533  0.05171603  1  0  0.073787  0  0.946832  0  0  0.082741  0  1.01115  0  0  0.084895  0  1.009043  0  0  0.113721  0.080983  0  1.013039  0
C  C36  1  0.92437663  0.45434100  0.28367190  1  0  0.148034  0  3.676965  0  0  0.116386  0  3.92839  0  0  0.123004  0  3.946556  0  0  0.057085  0.11215  0  3.915554  0
C  C37  1  0.67058943  0.64074885  0.21636870  1  0  0.148367  0  3.673333  0  0  0.116659  0  3.924727  0  0  0.123285  0  3.942885  0  0  0.058212  0.112411  0  3.911907  0
C  C38  1  0.07562676  0.54565653  0.71633124  1  0  0.148024  0  3.676792  0  0  0.11639  0  3.928238  0  0  0.12301  0  3.946402  0  0  0.05709  0.112155  0  3.915402  0
C  C39  1  0.32940998  0.35925275  0.78363016  1  0  0.148303  0  3.673334  0  0  0.116637  0  3.924705  0  0  0.123264  0  3.942865  0  0  0.058217  0.112389  0  3.911888  0
C  C40  1  0.02754712  0.51583014  0.24683152  1  0  -0.086803  0  3.684028  0  0  -0.100035  0  3.930846  0  0  -0.105965  0  3.951816  0  0  -0.068891  -0.09598  0  3.916344  0
C  C41  1  0.76896217  0.78074515  0.25324567  1  0  -0.088006  0  3.685657  0  0  -0.101853  0  3.932969  0  0  -0.107791  0  3.953973  0  0  -0.070106  -0.097782  0  3.918445  0
C  C42  1  0.97245721  0.48417043  0.75317295  1  0  -0.086771  0  3.684102  0  0  -0.100012  0  3.930914  0  0  -0.105943  0  3.951883  0  0  -0.06886  -0.095956  0  3.916409  0
C  C43  1  0.23103354  0.21925342  0.74675084  1  0  -0.087989  0  3.685649  0  0  -0.10185  0  3.932958  0  0  -0.107797  0  3.953963  0  0  -0.070115  -0.097779  0  3.918434  0
C  C44  1  0.99942342  0.44559426  0.13935780  1  0  0.00295  0  3.691805  0  0  -0.016492  0  3.943068  0  0  -0.013633  0  3.961728  0  0  -0.063273  -0.018034  0  3.930299  0
C  C45  1  0.80632075  0.86004741  0.36077462  1  0  0.003814  0  3.693882  0  0  -0.015397  0  3.945078  0  0  -0.012515  0  3.963746  0  0  -0.062828  -0.016944  0  3.932296  0
C  C46  1  0.00057660  0.55440531  0.86064269  1  0  0.002965  0  3.691871  0  0  -0.016483  0  3.943127  0  0  -0.013626  0  3.96179  0  0  -0.063232  -0.018026  0  3.930359  0
C  C47  1  0.19367713  0.13995318  0.63922515  1  0  0.003753  0  3.69394  0  0  -0.015438  0  3.945134  0  0  -0.012555  0  3.963801  0  0  -0.062849  -0.016988  0  3.932354  0
C  C48  1  0.86696609  0.31916376  0.07019188  1  0  -0.131927  0  3.704759  0  0  -0.151447  0  3.953995  0  0  -0.157834  0  3.9757  0  0  -0.073763  -0.147547  0  3.939694  0
C  C49  1  0.74899727  0.79674926  0.42991399  1  0  -0.130681  0  3.703419  0  0  -0.150332  0  3.952801  0  0  -0.156778  0  3.974513  0  0  -0.073393  -0.146394  0  3.938496  0
C  C50  1  0.13303641  0.68083986  0.92981057  1  0  -0.131966  0  3.704792  0  0  -0.151459  0  3.953977  0  0  -0.157848  0  3.975682  0  0  -0.073777  -0.147559  0  3.939675  0
C  C51  1  0.25100182  0.20325031  0.57008462  1  0  -0.130609  0  3.703375  0  0  -0.150266  0  3.952743  0  0  -0.156709  0  3.974456  0  0  -0.073378  -0.146328  0  3.938438  0
C  C52  1  0.76699953  0.26520153  0.11140120  1  0  0.176893  0  3.750927  0  0  0.172359  0  3.993939  0  0  0.177764  0  4.015539  0  0  0.121306  0.16891  0  3.979274  0
C  C53  1  0.65382962  0.65561018  0.38867819  1  0  0.17535  0  3.750348  0  0  0.170899  0  3.992644  0  0  0.176321  0  4.014286  0  0  0.119823  0.167444  0  3.97796  0
C  C54  1  0.23300048  0.73479804  0.88859852  1  0  0.176908  0  3.751043  0  0  0.172398  0  3.993992  0  0  0.177803  0  4.015595  0  0  0.121317  0.168947  0  3.979329  0
C  C55  1  0.34616917  0.34439041  0.61132037  1  0  0.175272  0  3.750189  0  0  0.170835  0  3.992476  0  0  0.176255  0  4.01412  0  0  0.119821  0.167382  0  3.977792  0
C  C56  1  0.62643005  0.12829658  0.04738115  1  0  0.146963  0  3.683676  0  0  0.136175  0  3.932584  0  0  0.141602  0  3.948362  0  0  0.141721  0.132248  0  3.922422  0
C  C57  1  0.58088720  0.57906763  0.45266244  1  0  0.147219  0  3.682465  0  0  0.137347  0  3.930447  0  0  0.142655  0  3.946276  0  0  0.142507  0.133456  0  3.92028  0
C  C58  1  0.37356629  0.87170300  0.95261876  1  0  0.146801  0  3.683541  0  0  0.136037  0  3.932438  0  0  0.141451  0  3.948208  0  0  0.141646  0.132117  0  3.922278  0
C  C59  1  0.41911068  0.42093296  0.54733656  1  0  0.147231  0  3.682454  0  0  0.137379  0  3.930411  0  0  0.14269  0  3.946235  0  0  0.142482  0.133485  0  3.920245  0
C  C60  1  0.52818012  0.06502886  0.92235581  1  0  0.150385  0  3.679397  0  0  0.14013  0  3.927908  0  0  0.145295  0  3.943541  0  0  0.143613  0.135853  0  3.918127  0
C  C61  1  0.64272331  0.60574011  0.57766759  1  0  0.148771  0  3.679865  0  0  0.137848  0  3.929038  0  0  0.143156  0  3.944467  0  0  0.141485  0.133562  0  3.919286  0
C  C62  1  0.47181684  0.93497173  0.07764362  1  0  0.150465  0  3.679344  0  0  0.14015  0  3.927892  0  0  0.145353  0  3.943478  0  0  0.14363  0.13586  0  3.918126  0
C  C63  1  0.35727702  0.39426148  0.42233238  1  0  0.1487  0  3.679869  0  0  0.137756  0  3.92906  0  0  0.143062  0  3.944486  0  0  0.141464  0.133475  0  3.919306  0
C  C64  1  0.54379239  0.12240130  0.82771110  1  0  0.179892  0  3.75587  0  0  0.175773  0  3.996865  0  0  0.181386  0  4.017782  0  0  0.118966  0.172175  0  3.98268  0
C  C65  1  0.79471378  0.71602013  0.67233600  1  0  0.184187  0  3.750249  0  0  0.180158  0  3.99108  0  0  0.185742  0  4.011968  0  0  0.121474  0.17653  0  3.976946  0
C  C66  1  0.45620578  0.87759827  0.17228794  1  0  0.179915  0  3.755866  0  0  0.175871  0  3.99677  0  0  0.181474  0  4.017682  0  0  0.119029  0.172275  0  3.982585  0
C  C67  1  0.20528685  0.28398045  0.32766402  1  0  0.184257  0  3.75015  0  0  0.180243  0  3.990965  0  0  0.185831  0  4.01185  0  0  0.121503  0.176608  0  3.976835  0
C  C68  1  0.60081190  0.25900879  0.84002716  1  0  -0.138127  0  3.695287  0  0  -0.157023  0  3.942001  0  0  -0.163498  0  3.963655  0  0  -0.077683  -0.152517  0  3.927458  0
C  C69  1  0.91917674  0.76095356  0.66018549  1  0  -0.142026  0  3.696368  0  0  -0.160589  0  3.943457  0  0  -0.167043  0  3.965097  0  0  -0.079557  -0.156088  0  3.928939  0
C  C70  1  0.39918625  0.74098774  0.15997089  1  0  -0.138098  0  3.69518  0  0  -0.156991  0  3.94187  0  0  -0.163462  0  3.963521  0  0  -0.077705  -0.152483  0  3.927322  0
C  C71  1  0.08082114  0.23904703  0.33981428  1  0  -0.142006  0  3.696422  0  0  -0.160568  0  3.943492  0  0  -0.167021  0  3.965131  0  0  -0.079527  -0.156064  0  3.928979  0
C  C72  1  0.61131712  0.30193557  0.74537019  1  0  0.001256  0  3.709188  0  0  -0.01699  0  3.960305  0  0  -0.014663  0  3.980216  0  0  -0.068117  -0.018371  0  3.946752  0
C  C73  1  0.05655903  0.86622199  0.75493600  1  0  0.003467  0  3.707777  0  0  -0.014832  0  3.95912  0  0  -0.012472  0  3.979077  0  0  -0.067863  -0.016243  0  3.9455  0
C  C74  1  0.38868411  0.69806298  0.25462991  1  0  0.001242  0  3.709127  0  0  -0.016993  0  3.960229  0  0  -0.014666  0  3.980135  0  0  -0.068132  -0.018374  0  3.946674  0
C  C75  1  0.94344191  0.13378062  0.24506350  1  0  0.003444  0  3.707897  0  0  -0.01487  0  3.959266  0  0  -0.012511  0  3.979226  0  0  -0.067883  -0.016288  0  3.945651  0
C  C76  1  0.56143372  0.20816500  0.64044815  1  0  -0.112896  0  3.702168  0  0  -0.124048  0  3.947376  0  0  -0.130722  0  3.968535  0  0  -0.081869  -0.119679  0  3.933453  0
C  C77  1  0.06736875  0.92113392  0.85971578  1  0  -0.114491  0  3.702197  0  0  -0.124727  0  3.947371  0  0  -0.131404  0  3.968503  0  0  -0.082822  -0.120368  0  3.93346  0
C  C78  1  0.43856937  0.79183659  0.35955284  1  0  -0.112918  0  3.702166  0  0  -0.124038  0  3.947374  0  0  -0.130709  0  3.968532  0  0  -0.081857  -0.119671  0  3.933453  0
C  C79  1  0.93263126  0.07886565  0.14028316  1  0  -0.114494  0  3.702229  0  0  -0.12474  0  3.94741  0  0  -0.131417  0  3.968542  0  0  -0.08283  -0.120383  0  3.9335  0
C  C80  1  0.49875817  0.07273224  0.63342143  1  0  0.134956  0  3.714622  0  0  0.104811  0  3.964292  0  0  0.111076  0  3.982892  0  0  0.049499  0.100494  0  3.952018  0
C  C81  1  0.93882840  0.86526553  0.86659337  1  0  0.135827  0  3.714416  0  0  0.105293  0  3.963755  0  0  0.11163  0  3.982378  0  0  0.050591  0.100976  0  3.951476  0
C  C82  1  0.50124245  0.92726834  0.36657782  1  0  0.13496  0  3.714681  0  0  0.104812  0  3.964351  0  0  0.111077  0  3.982951  0  0  0.049486  0.100495  0  3.952079  0
C  C83  1  0.06117161  0.13473404  0.13340635  1  0  0.135746  0  3.714373  0  0  0.105221  0  3.963709  0  0  0.111561  0  3.982336  0  0  0.05054  0.100905  0  3.951426  0
N  N84  1  0.79853396  0.33142927  0.21852086  1  0  -0.341662  0  3.241488  0  0  -0.268935  0  3.496264  0  0  -0.288404  0  3.516431  0  0  -0.319448  -0.255575  0  3.482178  0
N  N85  1  0.61289146  0.58004400  0.28154125  1  0  -0.340928  0  3.239856  0  0  -0.267653  0  3.493743  0  0  -0.287133  0  3.513904  0  0  -0.318896  -0.254288  0  3.479657  0
N  N86  1  0.20146882  0.66857029  0.78148143  1  0  -0.341694  0  3.241522  0  0  -0.268998  0  3.496312  0  0  -0.28847  0  3.516479  0  0  -0.319513  -0.25564  0  3.482228  0
N  N87  1  0.38710642  0.41995658  0.71845929  1  0  -0.340887  0  3.239775  0  0  -0.267656  0  3.493681  0  0  -0.287138  0  3.513843  0  0  -0.318922  -0.254289  0  3.47959  0
N  N88  1  0.59310652  0.05985871  0.11905976  1  0  -0.318911  0  3.248264  0  0  -0.265812  0  3.507778  0  0  -0.278588  0  3.522646  0  0  -0.303865  -0.256853  0  3.497776  0
N  N89  1  0.44074620  0.47418031  0.38094644  1  0  -0.31888  0  3.248247  0  0  -0.266202  0  3.508211  0  0  -0.278966  0  3.523038  0  0  -0.303524  -0.25726  0  3.4982  0
N  N90  1  0.40689014  0.94014290  0.88093885  1  0  -0.318812  0  3.248053  0  0  -0.265733  0  3.507552  0  0  -0.278501  0  3.522438  0  0  -0.30382  -0.256781  0  3.497547  0
N  N91  1  0.55925168  0.52582028  0.61905333  1  0  -0.318863  0  3.248201  0  0  -0.266188  0  3.508153  0  0  -0.278957  0  3.522983  0  0  -0.303501  -0.257246  0  3.498145  0
N  N92  1  0.49133620  0.03089333  0.72481148  1  0  -0.339775  0  3.245628  0  0  -0.270244  0  3.500868  0  0  -0.288489  0  3.519781  0  0  -0.321093  -0.257909  0  3.487858  0
N  N93  1  0.80579696  0.76634081  0.77512379  1  0  -0.340269  0  3.244818  0  0  -0.270352  0  3.499788  0  0  -0.28862  0  3.518731  0  0  -0.320465  -0.257992  0  3.486741  0
N  N94  1  0.50866227  0.96910523  0.27518760  1  0  -0.339822  0  3.245735  0  0  -0.270319  0  3.500966  0  0  -0.288561  0  3.519879  0  0  -0.32111  -0.257983  0  3.487954  0
N  N95  1  0.19420522  0.23366078  0.22487764  1  0  -0.340238  0  3.244796  0  0  -0.270332  0  3.499759  0  0  -0.288598  0  3.518697  0  0  -0.320455  -0.257968  0  3.486706  0
Cl  Cl96  1  0.88251598  0.21635858  0.48249478  1  0  -0.633573  0  0.754157  0  0  -0.574853  0  0.979421  0  0  -0.591529  0  0.961471  0  0  -0.386026  -0.562468  0  0.991577  0
Cl  Cl97  1  0.23381876  0.39992079  0.01737763  1  0  -0.633921  0  0.754116  0  0  -0.575119  0  0.979439  0  0  -0.591769  0  0.961458  0  0  -0.386059  -0.562737  0  0.991579  0
Cl  Cl98  1  0.11748280  0.78363592  0.51750567  1  0  -0.63357  0  0.754158  0  0  -0.574851  0  0.979411  0  0  -0.591528  0  0.961458  0  0  -0.386031  -0.562465  0  0.991568  0
Cl  Cl99  1  0.76618219  0.60007877  0.98262397  1  0  -0.633926  0  0.754111  0  0  -0.575127  0  0.979441  0  0  -0.591777  0  0.961458  0  0  -0.386054  -0.562742  0  0.991581  0
Cl  Cl100  1  0.60594859  0.32808465  0.41178286  1  0  -0.594602  0  0.95027  0  0  -0.534523  0  1.216228  0  0  -0.552963  0  1.196886  0  0  -0.34195  -0.52066  0  1.229693  0
Cl  Cl101  1  0.41624761  0.19422838  0.08806629  1  0  -0.594651  0  0.949894  0  0  -0.534419  0  1.215786  0  0  -0.552826  0  1.196399  0  0  -0.341938  -0.520559  0  1.229226  0
Cl  Cl102  1  0.39404680  0.67191189  0.58821339  1  0  -0.594629  0  0.950264  0  0  -0.534543  0  1.216216  0  0  -0.552984  0  1.196874  0  0  -0.341945  -0.520678  0  1.229681  0
Cl  Cl103  1  0.58374625  0.80576715  0.91192933  1  0  -0.594654  0  0.949846  0  0  -0.534449  0  1.215789  0  0  -0.552857  0  1.196399  0  0  -0.341953  -0.520586  0  1.229227  0
