# generated using pymatgen
data_KH2C6N3O7
_symmetry_space_group_name_H-M   'P 1'
_cell_length_a   7.15070852
_cell_length_b   12.23669175
_cell_length_c   12.23670138
_cell_angle_alpha   66.17560326
_cell_angle_beta   72.99535437
_cell_angle_gamma   72.99517468
_symmetry_Int_Tables_number   1
_chemical_formula_structural   KH2C6N3O7
_chemical_formula_sum   'K4 H8 C24 N12 O28'
_cell_volume   917.87749546
_cell_formula_units_Z   4
loop_
 _symmetry_equiv_pos_site_id
 _symmetry_equiv_pos_as_xyz
  1  'x, y, z'
loop_
 _atom_site_type_symbol
 _atom_site_label
 _atom_site_symmetry_multiplicity
 _atom_site_fract_x
 _atom_site_fract_y
 _atom_site_fract_z
 _atom_site_occupancy
 _atom_site_hle17_bader_spin_density
 _atom_site_hle17_ddec_charge
 _atom_site_hle17_ddec_spin_density
 _atom_site_hle17_ddec_sum_bond_order
 _atom_site_hle17_magmom
 _atom_site_hse06_10hf_bader_spin_density
 _atom_site_hse06_10hf_ddec_charge
 _atom_site_hse06_10hf_ddec_spin_density
 _atom_site_hse06_10hf_ddec_sum_bond_order
 _atom_site_hse06_10hf_magmom
 _atom_site_hse06_bader_spin_density
 _atom_site_hse06_ddec_charge
 _atom_site_hse06_ddec_spin_density
 _atom_site_hse06_ddec_sum_bond_order
 _atom_site_hse06_magmom
 _atom_site_pbe_bader_spin_density
 _atom_site_pbe_cm5_charge
 _atom_site_pbe_ddec_charge
 _atom_site_pbe_ddec_spin_density
 _atom_site_pbe_ddec_sum_bond_order
 _atom_site_pbe_magmom
K  K0  1  0.25000152  0.11507375  0.88492552  1  0  0.926564  0  0.465843  0  0  0.871719  0  0.664638  0  0  0.887638  0  0.637583  0  0  0.815137  0.859885  0  0.683986  0
K  K1  1  0.74999524  0.38515924  0.61484712  1  0  0.926498  0  0.466399  0  0  0.871083  0  0.666003  0  0  0.887136  0  0.638843  0  0  0.815331  0.859131  0  0.685483  0
K  K2  1  0.75000213  0.88492536  0.11507378  1  0  0.92656  0  0.465851  0  0  0.871735  0  0.664641  0  0  0.887651  0  0.637589  0  0  0.815146  0.859907  0  0.68399  0
K  K3  1  0.25000282  0.61484146  0.38514944  1  0  0.926473  0  0.466413  0  0  0.871071  0  0.66602  0  0  0.887131  0  0.638857  0  0  0.815332  0.859133  0  0.685499  0
H  H4  1  0.60947277  0.36855543  0.16221250  1  0  0.143856  0  0.947613  0  0  0.143242  0  1.020627  0  0  0.147746  0  1.015635  0  0  0.124815  0.139997  0  1.024136  0
H  H5  1  0.64036652  0.13152305  0.33758197  1  0  0.143937  0  0.947172  0  0  0.142847  0  1.020775  0  0  0.14737  0  1.015706  0  0  0.1248  0.139611  0  1.024306  0
H  H6  1  0.89052732  0.83778991  0.63144453  1  0  0.143839  0  0.947622  0  0  0.143264  0  1.020577  0  0  0.147771  0  1.015587  0  0  0.124823  0.140019  0  1.024084  0
H  H7  1  0.85963486  0.66241625  0.86847821  1  0  0.143968  0  0.947173  0  0  0.142883  0  1.020754  0  0  0.147406  0  1.015684  0  0  0.124808  0.139639  0  1.024301  0
H  H8  1  0.39052642  0.63144375  0.83778680  1  0  0.143798  0  0.947716  0  0  0.143285  0  1.020583  0  0  0.147791  0  1.015594  0  0  0.124834  0.140044  0  1.02409  0
H  H9  1  0.35963549  0.86847770  0.66241733  1  0  0.143863  0  0.94728  0  0  0.14288  0  1.020754  0  0  0.147402  0  1.015685  0  0  0.124819  0.139643  0  1.024291  0
H  H10  1  0.10946771  0.16221159  0.36855751  1  0  0.143856  0  0.947561  0  0  0.143249  0  1.020588  0  0  0.147754  0  1.015597  0  0  0.12483  0.140005  0  1.024096  0
H  H11  1  0.14036888  0.33758362  0.13152200  1  0  0.143988  0  0.947121  0  0  0.142902  0  1.020709  0  0  0.147423  0  1.015642  0  0  0.124815  0.139668  0  1.024232  0
C  C12  1  0.87783200  0.37233475  0.87209723  1  0  0.342137  0  3.868825  0  0  0.319608  0  4.147993  0  0  0.342689  0  4.158882  0  0  0.121869  0.304376  0  4.140076  0
C  C13  1  0.62216751  0.12790716  0.62766290  1  0  0.34228  0  3.868655  0  0  0.319702  0  4.147885  0  0  0.342789  0  4.158768  0  0  0.121877  0.304463  0  4.13997  0
C  C14  1  0.12216677  0.62766631  0.12790207  1  0  0.342247  0  3.868685  0  0  0.319702  0  4.147866  0  0  0.342783  0  4.158752  0  0  0.121891  0.304472  0  4.139949  0
C  C15  1  0.37783368  0.87209441  0.37233640  1  0  0.341819  0  3.868749  0  0  0.319687  0  4.147961  0  0  0.34277  0  4.158845  0  0  0.12186  0.304448  0  4.14005  0
C  C16  1  0.76951514  0.33057898  0.99905805  1  0  -0.035195  0  3.59323  0  0  -0.057063  0  3.848332  0  0  -0.070376  0  3.869185  0  0  0.068505  -0.048826  0  3.834506  0
C  C17  1  0.59902419  0.16961815  0.50068312  1  0  -0.03771  0  3.594242  0  0  -0.056992  0  3.848081  0  0  -0.070394  0  3.869067  0  0  0.067932  -0.048673  0  3.834133  0
C  C18  1  0.73048733  0.00094032  0.66942586  1  0  -0.035228  0  3.593089  0  0  -0.057036  0  3.848181  0  0  -0.070351  0  3.869034  0  0  0.068529  -0.048801  0  3.834357  0
C  C19  1  0.90097540  0.49931663  0.83038426  1  0  -0.037679  0  3.594248  0  0  -0.056916  0  3.847954  0  0  -0.070314  0  3.868938  0  0  0.067952  -0.048605  0  3.834012  0
C  C20  1  0.23048383  0.66942165  0.00093943  1  0  -0.035235  0  3.593189  0  0  -0.057036  0  3.848301  0  0  -0.07035  0  3.869155  0  0  0.068528  -0.048803  0  3.834478  0
C  C21  1  0.40097710  0.83038417  0.49931709  1  0  -0.035418  0  3.593175  0  0  -0.057008  0  3.848021  0  0  -0.070407  0  3.869004  0  0  0.067916  -0.048687  0  3.834074  0
C  C22  1  0.26951453  0.99905690  0.33057891  1  0  -0.035351  0  3.593375  0  0  -0.057131  0  3.848334  0  0  -0.070444  0  3.869185  0  0  0.068499  -0.048899  0  3.834512  0
C  C23  1  0.09902419  0.50068362  0.16961504  1  0  -0.03765  0  3.59408  0  0  -0.056918  0  3.847883  0  0  -0.070315  0  3.868867  0  0  0.067956  -0.048607  0  3.833941  0
C  C24  1  0.69357552  0.40340130  0.06973126  1  0  -0.076137  0  3.698992  0  0  -0.11663  0  3.972444  0  0  -0.105848  0  3.986988  0  0  -0.057999  -0.122936  0  3.962088  0
C  C25  1  0.66676128  0.09675492  0.43007527  1  0  -0.074692  0  3.696081  0  0  -0.115139  0  3.968835  0  0  -0.104296  0  3.983373  0  0  -0.057325  -0.121527  0  3.958534  0
C  C26  1  0.80642589  0.93026998  0.59659859  1  0  -0.0762  0  3.699008  0  0  -0.116705  0  3.972334  0  0  -0.105928  0  3.986882  0  0  -0.058019  -0.123009  0  3.961973  0
C  C27  1  0.83323760  0.56992366  0.90324732  1  0  -0.074804  0  3.69631  0  0  -0.115224  0  3.96907  0  0  -0.104391  0  3.983625  0  0  -0.057377  -0.12161  0  3.958762  0
C  C28  1  0.30642233  0.59659983  0.93026713  1  0  -0.076196  0  3.699053  0  0  -0.116701  0  3.972405  0  0  -0.105925  0  3.986954  0  0  -0.058021  -0.123002  0  3.962034  0
C  C29  1  0.33323971  0.90324709  0.56992586  1  0  -0.075177  0  3.695863  0  0  -0.115227  0  3.96901  0  0  -0.104389  0  3.983556  0  0  -0.057368  -0.121616  0  3.958714  0
C  C30  1  0.19357543  0.06972939  0.40340162  1  0  -0.07612  0  3.699023  0  0  -0.116605  0  3.9724  0  0  -0.105825  0  3.986943  0  0  -0.058011  -0.122909  0  3.962044  0
C  C31  1  0.16676038  0.43007527  0.09675198  1  0  -0.074829  0  3.696226  0  0  -0.115287  0  3.969029  0  0  -0.104451  0  3.983575  0  0  -0.057408  -0.121672  0  3.95873  0
C  C32  1  0.72767031  0.52228410  0.02215700  1  0  0.042877  0  3.749735  0  0  0.029593  0  4.013242  0  0  0.015761  0  4.040359  0  0  0.061283  0.038216  0  3.994953  0
C  C33  1  0.77233225  0.97784118  0.47771341  1  0  0.042706  0  3.749754  0  0  0.029537  0  4.013088  0  0  0.015706  0  4.040203  0  0  0.061265  0.038166  0  3.994795  0
C  C34  1  0.27232656  0.47771533  0.97784321  1  0  0.042874  0  3.749702  0  0  0.029625  0  4.013178  0  0  0.015797  0  4.040295  0  0  0.061303  0.038244  0  3.994896  0
C  C35  1  0.22767061  0.02215580  0.52228589  1  0  0.042705  0  3.749877  0  0  0.02961  0  4.013162  0  0  0.015778  0  4.04028  0  0  0.061287  0.038233  0  3.994872  0
N  N36  1  0.72810853  0.20835457  0.05449430  1  0  0.49975  0  3.930059  0  0  0.567073  0  4.17206  0  0  0.5908  0  4.179004  0  0  0.050399  0.551161  0  4.167473  0
N  N37  1  0.49055752  0.29178481  0.44528658  1  0  0.505506  0  3.935494  0  0  0.567045  0  4.179476  0  0  0.590816  0  4.186421  0  0  0.049879  0.551103  0  4.17486  0
N  N38  1  0.77189256  0.94550731  0.79164196  1  0  0.499817  0  3.92999  0  0  0.567038  0  4.172104  0  0  0.590766  0  4.179046  0  0  0.050328  0.551126  0  4.167521  0
N  N39  1  0.00944368  0.55471239  0.70821632  1  0  0.505435  0  3.935535  0  0  0.567008  0  4.179398  0  0  0.590777  0  4.186344  0  0  0.049883  0.55107  0  4.174777  0
N  N40  1  0.27189119  0.79164348  0.94550591  1  0  0.499874  0  3.929932  0  0  0.567016  0  4.172139  0  0  0.590743  0  4.179082  0  0  0.050335  0.55111  0  4.167548  0
N  N41  1  0.50944622  0.70821506  0.55471364  1  0  0.500237  0  3.937158  0  0  0.567055  0  4.179406  0  0  0.590825  0  4.186351  0  0  0.049922  0.55111  0  4.174791  0
N  N42  1  0.22810854  0.05449351  0.20835643  1  0  0.499707  0  3.930158  0  0  0.56706  0  4.172116  0  0  0.590786  0  4.179059  0  0  0.050368  0.551148  0  4.167532  0
N  N43  1  0.99055532  0.44528722  0.29178481  1  0  0.505485  0  3.935342  0  0  0.567008  0  4.179354  0  0  0.590778  0  4.186299  0  0  0.049877  0.551069  0  4.174737  0
N  N44  1  0.65298504  0.59699416  0.09692834  1  0  0.473107  0  3.973476  0  0  0.520181  0  4.249814  0  0  0.540813  0  4.26318  0  0  0.041216  0.506438  0  4.240815  0
N  N45  1  0.84701650  0.90307163  0.40300593  1  0  0.473298  0  3.973682  0  0  0.520367  0  4.24995  0  0  0.541  0  4.263316  0  0  0.041275  0.506614  0  4.240964  0
N  N46  1  0.34701395  0.40300546  0.90307279  1  0  0.473073  0  3.973388  0  0  0.520135  0  4.24975  0  0  0.540768  0  4.263116  0  0  0.04114  0.506389  0  4.240755  0
N  N47  1  0.15298452  0.09692742  0.59699520  1  0  0.473059  0  3.973505  0  0  0.520142  0  4.249821  0  0  0.540774  0  4.26319  0  0  0.041164  0.506397  0  4.240824  0
O  O48  1  0.94280241  0.30735050  0.80697498  1  0  -0.558181  0  2.02869  0  0  -0.536803  0  2.264071  0  0  -0.558956  0  2.25953  0  0  -0.402273  -0.520794  0  2.266406  0
O  O49  1  0.55719823  0.19302682  0.69264740  1  0  -0.558197  0  2.028713  0  0  -0.536798  0  2.264103  0  0  -0.558953  0  2.259561  0  0  -0.402244  -0.520784  0  2.266439  0
O  O50  1  0.05719433  0.69265114  0.19302432  1  0  -0.558251  0  2.028641  0  0  -0.536864  0  2.264016  0  0  -0.559019  0  2.259475  0  0  -0.402288  -0.520859  0  2.266356  0
O  O51  1  0.44280378  0.80697393  0.30735190  1  0  -0.558284  0  2.028864  0  0  -0.536777  0  2.264104  0  0  -0.55893  0  2.259561  0  0  -0.40223  -0.520769  0  2.266448  0
O  O52  1  0.84291607  0.12643487  0.01744917  1  0  -0.389167  0  1.799121  0  0  -0.392457  0  2.006602  0  0  -0.403181  0  1.998563  0  0  -0.189492  -0.385079  0  2.012089  0
O  O53  1  0.48638641  0.37373044  0.48224723  1  0  -0.391772  0  1.801283  0  0  -0.392388  0  2.009059  0  0  -0.403155  0  2.001078  0  0  -0.189349  -0.38501  0  2.014616  0
O  O54  1  0.65708498  0.98255001  0.87356412  1  0  -0.389213  0  1.799053  0  0  -0.392467  0  2.006565  0  0  -0.403194  0  1.998531  0  0  -0.189475  -0.385084  0  2.012052  0
O  O55  1  0.01361359  0.51775250  0.62627099  1  0  -0.391805  0  1.801337  0  0  -0.392388  0  2.009051  0  0  -0.403155  0  2.00107  0  0  -0.189339  -0.385012  0  2.014606  0
O  O56  1  0.15708434  0.87356456  0.98255013  1  0  -0.389207  0  1.799043  0  0  -0.392426  0  2.006576  0  0  -0.403156  0  1.99855  0  0  -0.189477  -0.38505  0  2.012067  0
O  O57  1  0.51361530  0.62626999  0.51775299  1  0  -0.389181  0  1.801234  0  0  -0.392384  0  2.009035  0  0  -0.403152  0  2.001055  0  0  -0.189353  -0.385005  0  2.01459  0
O  O58  1  0.34291483  0.01744879  0.12643701  1  0  -0.389168  0  1.799177  0  0  -0.392432  0  2.006627  0  0  -0.403161  0  1.9986  0  0  -0.18947  -0.385053  0  2.012114  0
O  O59  1  0.98638731  0.48224875  0.37372922  1  0  -0.391773  0  1.801233  0  0  -0.392376  0  2.009021  0  0  -0.403142  0  2.001041  0  0  -0.189342  -0.385  0  2.014578  0
O  O60  1  0.57750217  0.19089501  0.13746703  1  0  -0.36106  0  1.767209  0  0  -0.357488  0  1.966219  0  0  -0.372437  0  1.963881  0  0  -0.129709  -0.347461  0  1.967937  0
O  O61  1  0.40523664  0.30914177  0.36249383  1  0  -0.364163  0  1.772308  0  0  -0.357326  0  1.970844  0  0  -0.372263  0  1.968488  0  0  -0.129309  -0.347354  0  1.972635  0
O  O62  1  0.92249539  0.86253518  0.80910450  1  0  -0.361122  0  1.767213  0  0  -0.357494  0  1.966231  0  0  -0.372443  0  1.963894  0  0  -0.12971  -0.347463  0  1.96795  0
O  O63  1  0.09476562  0.63750332  0.69086026  1  0  -0.364147  0  1.772336  0  0  -0.357299  0  1.970862  0  0  -0.372234  0  1.968506  0  0  -0.129308  -0.347334  0  1.972654  0
O  O64  1  0.42249673  0.80910385  0.86253319  1  0  -0.361171  0  1.767255  0  0  -0.357495  0  1.966254  0  0  -0.372443  0  1.963917  0  0  -0.129704  -0.347469  0  1.967971  0
O  O65  1  0.59476741  0.69085841  0.63750547  1  0  -0.361485  0  1.772123  0  0  -0.357343  0  1.970872  0  0  -0.372279  0  1.968515  0  0  -0.129341  -0.347369  0  1.972662  0
O  O66  1  0.07750227  0.13746639  0.19089571  1  0  -0.361063  0  1.767233  0  0  -0.357499  0  1.966226  0  0  -0.372448  0  1.963889  0  0  -0.129708  -0.347464  0  1.96794  0
O  O67  1  0.90523652  0.36249523  0.30913996  1  0  -0.364136  0  1.772291  0  0  -0.357307  0  1.970835  0  0  -0.372244  0  1.968479  0  0  -0.129306  -0.347334  0  1.972619  0
O  O68  1  0.54268301  0.55721694  0.19816392  1  0  -0.394732  0  1.799849  0  0  -0.389367  0  2.024285  0  0  -0.401269  0  2.021192  0  0  -0.185321  -0.381365  0  2.026568  0
O  O69  1  0.79808528  0.94281757  0.30181964  1  0  -0.395142  0  1.802782  0  0  -0.38951  0  2.026655  0  0  -0.401373  0  2.023579  0  0  -0.185246  -0.381557  0  2.028944  0
O  O70  1  0.95731740  0.80183728  0.44278205  1  0  -0.394789  0  1.799947  0  0  -0.389359  0  2.024274  0  0  -0.401262  0  2.021183  0  0  -0.185255  -0.381353  0  2.026562  0
O  O71  1  0.70191368  0.69818211  0.05718046  1  0  -0.394978  0  1.802644  0  0  -0.38936  0  2.026529  0  0  -0.401223  0  2.023455  0  0  -0.185158  -0.381411  0  2.028814  0
O  O72  1  0.45731965  0.44278048  0.80183721  1  0  -0.394817  0  1.79996  0  0  -0.389389  0  2.024316  0  0  -0.401289  0  2.021218  0  0  -0.185295  -0.381383  0  2.026595  0
O  O73  1  0.20191505  0.05718010  0.69818239  1  0  -0.39494  0  1.802608  0  0  -0.389306  0  2.026484  0  0  -0.40117  0  2.023412  0  0  -0.185118  -0.381355  0  2.028769  0
O  O74  1  0.04268350  0.19816397  0.55721816  1  0  -0.39474  0  1.799852  0  0  -0.389374  0  2.024286  0  0  -0.401275  0  2.021196  0  0  -0.185286  -0.381368  0  2.026566  0
O  O75  1  0.29808643  0.30181700  0.94281975  1  0  -0.394886  0  1.802507  0  0  -0.389263  0  2.026399  0  0  -0.401126  0  2.023325  0  0  -0.185095  -0.381316  0  2.028686  0
