# generated using pymatgen
data_CdH7C8NO8
_symmetry_space_group_name_H-M   'P 1'
_cell_length_a   5.86549712
_cell_length_b   8.76879876
_cell_length_c   20.78782811
_cell_angle_alpha   89.99950896
_cell_angle_beta   90.00009164
_cell_angle_gamma   98.20351416
_symmetry_Int_Tables_number   1
_chemical_formula_structural   CdH7C8NO8
_chemical_formula_sum   'Cd4 H28 C32 N4 O32'
_cell_volume   1058.24744202
_cell_formula_units_Z   4
loop_
 _symmetry_equiv_pos_site_id
 _symmetry_equiv_pos_as_xyz
  1  'x, y, z'
loop_
 _atom_site_type_symbol
 _atom_site_label
 _atom_site_symmetry_multiplicity
 _atom_site_fract_x
 _atom_site_fract_y
 _atom_site_fract_z
 _atom_site_occupancy
 _atom_site_hle17_bader_spin_density
 _atom_site_hle17_ddec_charge
 _atom_site_hle17_ddec_spin_density
 _atom_site_hle17_ddec_sum_bond_order
 _atom_site_hle17_magmom
 _atom_site_hse06_10hf_bader_spin_density
 _atom_site_hse06_10hf_ddec_charge
 _atom_site_hse06_10hf_ddec_spin_density
 _atom_site_hse06_10hf_ddec_sum_bond_order
 _atom_site_hse06_10hf_magmom
 _atom_site_hse06_bader_spin_density
 _atom_site_hse06_ddec_charge
 _atom_site_hse06_ddec_spin_density
 _atom_site_hse06_ddec_sum_bond_order
 _atom_site_hse06_magmom
 _atom_site_pbe_bader_spin_density
 _atom_site_pbe_cm5_charge
 _atom_site_pbe_ddec_charge
 _atom_site_pbe_ddec_spin_density
 _atom_site_pbe_ddec_sum_bond_order
 _atom_site_pbe_magmom
Cd  Cd0  1  0.84059653  0.15886562  0.53639170  1  0  1.343972  0  1.509153  0  0  1.175875  0  1.950304  0  0  1.23227  0  1.888237  0  0  0.800383  1.132347  0  1.994949  0
Cd  Cd1  1  0.15940242  0.34113223  0.03639043  1  0  1.344023  0  1.50918  0  0  1.175898  0  1.950375  0  0  1.232281  0  1.888327  0  0  0.800369  1.132371  0  1.995024  0
Cd  Cd2  1  0.15940243  0.84113537  0.46361020  1  0  1.343965  0  1.509147  0  0  1.17585  0  1.950335  0  0  1.232245  0  1.888271  0  0  0.800355  1.13232  0  1.994983  0
Cd  Cd3  1  0.84060489  0.65886776  0.96361339  1  0  1.343968  0  1.509245  0  0  1.17585  0  1.950436  0  0  1.232229  0  1.888391  0  0  0.800361  1.132322  0  1.995086  0
H  H4  1  0.52438728  0.35929003  0.56581184  1  0  0.429711  0  0.82768  0  0  0.407046  0  0.889125  0  0  0.416822  0  0.877944  0  0  0.311422  0.399816  0  0.897448  0
H  H5  1  0.47560253  0.14070363  0.06580809  1  0  0.429774  0  0.827597  0  0  0.407103  0  0.889046  0  0  0.41688  0  0.877862  0  0  0.311467  0.399875  0  0.897367  0
H  H6  1  0.47560232  0.64070622  0.43419054  1  0  0.429799  0  0.827573  0  0  0.407136  0  0.889005  0  0  0.416912  0  0.877822  0  0  0.311484  0.399905  0  0.897328  0
H  H7  1  0.52440670  0.85929754  0.93419044  1  0  0.429756  0  0.827647  0  0  0.40708  0  0.889115  0  0  0.416858  0  0.877925  0  0  0.311435  0.39985  0  0.897438  0
H  H8  1  0.76711471  0.47097878  0.56181609  1  0  0.435106  0  0.868987  0  0  0.401119  0  0.935823  0  0  0.412941  0  0.919083  0  0  0.288145  0.392267  0  0.948274  0
H  H9  1  0.23287529  0.02901611  0.06181551  1  0  0.4351  0  0.868989  0  0  0.401114  0  0.935823  0  0  0.41294  0  0.91908  0  0  0.288135  0.392262  0  0.948274  0
H  H10  1  0.23287056  0.52902199  0.43818196  1  0  0.435129  0  0.868956  0  0  0.401078  0  0.93589  0  0  0.412907  0  0.919142  0  0  0.288121  0.392224  0  0.948344  0
H  H11  1  0.76713222  0.97098503  0.93818399  1  0  0.435092  0  0.868986  0  0  0.401099  0  0.935829  0  0  0.412938  0  0.919069  0  0  0.288139  0.392248  0  0.948277  0
H  H12  1  0.28371854  0.14960294  0.59664414  1  0  0.437328  0  0.864084  0  0  0.405015  0  0.930292  0  0  0.415763  0  0.914709  0  0  0.293584  0.397312  0  0.941456  0
H  H13  1  0.71628065  0.35039484  0.09664841  1  0  0.437422  0  0.863961  0  0  0.405118  0  0.930154  0  0  0.415868  0  0.914565  0  0  0.293582  0.397414  0  0.941323  0
H  H14  1  0.71627509  0.85039682  0.40335198  1  0  0.437404  0  0.863986  0  0  0.405081  0  0.930213  0  0  0.415832  0  0.914624  0  0  0.293558  0.39738  0  0.941375  0
H  H15  1  0.28372364  0.64960739  0.90335349  1  0  0.437381  0  0.864013  0  0  0.405062  0  0.930233  0  0  0.415813  0  0.914643  0  0  0.29356  0.39736  0  0.941397  0
H  H16  1  0.18610406  0.27950571  0.63798394  1  0  0.426759  0  0.864256  0  0  0.399877  0  0.920508  0  0  0.408609  0  0.90776  0  0  0.302854  0.393622  0  0.92972  0
H  H17  1  0.81389345  0.22049121  0.13798729  1  0  0.426848  0  0.864132  0  0  0.399921  0  0.920446  0  0  0.408652  0  0.9077  0  0  0.302845  0.393669  0  0.929653  0
H  H18  1  0.81389600  0.72049186  0.36201411  1  0  0.426867  0  0.864092  0  0  0.399939  0  0.920407  0  0  0.408669  0  0.907662  0  0  0.302851  0.393683  0  0.92962  0
H  H19  1  0.18610702  0.77950866  0.86201317  1  0  0.426904  0  0.864058  0  0  0.399994  0  0.920343  0  0  0.408724  0  0.907596  0  0  0.302882  0.393742  0  0.92955  0
H  H20  1  0.58523702  0.76659118  0.81614559  1  0  0.122415  0  0.973408  0  0  0.124126  0  1.047516  0  0  0.129099  0  1.042637  0  0  0.110453  0.120423  0  1.050939  0
H  H21  1  0.41477289  0.73340119  0.31614291  1  0  0.122458  0  0.97337  0  0  0.124067  0  1.047569  0  0  0.129042  0  1.042682  0  0  0.110454  0.120369  0  1.050989  0
H  H22  1  0.41475114  0.23339700  0.18385535  1  0  0.122463  0  0.973502  0  0  0.124121  0  1.047638  0  0  0.129097  0  1.04275  0  0  0.110492  0.120413  0  1.051083  0
H  H23  1  0.58523832  0.26659197  0.68385706  1  0  0.1224  0  0.973427  0  0  0.124084  0  1.047554  0  0  0.129058  0  1.042672  0  0  0.110474  0.120383  0  1.050974  0
H  H24  1  0.89462309  0.61430981  0.78317761  1  0  0.10191  0  0.963215  0  0  0.106038  0  1.033258  0  0  0.110167  0  1.030867  0  0  0.102106  0.103068  0  1.034893  0
H  H25  1  0.10537182  0.88568527  0.28318000  1  0  0.101896  0  0.963206  0  0  0.106033  0  1.033237  0  0  0.110164  0  1.03085  0  0  0.102101  0.103059  0  1.03489  0
H  H26  1  0.10536890  0.38568073  0.21682188  1  0  0.101926  0  0.963299  0  0  0.106044  0  1.033339  0  0  0.110174  0  1.030948  0  0  0.102119  0.10307  0  1.034994  0
H  H27  1  0.89462612  0.11430997  0.71682719  1  0  0.101893  0  0.96327  0  0  0.105991  0  1.033344  0  0  0.110108  0  1.030953  0  0  0.102109  0.103019  0  1.03499  0
H  H28  1  0.00367448  0.60334322  0.66792101  1  0  0.112692  0  0.933704  0  0  0.118077  0  1.000663  0  0  0.122214  0  0.99715  0  0  0.110651  0.115113  0  1.0031  0
H  H29  1  0.99633193  0.89665208  0.16791949  1  0  0.112587  0  0.933795  0  0  0.118002  0  1.00073  0  0  0.122128  0  0.997217  0  0  0.110609  0.115039  0  1.003167  0
H  H30  1  0.99631087  0.39664836  0.33207800  1  0  0.112684  0  0.933758  0  0  0.118087  0  1.000675  0  0  0.122219  0  0.997166  0  0  0.110647  0.115123  0  1.00311  0
H  H31  1  0.00366621  0.10334431  0.83208722  1  0  0.112541  0  0.933725  0  0  0.117949  0  1.000679  0  0  0.122076  0  0.997164  0  0  0.110596  0.114982  0  1.003114  0
C  C32  1  0.51446937  0.82934736  0.71828097  1  0  0.052844  0  3.690135  0  0  0.029516  0  3.945788  0  0  0.024632  0  3.969347  0  0  0.079134  0.031985  0  3.929665  0
C  C33  1  0.48553495  0.67064459  0.21827808  1  0  0.052708  0  3.690307  0  0  0.029318  0  3.946006  0  0  0.024435  0  3.969563  0  0  0.079007  0.031807  0  3.929848  0
C  C34  1  0.48553431  0.17065142  0.28171996  1  0  0.052869  0  3.690157  0  0  0.029485  0  3.945881  0  0  0.024599  0  3.969443  0  0  0.079111  0.031961  0  3.929746  0
C  C35  1  0.51445977  0.32935174  0.78171997  1  0  0.052693  0  3.690249  0  0  0.029382  0  3.945915  0  0  0.024497  0  3.969475  0  0  0.079045  0.031872  0  3.929753  0
C  C36  1  0.63069379  0.75706960  0.76571803  1  0  -0.075642  0  3.690596  0  0  -0.109114  0  3.9618  0  0  -0.106769  0  3.979387  0  0  -0.078319  -0.110112  0  3.948858  0
C  C37  1  0.36931569  0.74292148  0.26571722  1  0  -0.075552  0  3.690443  0  0  -0.108898  0  3.961674  0  0  -0.106552  0  3.979264  0  0  -0.078284  -0.109904  0  3.948727  0
C  C38  1  0.36930394  0.24292449  0.23428098  1  0  -0.075634  0  3.690492  0  0  -0.109031  0  3.961721  0  0  -0.106685  0  3.979308  0  0  -0.078343  -0.110035  0  3.948773  0
C  C39  1  0.63068628  0.25707726  0.73428516  1  0  -0.075529  0  3.690488  0  0  -0.108954  0  3.961667  0  0  -0.10661  0  3.979253  0  0  -0.078305  -0.109956  0  3.948719  0
C  C40  1  0.80501586  0.67427107  0.74736181  1  0  -0.06511  0  3.730378  0  0  -0.084117  0  4.001506  0  0  -0.089522  0  4.022766  0  0  -0.090475  -0.079848  0  3.98511  0
C  C41  1  0.19500119  0.82573429  0.24736253  1  0  -0.065104  0  3.730389  0  0  -0.084109  0  4.001489  0  0  -0.089517  0  4.02275  0  0  -0.090378  -0.079839  0  3.985087  0
C  C42  1  0.19497312  0.32572173  0.25263865  1  0  -0.065247  0  3.730484  0  0  -0.084251  0  4.001615  0  0  -0.089655  0  4.022872  0  0  -0.090518  -0.079984  0  3.985215  0
C  C43  1  0.80500331  0.17426909  0.75263984  1  0  -0.065194  0  3.730333  0  0  -0.084179  0  4.001486  0  0  -0.089566  0  4.022726  0  0  -0.090489  -0.079911  0  3.985078  0
C  C44  1  0.86641892  0.66766380  0.68260183  1  0  -0.011557  0  3.649164  0  0  -0.049419  0  3.917577  0  0  -0.045815  0  3.933836  0  0  -0.064298  -0.050907  0  3.905333  0
C  C45  1  0.13359325  0.83233474  0.18260298  1  0  -0.011532  0  3.64914  0  0  -0.049418  0  3.917578  0  0  -0.045802  0  3.933822  0  0  -0.06433  -0.050905  0  3.905333  0
C  C46  1  0.13358155  0.33233607  0.31739863  1  0  -0.011525  0  3.649278  0  0  -0.049362  0  3.917669  0  0  -0.045756  0  3.933927  0  0  -0.064279  -0.050849  0  3.905426  0
C  C47  1  0.86640127  0.16766044  0.81740085  1  0  -0.011277  0  3.648913  0  0  -0.049163  0  3.917277  0  0  -0.045543  0  3.933514  0  0  -0.064212  -0.050658  0  3.905057  0
C  C48  1  0.75759549  0.74741527  0.63619709  1  0  -0.061435  0  3.6991  0  0  -0.045263  0  3.934875  0  0  -0.052581  0  3.954424  0  0  -0.005173  -0.041803  0  3.923219  0
C  C49  1  0.24241535  0.75258649  0.13619618  1  0  -0.061287  0  3.699042  0  0  -0.045111  0  3.934794  0  0  -0.052425  0  3.954335  0  0  -0.005109  -0.041662  0  3.923151  0
C  C50  1  0.24241626  0.25259053  0.36380384  1  0  -0.061288  0  3.698877  0  0  -0.045119  0  3.934686  0  0  -0.052434  0  3.954232  0  0  -0.00509  -0.041667  0  3.923035  0
C  C51  1  0.75757848  0.24741442  0.86380475  1  0  -0.061294  0  3.69917  0  0  -0.045084  0  3.934838  0  0  -0.052401  0  3.954379  0  0  -0.005098  -0.041632  0  3.923186  0
C  C52  1  0.57635056  0.82816768  0.65301780  1  0  -0.065453  0  3.645609  0  0  -0.061092  0  3.887551  0  0  -0.060464  0  3.903296  0  0  0.009463  -0.061087  0  3.877176  0
C  C53  1  0.42366008  0.67183258  0.15301584  1  0  -0.065359  0  3.645904  0  0  -0.060983  0  3.887782  0  0  -0.060357  0  3.903531  0  0  0.009537  -0.060974  0  3.877388  0
C  C54  1  0.42365483  0.17183112  0.34698169  1  0  -0.06553  0  3.645689  0  0  -0.061118  0  3.88761  0  0  -0.060493  0  3.903357  0  0  0.009485  -0.061109  0  3.877233  0
C  C55  1  0.57634422  0.32816965  0.84698366  1  0  -0.065507  0  3.645795  0  0  -0.061169  0  3.887715  0  0  -0.060541  0  3.903463  0  0  0.009478  -0.061163  0  3.877323  0
C  C56  1  0.84868780  0.75489315  0.56870232  1  0  0.673729  0  3.884769  0  0  0.61777  0  4.17952  0  0  0.652481  0  4.173393  0  0  0.212827  0.593866  0  4.182978  0
C  C57  1  0.15131424  0.74510867  0.06870187  1  0  0.673687  0  3.884769  0  0  0.617697  0  4.179558  0  0  0.652404  0  4.173435  0  0  0.212717  0.593792  0  4.183017  0
C  C58  1  0.15132114  0.24511605  0.43129814  1  0  0.673713  0  3.884669  0  0  0.617636  0  4.179602  0  0  0.652344  0  4.173477  0  0  0.2127  0.593732  0  4.183056  0
C  C59  1  0.84868745  0.25489812  0.93129810  1  0  0.673653  0  3.885024  0  0  0.617707  0  4.179712  0  0  0.652416  0  4.173583  0  0  0.212722  0.593803  0  4.183166  0
C  C60  1  0.46505495  0.90361637  0.59815139  1  0  0.692853  0  3.931162  0  0  0.628102  0  4.247706  0  0  0.664004  0  4.236371  0  0  0.214335  0.603091  0  4.254904  0
C  C61  1  0.53496462  0.59638744  0.09814880  1  0  0.692443  0  3.931658  0  0  0.627741  0  4.248105  0  0  0.663646  0  4.236771  0  0  0.214165  0.60273  0  4.255302  0
C  C62  1  0.53494743  0.09638468  0.40184906  1  0  0.692832  0  3.931079  0  0  0.628068  0  4.247635  0  0  0.66397  0  4.236301  0  0  0.214284  0.603055  0  4.254838  0
C  C63  1  0.46504583  0.40362064  0.90184973  1  0  0.692855  0  3.931188  0  0  0.628066  0  4.247768  0  0  0.663967  0  4.23643  0  0  0.214289  0.603056  0  4.254966  0
N  N64  1  0.32473989  0.90880763  0.73827373  1  0  0.471417  0  3.942772  0  0  0.527477  0  4.199131  0  0  0.548396  0  4.209057  0  0  0.055397  0.513337  0  4.192353  0
N  N65  1  0.67526444  0.59118392  0.23827411  1  0  0.471506  0  3.942916  0  0  0.527614  0  4.199204  0  0  0.548543  0  4.209122  0  0  0.055553  0.51347  0  4.192426  0
N  N66  1  0.67525715  0.09119219  0.26172528  1  0  0.471407  0  3.942768  0  0  0.527443  0  4.199195  0  0  0.548358  0  4.209124  0  0  0.055343  0.513301  0  4.192418  0
N  N67  1  0.32472946  0.40880780  0.76172346  1  0  0.47157  0  3.942463  0  0  0.527544  0  4.198907  0  0  0.548467  0  4.208825  0  0  0.055521  0.5134  0  4.192129  0
O  O68  1  0.28706056  0.92254393  0.79710668  1  0  -0.384695  0  1.803588  0  0  -0.36628  0  1.998166  0  0  -0.379035  0  1.994271  0  0  -0.13247  -0.358451  0  2.001458  0
O  O69  1  0.71295790  0.57744897  0.29710521  1  0  -0.384915  0  1.8038  0  0  -0.366377  0  1.998355  0  0  -0.379135  0  1.994465  0  0  -0.132557  -0.358547  0  2.001651  0
O  O70  1  0.71292349  0.07744993  0.20289281  1  0  -0.384763  0  1.803676  0  0  -0.366265  0  1.998274  0  0  -0.379017  0  1.994379  0  0  -0.13244  -0.358434  0  2.00157  0
O  O71  1  0.28705030  0.42254644  0.70289236  1  0  -0.384799  0  1.803628  0  0  -0.366249  0  1.99821  0  0  -0.379007  0  1.994323  0  0  -0.132449  -0.358419  0  2.001507  0
O  O72  1  0.20738030  0.96082804  0.69609989  1  0  -0.338412  0  1.828858  0  0  -0.319111  0  2.029501  0  0  -0.331404  0  2.028594  0  0  -0.105571  -0.31155  0  2.030928  0
O  O73  1  0.79262763  0.53916557  0.19609763  1  0  -0.33827  0  1.828771  0  0  -0.319135  0  2.029434  0  0  -0.331449  0  2.02853  0  0  -0.105617  -0.311564  0  2.030841  0
O  O74  1  0.79261805  0.03916950  0.30389864  1  0  -0.338357  0  1.828727  0  0  -0.319095  0  2.029356  0  0  -0.331383  0  2.028448  0  0  -0.10557  -0.311539  0  2.030792  0
O  O75  1  0.20736306  0.46082725  0.80389946  1  0  -0.338461  0  1.828579  0  0  -0.3192  0  2.029215  0  0  -0.331514  0  2.02833  0  0  -0.105704  -0.311643  0  2.030653  0
O  O76  1  0.89265719  0.63484563  0.54094592  1  0  -0.596221  0  1.97651  0  0  -0.536942  0  2.193268  0  0  -0.562442  0  2.182214  0  0  -0.295568  -0.517806  0  2.200264  0
O  O77  1  0.10734573  0.86515217  0.04094886  1  0  -0.596183  0  1.976724  0  0  -0.5369  0  2.193503  0  0  -0.562398  0  2.18245  0  0  -0.295536  -0.517764  0  2.200498  0
O  O78  1  0.10731933  0.36515385  0.45904876  1  0  -0.596229  0  1.976606  0  0  -0.536886  0  2.193427  0  0  -0.562386  0  2.182374  0  0  -0.295559  -0.517748  0  2.200421  0
O  O79  1  0.89267176  0.13485717  0.95905111  1  0  -0.596187  0  1.976713  0  0  -0.536906  0  2.193446  0  0  -0.562412  0  2.182392  0  0  -0.295551  -0.517769  0  2.200437  0
O  O80  1  0.89430050  0.88930159  0.54295625  1  0  -0.702144  0  2.081921  0  0  -0.625715  0  2.347404  0  0  -0.659876  0  2.336312  0  0  -0.330272  -0.599598  0  2.353562  0
O  O81  1  0.10572204  0.61070109  0.04294857  1  0  -0.702168  0  2.081838  0  0  -0.62574  0  2.347342  0  0  -0.659903  0  2.336253  0  0  -0.330197  -0.59962  0  2.353509  0
O  O82  1  0.10571487  0.11070542  0.45704565  1  0  -0.702167  0  2.081791  0  0  -0.625683  0  2.347297  0  0  -0.659848  0  2.336209  0  0  -0.330182  -0.599559  0  2.353447  0
O  O83  1  0.89428307  0.38930575  0.95704852  1  0  -0.702169  0  2.082066  0  0  -0.625758  0  2.347529  0  0  -0.65992  0  2.33644  0  0  -0.3302  -0.599638  0  2.353682  0
O  O84  1  0.50632816  0.05043117  0.59279982  1  0  -0.699344  0  2.07721  0  0  -0.632388  0  2.338172  0  0  -0.662392  0  2.324411  0  0  -0.332187  -0.610757  0  2.347598  0
O  O85  1  0.49368019  0.44957029  0.09279688  1  0  -0.699226  0  2.077355  0  0  -0.632308  0  2.338281  0  0  -0.662309  0  2.324512  0  0  -0.332149  -0.610677  0  2.34771  0
O  O86  1  0.49366717  0.94956862  0.40719775  1  0  -0.699366  0  2.077138  0  0  -0.632414  0  2.338115  0  0  -0.662417  0  2.324352  0  0  -0.332179  -0.610785  0  2.347548  0
O  O87  1  0.50632383  0.55043998  0.90720020  1  0  -0.699318  0  2.077197  0  0  -0.632365  0  2.338166  0  0  -0.662366  0  2.324402  0  0  -0.33217  -0.610736  0  2.347595  0
O  O88  1  0.35491707  0.81090730  0.55954673  1  0  -0.609398  0  2.02528  0  0  -0.55106  0  2.280402  0  0  -0.580461  0  2.269175  0  0  -0.300318  -0.530365  0  2.288329  0
O  O89  1  0.64510337  0.68909271  0.05954674  1  0  -0.609245  0  2.025496  0  0  -0.550884  0  2.280568  0  0  -0.580268  0  2.269312  0  0  -0.300235  -0.530191  0  2.288496  0
O  O90  1  0.64508148  0.18909139  0.44045565  1  0  -0.609367  0  2.025199  0  0  -0.55102  0  2.280315  0  0  -0.580422  0  2.269092  0  0  -0.300294  -0.530327  0  2.288246  0
O  O91  1  0.35492218  0.31092366  0.94045612  1  0  -0.609445  0  2.025358  0  0  -0.551041  0  2.280435  0  0  -0.580436  0  2.269205  0  0  -0.300312  -0.53035  0  2.288367  0
O  O92  1  0.68794159  0.36603266  0.57635987  1  0  -0.842909  0  1.855111  0  0  -0.774294  0  2.052763  0  0  -0.799108  0  2.022056  0  0  -0.576929  -0.754314  0  2.074103  0
O  O93  1  0.31205266  0.13396660  0.07635991  1  0  -0.842952  0  1.854987  0  0  -0.77434  0  2.052645  0  0  -0.79916  0  2.021932  0  0  -0.576955  -0.754356  0  2.073987  0
O  O94  1  0.31205416  0.63396943  0.42363914  1  0  -0.843003  0  1.85495  0  0  -0.774342  0  2.05267  0  0  -0.799164  0  2.021945  0  0  -0.576959  -0.754358  0  2.074015  0
O  O95  1  0.68795526  0.86603684  0.92363862  1  0  -0.842959  0  1.855077  0  0  -0.774342  0  2.052773  0  0  -0.799175  0  2.022025  0  0  -0.576934  -0.754361  0  2.074116  0
O  O96  1  0.17456579  0.22747419  0.59616148  1  0  -0.848407  0  1.858856  0  0  -0.78525  0  2.047005  0  0  -0.80753  0  2.013118  0  0  -0.579173  -0.769659  0  2.071457  0
O  O97  1  0.82544317  0.27253066  0.09616609  1  0  -0.848622  0  1.858684  0  0  -0.785408  0  2.046902  0  0  -0.807688  0  2.013015  0  0  -0.579181  -0.769821  0  2.07135  0
O  O98  1  0.82543549  0.77253030  0.40383513  1  0  -0.84858  0  1.858604  0  0  -0.785374  0  2.046836  0  0  -0.807656  0  2.012952  0  0  -0.57914  -0.769782  0  2.071289  0
O  O99  1  0.17455790  0.72747267  0.90383437  1  0  -0.848614  0  1.858596  0  0  -0.785412  0  2.046819  0  0  -0.807688  0  2.01293  0  0  -0.579198  -0.769816  0  2.071253  0
