# generated using pymatgen
data_VH4C8O5
_symmetry_space_group_name_H-M   'P 1'
_cell_length_a   6.83853176
_cell_length_b   21.13646036
_cell_length_c   21.10959587
_cell_angle_alpha   119.65560461
_cell_angle_beta   89.98673608
_cell_angle_gamma   90.00300744
_symmetry_Int_Tables_number   1
_chemical_formula_structural   VH4C8O5
_chemical_formula_sum   'V6 H24 C48 O30'
_cell_volume   2651.56566036
_cell_formula_units_Z   6
loop_
 _symmetry_equiv_pos_site_id
 _symmetry_equiv_pos_as_xyz
  1  'x, y, z'
loop_
 _atom_site_type_symbol
 _atom_site_label
 _atom_site_symmetry_multiplicity
 _atom_site_fract_x
 _atom_site_fract_y
 _atom_site_fract_z
 _atom_site_occupancy
 _atom_site_pbe_bader_charge
 _atom_site_pbe_bader_spin_density
 _atom_site_pbe_cm5_charge
 _atom_site_pbe_ddec_charge
 _atom_site_pbe_ddec_spin_density
 _atom_site_pbe_ddec_sum_bond_order
 _atom_site_pbe_magmom
V  V0  1  0.53660855  0.99654135  0.00417155  1  2.101122  -0.760718  1.421002  1.84096  -0.814485  3.008543  -0.773
V  V1  1  0.03667011  0.00350214  0.99585402  1  2.098519  0.76983  1.419013  1.839706  0.80883  3.005534  0.782
V  V2  1  0.45833806  0.49995319  0.00775221  1  2.090628  0.89179  1.400336  1.833708  0.934843  2.955894  0.903
V  V3  1  0.95831901  0.50005939  0.99224769  1  2.089579  0.897337  1.399299  1.832988  0.940587  2.954837  0.908
V  V4  1  0.03679308  0.99242307  0.50026221  1  2.099578  0.772236  1.416185  1.837594  0.812346  2.998963  0.784
V  V5  1  0.53675318  0.00753215  0.49973934  1  2.100206  -0.763989  1.417655  1.838699  -0.81879  3.000942  -0.776
H  H6  1  0.56005306  0.32604140  0.79468383  1  0.110938  -8e-06  0.110938  0.117159  -0.000174  0.997515  0.0
H  H7  1  0.93204315  0.32334315  0.79158553  1  0.101109  9e-06  0.110813  0.116675  -0.000204  1.00015  0.0
H  H8  1  0.06479750  0.79208624  0.32393383  1  0.093108  -0.000155  0.110338  0.116029  -0.000296  1.000127  0.0
H  H9  1  0.56511176  0.20788698  0.67598882  1  0.090526  6.2e-05  0.110342  0.11589  0.000122  0.999866  0.0
H  H10  1  0.43168148  0.67667322  0.20848314  1  0.100547  -3.6e-05  0.110735  0.116458  -0.000234  1.000059  0.0
H  H11  1  0.05970783  0.67391941  0.20524250  1  0.112099  3.9e-05  0.111016  0.117471  -0.000145  0.997154  0.0
H  H12  1  0.93695389  0.20454147  0.67351735  1  0.088485  -0.000148  0.11061  0.116576  -0.00027  0.998164  0.0
H  H13  1  0.43664274  0.79547474  0.32655845  1  0.088045  3.5e-05  0.110631  0.116495  8.6e-05  0.998057  0.0
H  H14  1  0.93223761  0.67646563  0.96631818  1  0.079938  2.4e-05  0.110412  0.116221  -0.000206  0.999835  0.0
H  H15  1  0.56027400  0.67414174  0.96782399  1  0.091669  4e-06  0.111249  0.11748  -0.000175  0.997188  0.0
H  H16  1  0.43461790  0.96913360  0.67606385  1  0.086202  7.2e-05  0.110541  0.116412  0.000155  0.997706  0.0
H  H17  1  0.93475560  0.03082982  0.32400147  1  0.085316  -7e-05  0.110564  0.116579  -0.000156  0.997658  0.0
H  H18  1  0.06004547  0.32589522  0.03216437  1  0.090857  4.9e-05  0.111364  0.117628  -0.000148  0.997276  0.0
H  H19  1  0.43200326  0.32349985  0.03361620  1  0.078416  -1.9e-05  0.1107  0.116815  -0.000235  1.000212  0.0
H  H20  1  0.56295175  0.03459029  0.32586318  1  0.097297  9.2e-05  0.110846  0.117155  0.000207  1.000022  0.0
H  H21  1  0.06281335  0.96541999  0.67408470  1  0.098618  -9e-05  0.110845  0.116858  -0.000209  1.000012  0.0
H  H22  1  0.93730964  0.79338495  0.96215874  1  0.093037  -0.000167  0.111252  0.117956  -0.00029  0.996625  0.0
H  H23  1  0.56551144  0.79074857  0.96311588  1  0.108621  7.3e-05  0.110822  0.116865  0.000141  0.998887  0.0
H  H24  1  0.43480535  0.96453865  0.79298070  1  0.088333  8.9e-05  0.111282  0.117804  0.00017  0.995936  0.0
H  H25  1  0.93484014  0.03545144  0.20709883  1  0.08977  -8.8e-05  0.111301  0.117986  -0.000173  0.995822  0.0
H  H26  1  0.06527227  0.20927193  0.03686105  1  0.111737  -0.000163  0.110749  0.11676  -0.000319  0.99923  0.0
H  H27  1  0.43707522  0.20657279  0.03776762  1  0.092306  5.2e-05  0.111344  0.118154  0.000101  0.996334  0.0
H  H28  1  0.56305086  0.03867874  0.20895344  1  0.101255  9.6e-05  0.111177  0.117172  0.000221  0.998995  0.0
H  H29  1  0.06302424  0.96137019  0.79101412  1  0.099121  -9.4e-05  0.111284  0.117342  -0.000223  0.99884  0.0
C  C30  1  0.24566820  0.33080385  0.80018313  1  -0.067783  -0.005719  -0.008534  -0.026461  -0.005603  3.951435  -0.006
C  C31  1  0.75104374  0.80086955  0.33139190  1  -0.085385  0.009669  -0.00883  -0.0271  0.00881  3.957017  0.006
C  C32  1  0.25134604  0.19912081  0.66860348  1  -0.089482  0.009543  -0.008877  -0.026486  0.008634  3.956575  0.006
C  C33  1  0.74532000  0.66918334  0.19982909  1  -0.068428  -0.005277  -0.00866  -0.026266  -0.005197  3.951309  -0.005
C  C34  1  0.42485615  0.29909221  0.76739544  1  0.000136  0.007985  -0.076474  -0.089705  0.007022  3.962441  0.005
C  C35  1  0.06946750  0.29747408  0.76561077  1  -0.005772  0.008971  -0.076805  -0.089437  0.007921  3.961782  0.005
C  C36  1  0.92727047  0.76620121  0.29809016  1  -0.02975  -0.002357  -0.077305  -0.090682  -0.002104  3.961853  -0.002
C  C37  1  0.42759558  0.23377582  0.70185694  1  -0.026768  -0.00265  -0.077599  -0.090898  -0.002436  3.96149  -0.002
C  C38  1  0.56913657  0.70252485  0.23443519  1  -0.007964  0.007773  -0.07679  -0.089521  0.006817  3.96111  0.005
C  C39  1  0.92452041  0.70088703  0.23256670  1  0.000846  0.008936  -0.076397  -0.0897  0.0079  3.962419  0.005
C  C40  1  0.07218195  0.23188917  0.70036691  1  0.038708  -0.002717  -0.077329  -0.090965  -0.002432  3.963703  -0.002
C  C41  1  0.57185604  0.76811623  0.29967827  1  0.036975  -0.002217  -0.077582  -0.090796  -0.002019  3.963241  -0.002
C  C42  1  0.24130216  0.60310706  0.97579240  1  1.511034  0.030781  0.238334  0.633714  0.031987  4.106799  0.024
C  C43  1  0.75247749  0.97584259  0.60273119  1  1.530058  0.001186  0.235888  0.628712  0.000992  4.103303  0.001
C  C44  1  0.25266289  0.02412101  0.39726451  1  1.531482  -0.00031  0.235694  0.628392  -0.000275  4.1032  0.0
C  C45  1  0.74113012  0.39691080  0.02421267  1  1.511788  0.0308  0.238247  0.633479  0.032009  4.106665  0.024
C  C46  1  0.24128846  0.39758562  0.87313733  1  1.543607  0.030206  0.238898  0.63421  0.031442  4.106134  0.023
C  C47  1  0.75519782  0.87370473  0.39802293  1  1.512783  0.001322  0.235886  0.628925  0.001071  4.101794  0.0
C  C48  1  0.25531797  0.12627736  0.60196897  1  1.513537  -0.000351  0.235833  0.628488  -0.000509  4.102677  -0.001
C  C49  1  0.74104291  0.60240441  0.12687853  1  1.544425  0.030256  0.238245  0.632988  0.031497  4.106951  0.023
C  C50  1  0.06969676  0.70189122  0.96512546  1  -0.000687  0.009149  -0.076321  -0.088945  0.008084  3.96225  0.005
C  C51  1  0.42518492  0.70051982  0.96603241  1  0.040341  0.008161  -0.076774  -0.089239  0.0072  3.961747  0.005
C  C52  1  0.57101802  0.96685061  0.70152933  1  0.030532  -7.4e-05  -0.076173  -0.090409  -0.000126  3.959631  0.0
C  C53  1  0.07112775  0.03312757  0.29851375  1  -0.001833  0.000231  -0.07644  -0.091196  0.000253  3.95964  0.0
C  C54  1  0.92496227  0.29950298  0.03394522  1  0.040833  0.008962  -0.076934  -0.089167  0.007947  3.963048  0.005
C  C55  1  0.56943377  0.29808402  0.03481300  1  -0.00051  0.007993  -0.076976  -0.090154  0.007005  3.96325  0.005
C  C56  1  0.42667901  0.03532614  0.29958483  1  -0.110001  -0.000363  -0.077878  -0.091948  -0.000388  3.966048  0.0
C  C57  1  0.92654193  0.96468625  0.70039651  1  -0.006755  0.000554  -0.077588  -0.090429  0.000517  3.966405  0.0
C  C58  1  0.24580695  0.66917810  0.96786978  1  -0.039332  -0.005916  -0.008331  -0.027077  -0.005784  3.952948  -0.006
C  C59  1  0.74887060  0.96796012  0.66881625  1  -0.09136  0.000499  -0.009077  -0.026973  0.000483  3.957028  0.0
C  C60  1  0.24900651  0.03202536  0.33118966  1  0.048163  -0.000268  -0.008613  -0.025513  -0.00028  3.955198  0.0
C  C61  1  0.74558925  0.33082392  0.03210385  1  -0.039599  -0.00528  -0.008393  -0.026843  -0.00518  3.953948  -0.005
C  C62  1  0.25573797  0.87107568  0.96738337  1  1.502725  -0.000392  0.234099  0.625011  -0.000554  4.106918  -0.001
C  C63  1  0.75288401  0.96754315  0.87106362  1  1.502458  0.001334  0.233879  0.624809  0.001122  4.105756  0.001
C  C64  1  0.25289246  0.03248414  0.12896374  1  1.502374  -0.000395  0.23418  0.625416  -0.000343  4.105339  0.0
C  C65  1  0.75576049  0.12895430  0.03263090  1  1.50448  0.001347  0.233676  0.623322  0.001059  4.108146  0.0
C  C66  1  0.25175778  0.79862676  0.96259390  1  0.005174  0.009689  -0.009543  -0.028247  0.008795  3.959131  0.006
C  C67  1  0.74906806  0.96285324  0.79854595  1  0.001033  0.000403  -0.009229  -0.028651  0.000383  3.958713  0.0
C  C68  1  0.24910882  0.03716217  0.20147863  1  0.000279  -0.000202  -0.009401  -0.029164  -0.000212  3.959033  0.0
C  C69  1  0.75152987  0.20137894  0.03737117  1  0.007475  0.009808  -0.009587  -0.027417  0.008948  3.958093  0.006
C  C70  1  0.07240962  0.76632240  0.96262212  1  -0.034088  -0.00285  -0.076951  -0.09011  -0.002569  3.961595  -0.002
C  C71  1  0.42801337  0.76482517  0.96330113  1  -0.0707  -0.002782  -0.076707  -0.090128  -0.002547  3.959782  -0.002
C  C72  1  0.57107519  0.96416978  0.76603733  1  -0.051435  -4.7e-05  -0.076019  -0.089348  -7.2e-05  3.957093  0.0
C  C73  1  0.07112761  0.03582528  0.23401226  1  -0.052474  0.000241  -0.075899  -0.089222  0.000221  3.956531  0.0
C  C74  1  0.92781779  0.23519485  0.03667017  1  -0.074296  -0.002366  -0.076443  -0.090379  -0.002126  3.959068  -0.002
C  C75  1  0.57220162  0.23364678  0.03731170  1  -0.033639  -0.002187  -0.076811  -0.090304  -0.002  3.962372  -0.002
C  C76  1  0.42668907  0.03774731  0.23512954  1  -0.017956  -0.000471  -0.077546  -0.088732  -0.000482  3.965104  0.0
C  C77  1  0.92665617  0.96228358  0.76486242  1  -0.014585  0.000671  -0.07779  -0.089691  0.000638  3.965046  0.0
O  O78  1  0.40499250  0.42231936  0.90526945  1  -1.136561  0.021957  -0.344821  -0.584887  0.016059  2.334615  0.002
O  O79  1  0.07347931  0.42435921  0.89898634  1  -1.146109  0.017017  -0.34864  -0.603011  0.011912  2.367361  -0.003
O  O80  1  0.92282727  0.89996643  0.42477003  1  -1.13974  0.000161  -0.349946  -0.600465  -0.001992  2.378275  -0.014
O  O81  1  0.42291693  0.09997417  0.57518298  1  -1.140161  0.002306  -0.349758  -0.599913  0.00366  2.379255  0.016
O  O82  1  0.57326103  0.57564684  0.10101123  1  -1.147896  0.017077  -0.348119  -0.602188  0.011938  2.367559  -0.003
O  O83  1  0.90481267  0.57766459  0.09475622  1  -1.135699  0.022065  -0.344548  -0.584467  0.016152  2.334635  0.002
O  O84  1  0.09159174  0.09405214  0.57704017  1  -1.125533  -0.001662  -0.346323  -0.583151  -0.003464  2.343382  -0.015
O  O85  1  0.59149850  0.90598001  0.42299981  1  -1.125223  0.004259  -0.346196  -0.582665  0.005203  2.343694  0.018
O  O86  1  0.42353192  0.89973570  0.97217872  1  -1.14392  0.001943  -0.35091  -0.60088  0.003349  2.379999  0.016
O  O87  1  0.09191523  0.90120058  0.96892984  1  -1.120059  -0.003408  -0.346381  -0.580526  -0.005181  2.339408  -0.017
O  O88  1  0.92092786  0.97149759  0.89930961  1  -1.138177  -1.4e-05  -0.350694  -0.602373  -0.00205  2.379767  -0.015
O  O89  1  0.42100555  0.02877791  0.10080353  1  -1.138253  0.000228  -0.351049  -0.602699  0.001666  2.378688  0.015
O  O90  1  0.59190479  0.09869336  0.03081822  1  -1.120196  0.006008  -0.346029  -0.579153  0.006936  2.339726  0.019
O  O91  1  0.92355748  0.10045295  0.02816057  1  -1.142509  0.000679  -0.350682  -0.60045  -0.001506  2.379685  -0.014
O  O92  1  0.08929204  0.03005021  0.09837549  1  -1.122319  -0.004466  -0.345149  -0.577263  -0.006174  2.340444  -0.018
O  O93  1  0.58923729  0.96973476  0.90156962  1  -1.122213  0.00475  -0.345211  -0.577003  0.005832  2.339665  0.018
O  O94  1  0.40497576  0.57851282  0.98365956  1  -1.133826  0.02176  -0.344918  -0.5843  0.015927  2.336983  0.001
O  O95  1  0.07335178  0.57658087  0.97547470  1  -1.137502  0.016874  -0.348851  -0.603248  0.011823  2.369694  -0.003
O  O96  1  0.92036218  0.97608041  0.57625713  1  -1.136219  -0.000461  -0.350285  -0.602247  -0.002471  2.382991  -0.015
O  O97  1  0.42051548  0.02388256  0.42371383  1  -1.138317  0.00074  -0.350046  -0.602153  0.002144  2.382832  0.015
O  O98  1  0.57325401  0.42346323  0.02456027  1  -1.139131  0.016849  -0.348653  -0.602677  0.011777  2.370631  -0.003
O  O99  1  0.90489085  0.42148158  0.01633341  1  -1.133386  0.022007  -0.344944  -0.584601  0.016139  2.336057  0.002
O  O100  1  0.08911969  0.01656590  0.42228589  1  -1.123391  -0.002987  -0.345683  -0.580374  -0.004725  2.345501  -0.017
O  O101  1  0.58896217  0.98337594  0.57771077  1  -1.123229  0.003319  -0.345674  -0.580377  0.004416  2.345449  0.017
O  O102  1  0.75959064  0.97940687  0.02069932  1  -0.846263  0.064097  -0.612312  -0.782179  0.058986  1.797929  0.06
O  O103  1  0.25967557  0.02065787  0.97932768  1  -0.847387  -0.064655  -0.612594  -0.782742  -0.060855  1.797914  -0.06
O  O104  1  0.73297497  0.50032862  0.96462444  1  -0.85181  -0.081799  -0.613109  -0.785082  -0.080261  1.785235  -0.08
O  O105  1  0.26113132  0.96430621  0.50033074  1  -0.846547  -0.064496  -0.610514  -0.778398  -0.060838  1.784711  -0.06
O  O106  1  0.76110189  0.03564567  0.49968453  1  -0.845234  0.064057  -0.610117  -0.777734  0.059077  1.784619  0.059
O  O107  1  0.23294939  0.49967698  0.03535715  1  -0.850834  -0.081624  -0.612744  -0.784548  -0.080074  1.784993  -0.08
