# generated using pymatgen
data_DyH16C18N3O8
_symmetry_space_group_name_H-M   'P 1'
_cell_length_a   10.07944277
_cell_length_b   11.50920552
_cell_length_c   11.18896737
_cell_angle_alpha   120.92630408
_cell_angle_beta   110.59929642
_cell_angle_gamma   90.01469068
_symmetry_Int_Tables_number   1
_chemical_formula_structural   DyH16C18N3O8
_chemical_formula_sum   'Dy2 H32 C36 N6 O16'
_cell_volume   1015.41893651
_cell_formula_units_Z   2
loop_
 _symmetry_equiv_pos_site_id
 _symmetry_equiv_pos_as_xyz
  1  'x, y, z'
loop_
 _atom_site_type_symbol
 _atom_site_label
 _atom_site_symmetry_multiplicity
 _atom_site_fract_x
 _atom_site_fract_y
 _atom_site_fract_z
 _atom_site_occupancy
 _atom_site_hle17_bader_spin_density
 _atom_site_hle17_ddec_charge
 _atom_site_hle17_ddec_spin_density
 _atom_site_hle17_ddec_sum_bond_order
 _atom_site_hle17_magmom
 _atom_site_hse06_10hf_bader_spin_density
 _atom_site_hse06_10hf_ddec_charge
 _atom_site_hse06_10hf_ddec_spin_density
 _atom_site_hse06_10hf_ddec_sum_bond_order
 _atom_site_hse06_10hf_magmom
 _atom_site_hse06_bader_spin_density
 _atom_site_hse06_ddec_charge
 _atom_site_hse06_ddec_spin_density
 _atom_site_hse06_ddec_sum_bond_order
 _atom_site_hse06_magmom
 _atom_site_pbe_bader_spin_density
 _atom_site_pbe_cm5_charge
 _atom_site_pbe_ddec_charge
 _atom_site_pbe_ddec_spin_density
 _atom_site_pbe_ddec_sum_bond_order
 _atom_site_pbe_magmom
Dy  Dy0  1  0.24993394  0.98474512  0.99997068  1  0  2.30848  0  1.613903  0  0  2.245072  0  1.944838  0  0  2.291476  0  1.902013  0  0  1.512706  2.134405  0  2.116613  0
Dy  Dy1  1  0.75006987  0.01525128  0.00002827  1  0  2.308463  0  1.613859  0  0  2.245055  0  1.944791  0  0  2.291459  0  1.901967  0  0  1.512715  2.134334  0  2.116663  0
H  H2  1  0.38562773  0.23205196  0.39827065  1  0  0.119778  0  0.961789  0  0  0.126202  0  1.027671  0  0  0.130243  0  1.025452  0  0  0.114553  0.12335  0  1.029233  0
H  H3  1  0.11432571  0.83375163  0.60181498  1  0  0.120177  0  0.961382  0  0  0.126072  0  1.027795  0  0  0.130214  0  1.02545  0  0  0.114521  0.123152  0  1.029438  0
H  H4  1  0.61435814  0.76793182  0.60170456  1  0  0.119766  0  0.961838  0  0  0.126268  0  1.027634  0  0  0.130315  0  1.025418  0  0  0.11458  0.123416  0  1.029197  0
H  H5  1  0.88567759  0.16624266  0.39818184  1  0  0.120216  0  0.961285  0  0  0.126106  0  1.027725  0  0  0.130254  0  1.02536  0  0  0.11451  0.123184  0  1.029368  0
H  H6  1  0.55399463  0.45566185  0.63199713  1  0  0.066716  0  0.940135  0  0  0.074992  0  1.004373  0  0  0.077286  0  1.003595  0  0  0.108907  0.073397  0  1.004846  0
H  H7  1  0.94592271  0.82391828  0.36815731  1  0  0.066899  0  0.940352  0  0  0.074893  0  1.004863  0  0  0.077201  0  1.004078  0  0  0.108663  0.073301  0  1.005328  0
H  H8  1  0.44598834  0.54431874  0.36797196  1  0  0.066893  0  0.939966  0  0  0.075092  0  1.004275  0  0  0.077392  0  1.003493  0  0  0.108944  0.073496  0  1.004747  0
H  H9  1  0.05408828  0.17606848  0.63183095  1  0  0.066872  0  0.940279  0  0  0.074875  0  1.004796  0  0  0.077181  0  1.004015  0  0  0.108655  0.073284  0  1.00526  0
H  H10  1  0.22007523  0.66429776  0.64307479  1  0  0.093325  0  0.949731  0  0  0.097171  0  1.020686  0  0  0.100508  0  1.017732  0  0  0.120189  0.09437  0  1.023526  0
H  H11  1  0.27991471  0.02116595  0.35672091  1  0  0.093524  0  0.948324  0  0  0.097243  0  1.019624  0  0  0.100588  0  1.016645  0  0  0.120176  0.09441  0  1.022559  0
H  H12  1  0.77991881  0.33569338  0.35691303  1  0  0.093269  0  0.949845  0  0  0.097156  0  1.020757  0  0  0.100503  0  1.017783  0  0  0.120189  0.094349  0  1.023613  0
H  H13  1  0.72009325  0.97884737  0.64329962  1  0  0.093488  0  0.948334  0  0  0.097235  0  1.019591  0  0  0.100581  0  1.01661  0  0  0.120166  0.094389  0  1.022565  0
H  H14  1  0.03663040  0.44733004  0.40603900  1  0  0.110628  0  0.96202  0  0  0.11977  0  1.022882  0  0  0.123003  0  1.022007  0  0  0.10859  0.117382  0  1.023827  0
H  H15  1  0.46338504  0.04118279  0.59386235  1  0  0.110518  0  0.96269  0  0  0.119728  0  1.023378  0  0  0.122968  0  1.022517  0  0  0.108492  0.117347  0  1.024286  0
H  H16  1  0.96335971  0.55266236  0.59395536  1  0  0.110659  0  0.961983  0  0  0.119792  0  1.022859  0  0  0.123026  0  1.021982  0  0  0.108605  0.117383  0  1.023828  0
H  H17  1  0.53661450  0.95882643  0.40615342  1  0  0.11042  0  0.962811  0  0  0.119645  0  1.023494  0  0  0.122881  0  1.022632  0  0  0.108487  0.117265  0  1.024396  0
H  H18  1  0.15056882  0.67601015  0.15988139  1  0  0.119158  0  0.957405  0  0  0.124589  0  1.02194  0  0  0.12791  0  1.021622  0  0  0.109976  0.121981  0  1.022905  0
H  H19  1  0.34913397  0.51645688  0.84004314  1  0  0.118967  0  0.957898  0  0  0.124656  0  1.022195  0  0  0.128026  0  1.021815  0  0  0.109921  0.122058  0  1.023135  0
H  H20  1  0.84946821  0.32403523  0.84016650  1  0  0.119242  0  0.957564  0  0  0.124635  0  1.022109  0  0  0.127937  0  1.021814  0  0  0.110023  0.122025  0  1.023081  0
H  H21  1  0.65084602  0.48354177  0.15994763  1  0  0.118917  0  0.957861  0  0  0.12463  0  1.02212  0  0  0.127993  0  1.021758  0  0  0.109935  0.122032  0  1.023062  0
H  H22  1  0.15445449  0.45293827  0.15408601  1  0  0.079893  0  0.92049  0  0  0.09106  0  0.977947  0  0  0.093519  0  0.976562  0  0  0.119238  0.089482  0  0.978805  0
H  H23  1  0.34545512  0.29908898  0.84572762  1  0  0.079547  0  0.919768  0  0  0.090759  0  0.977268  0  0  0.093235  0  0.975883  0  0  0.118953  0.08917  0  0.978141  0
H  H24  1  0.84557352  0.54710492  0.84594985  1  0  0.079806  0  0.920452  0  0  0.09101  0  0.97789  0  0  0.093468  0  0.976505  0  0  0.119162  0.08943  0  0.978749  0
H  H25  1  0.65452641  0.70091598  0.15426955  1  0  0.079575  0  0.919792  0  0  0.090854  0  0.977218  0  0  0.093331  0  0.975829  0  0  0.118953  0.089265  0  0.978092  0
H  H26  1  0.47671505  0.27920180  0.20549194  1  0  0.412466  0  0.896626  0  0  0.373331  0  0.973686  0  0  0.384956  0  0.957066  0  0  0.289287  0.364349  0  0.986521  0
H  H27  1  0.02332819  0.07357512  0.79428146  1  0  0.413071  0  0.895846  0  0  0.373471  0  0.973699  0  0  0.385105  0  0.957084  0  0  0.289379  0.364484  0  0.986526  0
H  H28  1  0.52328517  0.72077996  0.79449483  1  0  0.412385  0  0.896732  0  0  0.37324  0  0.973813  0  0  0.384868  0  0.957189  0  0  0.28923  0.364252  0  0.986651  0
H  H29  1  0.97667714  0.92642317  0.20571179  1  0  0.413084  0  0.895812  0  0  0.373502  0  0.973637  0  0  0.385137  0  0.957024  0  0  0.289423  0.364516  0  0.986459  0
H  H30  1  0.33886324  0.26769700  0.07516870  1  0  0.383844  0  0.938349  0  0  0.351485  0  1.00808  0  0  0.361446  0  0.993535  0  0  0.289972  0.34396  0  1.018877  0
H  H31  1  0.16118242  0.19234082  0.92453076  1  0  0.383619  0  0.938504  0  0  0.350964  0  1.00873  0  0  0.360901  0  0.994228  0  0  0.289999  0.34346  0  1.019499  0
H  H32  1  0.66113508  0.73229859  0.92483525  1  0  0.383782  0  0.938429  0  0  0.351395  0  1.008209  0  0  0.361355  0  0.993672  0  0  0.289942  0.34387  0  1.019005  0
H  H33  1  0.83882053  0.80766500  0.07547451  1  0  0.383663  0  0.938468  0  0  0.35102  0  1.008655  0  0  0.360958  0  0.994151  0  0  0.290021  0.343517  0  1.019422  0
C  C34  1  0.09041455  0.19308165  0.24469991  1  0  0.717142  0  3.858688  0  0  0.673441  0  4.147641  0  0  0.708514  0  4.135231  0  0  0.238801  0.648441  0  4.151121  0
C  C35  1  0.40964492  0.94841701  0.75539040  1  0  0.717138  0  3.858098  0  0  0.673697  0  4.146623  0  0  0.708779  0  4.134206  0  0  0.239459  0.648695  0  4.150091  0
C  C36  1  0.90957182  0.80691710  0.75529919  1  0  0.717275  0  3.858703  0  0  0.673459  0  4.147848  0  0  0.708525  0  4.13545  0  0  0.238834  0.648459  0  4.151319  0
C  C37  1  0.59035785  0.05157948  0.24461185  1  0  0.717172  0  3.858204  0  0  0.673828  0  4.146553  0  0  0.708914  0  4.134132  0  0  0.239587  0.648827  0  4.150021  0
C  C38  1  0.19724855  0.32346343  0.38646515  1  0  -0.013696  0  3.721927  0  0  0.006196  0  3.947482  0  0  0.003196  0  3.968522  0  0  0.003541  0.007559  0  3.935545  0
C  C39  1  0.30275697  0.93693536  0.61352832  1  0  -0.01403  0  3.721363  0  0  0.00562  0  3.946927  0  0  0.00261  0  3.967974  0  0  0.003618  0.006983  0  3.934974  0
C  C40  1  0.80275042  0.67653485  0.61352340  1  0  -0.013809  0  3.721714  0  0  0.006124  0  3.947324  0  0  0.003128  0  3.968365  0  0  0.003578  0.00749  0  3.935379  0
C  C41  1  0.69724949  0.06305889  0.38646858  1  0  -0.014019  0  3.72124  0  0  0.005627  0  3.946782  0  0  0.002617  0  3.967826  0  0  0.003604  0.006988  0  3.934832  0
C  C42  1  0.34460871  0.32516076  0.45041789  1  0  -0.128551  0  3.714696  0  0  -0.151654  0  3.963452  0  0  -0.156586  0  3.984275  0  0  -0.078019  -0.148364  0  3.950286  0
C  C43  1  0.15533159  0.87474378  0.54962266  1  0  -0.12831  0  3.714475  0  0  -0.150899  0  3.963174  0  0  -0.155881  0  3.98395  0  0  -0.078034  -0.14757  0  3.950055  0
C  C44  1  0.65537267  0.67482201  0.54955539  1  0  -0.12827  0  3.714511  0  0  -0.151426  0  3.963194  0  0  -0.156373  0  3.984029  0  0  -0.077938  -0.148135  0  3.950023  0
C  C45  1  0.84467067  0.12525062  0.45037746  1  0  -0.128543  0  3.714525  0  0  -0.151151  0  3.963244  0  0  -0.156135  0  3.984026  0  0  -0.078089  -0.147819  0  3.950124  0
C  C46  1  0.43790172  0.44976179  0.57935369  1  0  0.106624  0  3.745162  0  0  0.07999  0  4.001868  0  0  0.084369  0  4.020498  0  0  0.04084  0.077098  0  3.989493  0
C  C47  1  0.06204772  0.87054974  0.42075178  1  0  0.105504  0  3.747565  0  0  0.079099  0  4.003953  0  0  0.083449  0  4.022611  0  0  0.040821  0.076212  0  3.991563  0
C  C48  1  0.56208660  0.55021901  0.42062793  1  0  0.106279  0  3.745326  0  0  0.079698  0  4.002077  0  0  0.084069  0  4.02071  0  0  0.040816  0.076808  0  3.989702  0
C  C49  1  0.93795639  0.12944355  0.57924658  1  0  0.105738  0  3.747247  0  0  0.079333  0  4.003646  0  0  0.083684  0  4.022305  0  0  0.040879  0.076447  0  3.991254  0
C  C50  1  0.25198546  0.56670690  0.58383828  1  0  0.115726  0  3.71017  0  0  0.086863  0  3.968017  0  0  0.092006  0  3.984952  0  0  0.045253  0.083469  0  3.95723  0
C  C51  1  0.24806713  0.98283544  0.41607942  1  0  0.11527  0  3.70754  0  0  0.086305  0  3.965663  0  0  0.091454  0  3.982572  0  0  0.045472  0.082901  0  3.954888  0
C  C52  1  0.74800734  0.43327916  0.41615101  1  0  0.11578  0  3.71019  0  0  0.086872  0  3.968029  0  0  0.092011  0  3.984972  0  0  0.045268  0.08348  0  3.957238  0
C  C53  1  0.75193452  0.01717372  0.58393520  1  0  0.115302  0  3.70755  0  0  0.086338  0  3.965647  0  0  0.091488  0  3.982554  0  0  0.045502  0.082931  0  3.954865  0
C  C54  1  0.15085062  0.44679210  0.45502892  1  0  -0.145752  0  3.737054  0  0  -0.164421  0  3.979831  0  0  -0.169907  0  4.001328  0  0  -0.086027  -0.161244  0  3.966016  0
C  C55  1  0.34916541  0.99174392  0.54494470  1  0  -0.145594  0  3.737097  0  0  -0.164276  0  3.98  0  0  -0.169771  0  4.001502  0  0  -0.086188  -0.161075  0  3.966148  0
C  C56  1  0.84913556  0.55319291  0.54495506  1  0  -0.145818  0  3.737122  0  0  -0.164479  0  3.979914  0  0  -0.169965  0  4.001413  0  0  -0.086105  -0.161284  0  3.966109  0
C  C57  1  0.65083728  0.00826517  0.45506753  1  0  -0.145549  0  3.736901  0  0  -0.164259  0  3.979854  0  0  -0.169751  0  4.001351  0  0  -0.086251  -0.161057  0  3.966002  0
C  C58  1  0.24976196  0.74172148  0.99990575  1  0  0.609504  0  3.986721  0  0  0.566946  0  4.282184  0  0  0.60014  0  4.274186  0  0  0.183868  0.545475  0  4.278914  0
C  C59  1  0.75023865  0.25827918  0.00009705  1  0  0.609539  0  3.98684  0  0  0.566992  0  4.28233  0  0  0.600189  0  4.274331  0  0  0.183904  0.545522  0  4.27905  0
C  C60  1  0.24983238  0.61082049  0.99993280  1  0  0.016219  0  3.704431  0  0  0.037406  0  3.926946  0  0  0.035538  0  3.946716  0  0  0.00912  0.037588  0  3.914741  0
C  C61  1  0.75018827  0.38918409  0.00007566  1  0  0.016294  0  3.703856  0  0  0.037417  0  3.92644  0  0  0.035548  0  3.946202  0  0  0.009212  0.037599  0  3.914235  0
C  C62  1  0.19475449  0.59398371  0.09004195  1  0  -0.130255  0  3.71382  0  0  -0.150508  0  3.960571  0  0  -0.155945  0  3.98192  0  0  -0.076947  -0.147136  0  3.94728  0
C  C63  1  0.30498776  0.50406696  0.90981755  1  0  -0.130202  0  3.712131  0  0  -0.15078  0  3.959153  0  0  -0.156267  0  3.980498  0  0  -0.076654  -0.147403  0  3.945871  0
C  C64  1  0.80528226  0.40605623  0.90999324  1  0  -0.130386  0  3.714284  0  0  -0.150549  0  3.961043  0  0  -0.155972  0  3.982401  0  0  -0.07705  -0.147178  0  3.947751  0
C  C65  1  0.69499740  0.49593985  0.09017366  1  0  -0.130184  0  3.712009  0  0  -0.150756  0  3.959111  0  0  -0.156242  0  3.980455  0  0  -0.076667  -0.147377  0  3.945826  0
C  C66  1  0.19714660  0.47155590  0.08673759  1  0  0.11746  0  3.728101  0  0  0.085712  0  3.985044  0  0  0.09097  0  4.002241  0  0  0.047943  0.082526  0  3.973455  0
C  C67  1  0.30273701  0.38494828  0.91314064  1  0  0.11781  0  3.72623  0  0  0.086095  0  3.983371  0  0  0.091329  0  4.00063  0  0  0.04801  0.082906  0  3.971776  0
C  C68  1  0.80287712  0.52846980  0.91329514  1  0  0.117246  0  3.728108  0  0  0.085435  0  3.985076  0  0  0.090694  0  4.002266  0  0  0.04779  0.082256  0  3.973485  0
C  C69  1  0.69725093  0.61505688  0.08686938  1  0  0.11769  0  3.72663  0  0  0.085903  0  3.983807  0  0  0.091136  0  4.001065  0  0  0.047912  0.082716  0  3.972211  0
N  N70  1  0.39369862  0.56863176  0.64479742  1  0  -0.296814  0  3.158121  0  0  -0.237914  0  3.406321  0  0  -0.249892  0  3.421251  0  0  -0.302442  -0.230247  0  3.397439  0
N  N71  1  0.10630023  0.92393951  0.35525336  1  0  -0.296151  0  3.158392  0  0  -0.236797  0  3.406008  0  0  -0.248751  0  3.420953  0  0  -0.302441  -0.229155  0  3.397141  0
N  N72  1  0.60629038  0.43135613  0.35517998  1  0  -0.296861  0  3.158131  0  0  -0.237931  0  3.406296  0  0  -0.249911  0  3.42124  0  0  -0.302575  -0.230267  0  3.397418  0
N  N73  1  0.89369651  0.07605400  0.64474904  1  0  -0.296195  0  3.158358  0  0  -0.236844  0  3.406006  0  0  -0.248801  0  3.420946  0  0  -0.302402  -0.229199  0  3.397134  0
N  N74  1  0.24993025  0.36862099  0.99988864  1  0  -0.321043  0  3.20612  0  0  -0.249216  0  3.439569  0  0  -0.262623  0  3.454613  0  0  -0.305708  -0.240075  0  3.430108  0
N  N75  1  0.75006762  0.63139868  0.00013283  1  0  -0.320695  0  3.205748  0  0  -0.248848  0  3.439199  0  0  -0.262254  0  3.454252  0  0  -0.305456  -0.239715  0  3.429746  0
O  O76  1  0.14160694  0.09921981  0.16231300  1  0  -0.735804  0  2.095021  0  0  -0.70063  0  2.36277  0  0  -0.72428  0  2.347773  0  0  -0.397612  -0.669813  0  2.37341  0
O  O77  1  0.35843969  0.93680022  0.83773966  1  0  -0.735452  0  2.094821  0  0  -0.700175  0  2.362042  0  0  -0.723883  0  2.347177  0  0  -0.398064  -0.669354  0  2.372626  0
O  O78  1  0.85836223  0.90076930  0.83765874  1  0  -0.735705  0  2.094992  0  0  -0.700557  0  2.362915  0  0  -0.724208  0  2.347931  0  0  -0.397629  -0.669734  0  2.373565  0
O  O79  1  0.64156241  0.06318489  0.16225924  1  0  -0.735518  0  2.094991  0  0  -0.700302  0  2.362202  0  0  -0.724013  0  2.347338  0  0  -0.398138  -0.669473  0  2.372792  0
O  O80  1  0.95655375  0.18701137  0.21888741  1  0  -0.70947  0  2.010336  0  0  -0.669643  0  2.256425  0  0  -0.694513  0  2.245627  0  0  -0.374776  -0.642023  0  2.266229  0
O  O81  1  0.54349469  0.96834512  0.78125030  1  0  -0.709559  0  2.010394  0  0  -0.669765  0  2.256158  0  0  -0.694664  0  2.245396  0  0  -0.374979  -0.642134  0  2.265976  0
O  O82  1  0.04343537  0.81297696  0.78110813  1  0  -0.709578  0  2.010138  0  0  -0.669735  0  2.256326  0  0  -0.694594  0  2.245525  0  0  -0.37481  -0.642123  0  2.266132  0
O  O83  1  0.45651320  0.03164631  0.21875903  1  0  -0.709462  0  2.010296  0  0  -0.669708  0  2.256029  0  0  -0.694607  0  2.245266  0  0  -0.374974  -0.642088  0  2.265841  0
O  O84  1  0.18101882  0.82745267  0.06631670  1  0  -0.66822  0  1.991299  0  0  -0.634585  0  2.232124  0  0  -0.658937  0  2.224708  0  0  -0.363888  -0.609806  0  2.236801  0
O  O85  1  0.31843889  0.76117265  0.93345643  1  0  -0.668069  0  1.990619  0  0  -0.634414  0  2.231495  0  0  -0.658733  0  2.223969  0  0  -0.364082  -0.609663  0  2.236271  0
O  O86  1  0.81898882  0.17255934  0.93369233  1  0  -0.668216  0  1.991376  0  0  -0.634606  0  2.232218  0  0  -0.658939  0  2.224767  0  0  -0.363864  -0.609821  0  2.236896  0
O  O87  1  0.68155533  0.23883219  0.06654470  1  0  -0.668056  0  1.990567  0  0  -0.634393  0  2.231412  0  0  -0.658715  0  2.22389  0  0  -0.364087  -0.609637  0  2.236188  0
O  O88  1  0.38110376  0.21450014  0.12019330  1  0  -0.920675  0  1.973758  0  0  -0.881685  0  2.183918  0  0  -0.900208  0  2.15185  0  0  -0.657072  -0.857561  0  2.211855  0
O  O89  1  0.11904393  0.09409301  0.87945755  1  0  -0.921325  0  1.973604  0  0  -0.881422  0  2.184514  0  0  -0.900057  0  2.152554  0  0  -0.657334  -0.85722  0  2.21234  0
O  O90  1  0.61890220  0.78549203  0.87980238  1  0  -0.920604  0  1.973865  0  0  -0.881555  0  2.184024  0  0  -0.900087  0  2.151938  0  0  -0.657007  -0.857427  0  2.212  0
O  O91  1  0.88096745  0.90590401  0.12052981  1  0  -0.921381  0  1.973656  0  0  -0.88148  0  2.184504  0  0  -0.900113  0  2.152525  0  0  -0.657384  -0.857267  0  2.212333  0
