# generated using pymatgen
data_ZnH9C11N3O4
_symmetry_space_group_name_H-M   'P 1'
_cell_length_a   7.54086218
_cell_length_b   12.22271205
_cell_length_c   12.43929616
_cell_angle_alpha   92.89038855
_cell_angle_beta   89.99998980
_cell_angle_gamma   90.00004095
_symmetry_Int_Tables_number   1
_chemical_formula_structural   ZnH9C11N3O4
_chemical_formula_sum   'Zn4 H36 C44 N12 O16'
_cell_volume   1145.06870038
_cell_formula_units_Z   4
loop_
 _symmetry_equiv_pos_site_id
 _symmetry_equiv_pos_as_xyz
  1  'x, y, z'
loop_
 _atom_site_type_symbol
 _atom_site_label
 _atom_site_symmetry_multiplicity
 _atom_site_fract_x
 _atom_site_fract_y
 _atom_site_fract_z
 _atom_site_occupancy
 _atom_site_hle17_bader_spin_density
 _atom_site_hle17_ddec_charge
 _atom_site_hle17_ddec_spin_density
 _atom_site_hle17_ddec_sum_bond_order
 _atom_site_hle17_magmom
 _atom_site_hse06_10hf_bader_spin_density
 _atom_site_hse06_10hf_ddec_charge
 _atom_site_hse06_10hf_ddec_spin_density
 _atom_site_hse06_10hf_ddec_sum_bond_order
 _atom_site_hse06_10hf_magmom
 _atom_site_hse06_bader_spin_density
 _atom_site_hse06_ddec_charge
 _atom_site_hse06_ddec_spin_density
 _atom_site_hse06_ddec_sum_bond_order
 _atom_site_hse06_magmom
 _atom_site_pbe_bader_spin_density
 _atom_site_pbe_cm5_charge
 _atom_site_pbe_ddec_charge
 _atom_site_pbe_ddec_spin_density
 _atom_site_pbe_ddec_sum_bond_order
 _atom_site_pbe_magmom
Zn  Zn0  1  0.83025680  0.71648972  0.92712412  1  0  0.986144  0  1.888267  0  0  0.80538  0  2.347295  0  0  0.8538  0  2.29533  0  0  0.680929  0.771597  0  2.382755  0
Zn  Zn1  1  0.33025703  0.78351062  0.57287679  1  0  0.986191  0  1.888262  0  0  0.805412  0  2.347298  0  0  0.853836  0  2.29533  0  0  0.68093  0.771628  0  2.382756  0
Zn  Zn2  1  0.16974334  0.28351137  0.07287571  1  0  0.98621  0  1.888236  0  0  0.805437  0  2.347259  0  0  0.853855  0  2.295294  0  0  0.680921  0.771637  0  2.382707  0
Zn  Zn3  1  0.66974443  0.21648884  0.42712377  1  0  0.986183  0  1.888259  0  0  0.805413  0  2.347291  0  0  0.853831  0  2.295324  0  0  0.680914  0.771614  0  2.382741  0
H  H4  1  0.83084044  0.97031241  0.91685846  1  0  0.078778  0  0.956932  0  0  0.088386  0  1.019689  0  0  0.090426  0  1.018235  0  0  0.116596  0.086887  0  1.020737  0
H  H5  1  0.33084037  0.52968874  0.58314089  1  0  0.078777  0  0.956944  0  0  0.088381  0  1.019702  0  0  0.090422  0  1.018248  0  0  0.11659  0.086878  0  1.020746  0
H  H6  1  0.16915971  0.02968950  0.08314061  1  0  0.078798  0  0.956966  0  0  0.088405  0  1.019725  0  0  0.090445  0  1.018272  0  0  0.116581  0.086897  0  1.02076  0
H  H7  1  0.66915977  0.47031153  0.41685891  1  0  0.078791  0  0.956918  0  0  0.088398  0  1.019679  0  0  0.090439  0  1.018224  0  0  0.116594  0.086891  0  1.020718  0
H  H8  1  0.72953336  0.13125014  0.03383029  1  0  0.121821  0  0.952139  0  0  0.130672  0  1.011098  0  0  0.134496  0  1.00967  0  0  0.107639  0.127862  0  1.012352  0
H  H9  1  0.22953491  0.36874928  0.46616996  1  0  0.12182  0  0.952114  0  0  0.130688  0  1.011057  0  0  0.134515  0  1.009632  0  0  0.107645  0.127885  0  1.012305  0
H  H10  1  0.27046545  0.86875014  0.96617112  1  0  0.121866  0  0.952095  0  0  0.130689  0  1.011085  0  0  0.13451  0  1.009657  0  0  0.107634  0.127877  0  1.012344  0
H  H11  1  0.77046656  0.63124936  0.53383057  1  0  0.121839  0  0.95213  0  0  0.13069  0  1.011082  0  0  0.134515  0  1.009655  0  0  0.107652  0.127871  0  1.012348  0
H  H12  1  0.58812641  0.09259114  0.21373720  1  0  0.093845  0  0.975481  0  0  0.103194  0  1.039596  0  0  0.105531  0  1.037589  0  0  0.105515  0.101408  0  1.041155  0
H  H13  1  0.08812540  0.40740822  0.28626305  1  0  0.093862  0  0.97541  0  0  0.103212  0  1.039527  0  0  0.105549  0  1.037517  0  0  0.105533  0.101428  0  1.041089  0
H  H14  1  0.41187241  0.90740914  0.78626340  1  0  0.093792  0  0.975536  0  0  0.10314  0  1.039663  0  0  0.105476  0  1.037656  0  0  0.105485  0.101364  0  1.041232  0
H  H15  1  0.91187342  0.59259042  0.71373747  1  0  0.093779  0  0.975551  0  0  0.103134  0  1.039674  0  0  0.10547  0  1.037665  0  0  0.10548  0.101354  0  1.04124  0
H  H16  1  0.56362171  0.90195746  0.26813881  1  0  0.128123  0  0.934998  0  0  0.136315  0  0.994549  0  0  0.140188  0  0.993192  0  0  0.113078  0.133488  0  0.995744  0
H  H17  1  0.06362301  0.59804160  0.23186236  1  0  0.128071  0  0.935114  0  0  0.136281  0  0.994635  0  0  0.140148  0  0.993276  0  0  0.113056  0.133423  0  0.995872  0
H  H18  1  0.43637843  0.09804281  0.73186099  1  0  0.128105  0  0.93503  0  0  0.13629  0  0.994588  0  0  0.140159  0  0.99323  0  0  0.113073  0.133452  0  0.995811  0
H  H19  1  0.93637846  0.40195704  0.76813896  1  0  0.128122  0  0.935015  0  0  0.136312  0  0.994565  0  0  0.140185  0  0.993208  0  0  0.113074  0.133488  0  0.995766  0
H  H20  1  0.59973538  0.47960744  0.24653253  1  0  0.121683  0  0.983705  0  0  0.127645  0  1.051293  0  0  0.131806  0  1.04708  0  0  0.122233  0.124531  0  1.054449  0
H  H21  1  0.09973525  0.02039273  0.25346696  1  0  0.121671  0  0.98371  0  0  0.127635  0  1.051298  0  0  0.131794  0  1.047085  0  0  0.122235  0.124519  0  1.054455  0
H  H22  1  0.40026477  0.52039283  0.75346647  1  0  0.121681  0  0.983693  0  0  0.127643  0  1.051283  0  0  0.131804  0  1.047069  0  0  0.122227  0.124531  0  1.054438  0
H  H23  1  0.90026356  0.97960672  0.74653360  1  0  0.121674  0  0.983691  0  0  0.127635  0  1.051284  0  0  0.131796  0  1.04707  0  0  0.122231  0.12453  0  1.054446  0
H  H24  1  0.58328247  0.70018281  0.31467586  1  0  0.151366  0  0.964853  0  0  0.159876  0  1.022776  0  0  0.163815  0  1.021195  0  0  0.111685  0.157041  0  1.024074  0
H  H25  1  0.08328269  0.79981707  0.18532374  1  0  0.151349  0  0.964866  0  0  0.159856  0  1.022795  0  0  0.163795  0  1.021214  0  0  0.111677  0.157025  0  1.024098  0
H  H26  1  0.41671900  0.29981665  0.68532470  1  0  0.151327  0  0.964924  0  0  0.159869  0  1.022805  0  0  0.163809  0  1.021222  0  0  0.111688  0.157038  0  1.024108  0
H  H27  1  0.91671745  0.20018320  0.81467606  1  0  0.15136  0  0.964853  0  0  0.159867  0  1.02278  0  0  0.163806  0  1.021199  0  0  0.111682  0.157038  0  1.024081  0
H  H28  1  0.69104711  0.47318864  0.94716772  1  0  0.134015  0  0.905171  0  0  0.146055  0  0.965819  0  0  0.148565  0  0.964625  0  0  0.131257  0.144287  0  0.966783  0
H  H29  1  0.19104838  0.02681192  0.55283229  1  0  0.134014  0  0.905184  0  0  0.14606  0  0.965825  0  0  0.148571  0  0.964631  0  0  0.131275  0.144296  0  0.966795  0
H  H30  1  0.30895171  0.52681163  0.05283207  1  0  0.134024  0  0.905172  0  0  0.146069  0  0.965812  0  0  0.14858  0  0.964618  0  0  0.131274  0.1443  0  0.96677  0
H  H31  1  0.80895309  0.97318835  0.44716832  1  0  0.134018  0  0.905171  0  0  0.146056  0  0.965819  0  0  0.148566  0  0.964625  0  0  0.131253  0.144287  0  0.966774  0
H  H32  1  0.59080136  0.39385439  0.04757716  1  0  0.127416  0  0.944877  0  0  0.134794  0  1.013511  0  0  0.137673  0  1.011791  0  0  0.12197  0.132746  0  1.014841  0
H  H33  1  0.09080128  0.10614578  0.45242314  1  0  0.127438  0  0.944893  0  0  0.134819  0  1.013525  0  0  0.137697  0  1.011805  0  0  0.121986  0.132775  0  1.01485  0
H  H34  1  0.40919878  0.60614588  0.95242184  1  0  0.127438  0  0.944888  0  0  0.134817  0  1.013524  0  0  0.137695  0  1.011805  0  0  0.121989  0.132772  0  1.014854  0
H  H35  1  0.90920019  0.89385449  0.54757747  1  0  0.127395  0  0.944873  0  0  0.134788  0  1.01349  0  0  0.137667  0  1.011769  0  0  0.121978  0.132743  0  1.014818  0
H  H36  1  0.15084910  0.71606516  0.77669079  1  0  0.010877  0  0.960879  0  0  0.020694  0  1.028549  0  0  0.021592  0  1.024257  0  0  0.108747  0.019749  0  1.031827  0
H  H37  1  0.65084900  0.78393428  0.72330930  1  0  0.010872  0  0.960903  0  0  0.020694  0  1.028564  0  0  0.021592  0  1.024273  0  0  0.108748  0.019765  0  1.031837  0
H  H38  1  0.84915237  0.28393430  0.22330897  1  0  0.010875  0  0.960912  0  0  0.020693  0  1.028581  0  0  0.02159  0  1.02429  0  0  0.108747  0.019759  0  1.031852  0
H  H39  1  0.34915114  0.21606599  0.27669050  1  0  0.010887  0  0.960898  0  0  0.020706  0  1.028563  0  0  0.021604  0  1.024272  0  0  0.108749  0.019773  0  1.03183  0
C  C40  1  0.68335734  0.83461167  0.12077064  1  0  0.198332  0  3.777943  0  0  0.195411  0  4.015714  0  0  0.203043  0  4.03461  0  0  0.125541  0.190216  0  4.002955  0
C  C41  1  0.18335735  0.66538826  0.37923056  1  0  0.198292  0  3.777963  0  0  0.195421  0  4.015617  0  0  0.203059  0  4.034514  0  0  0.125511  0.190219  0  4.002851  0
C  C42  1  0.31664413  0.16538860  0.87922915  1  0  0.198371  0  3.778021  0  0  0.195501  0  4.015697  0  0  0.203137  0  4.034593  0  0  0.125567  0.190308  0  4.002934  0
C  C43  1  0.81664280  0.33461202  0.62077084  1  0  0.198368  0  3.77793  0  0  0.195433  0  4.015712  0  0  0.203075  0  4.03461  0  0  0.125526  0.190221  0  4.002951  0
C  C44  1  0.77037916  0.95946007  0.99506347  1  0  0.138894  0  3.711275  0  0  0.107774  0  3.963275  0  0  0.115044  0  3.981537  0  0  0.049672  0.103087  0  3.950846  0
C  C45  1  0.27038046  0.54053942  0.50493661  1  0  0.138908  0  3.711309  0  0  0.107778  0  3.963315  0  0  0.115048  0  3.981581  0  0  0.049659  0.10309  0  3.950877  0
C  C46  1  0.22962098  0.04054102  0.00493717  1  0  0.13882  0  3.711303  0  0  0.107674  0  3.963313  0  0  0.114944  0  3.981577  0  0  0.049663  0.102999  0  3.950851  0
C  C47  1  0.72962101  0.45946004  0.49506396  1  0  0.138888  0  3.71133  0  0  0.107751  0  3.963335  0  0  0.115021  0  3.9816  0  0  0.049659  0.103068  0  3.950871  0
C  C48  1  0.71267449  0.04819032  0.06043128  1  0  -0.125845  0  3.710294  0  0  -0.139854  0  3.963571  0  0  -0.147221  0  3.984837  0  0  -0.086318  -0.135135  0  3.949376  0
C  C49  1  0.21267482  0.45180991  0.43956900  1  0  -0.125858  0  3.710332  0  0  -0.139883  0  3.963619  0  0  -0.147257  0  3.984891  0  0  -0.086326  -0.135176  0  3.949422  0
C  C50  1  0.28732432  0.95181077  0.93956855  1  0  -0.125905  0  3.710275  0  0  -0.139889  0  3.963556  0  0  -0.147251  0  3.984818  0  0  -0.086313  -0.135169  0  3.949372  0
C  C51  1  0.78732400  0.54818955  0.56043156  1  0  -0.1259  0  3.710312  0  0  -0.139904  0  3.96359  0  0  -0.147272  0  3.984855  0  0  -0.086338  -0.13518  0  3.949398  0
C  C52  1  0.63626809  0.02678385  0.15941245  1  0  0.010111  0  3.712771  0  0  -0.010652  0  3.964956  0  0  -0.006321  0  3.983002  0  0  -0.066034  -0.01332  0  3.952728  0
C  C53  1  0.13626448  0.47321471  0.34058937  1  0  0.010123  0  3.712648  0  0  -0.010654  0  3.964852  0  0  -0.006323  0  3.982897  0  0  -0.066048  -0.013328  0  3.952627  0
C  C54  1  0.36373073  0.97321560  0.84058811  1  0  0.010239  0  3.712796  0  0  -0.010526  0  3.964958  0  0  -0.006194  0  3.983002  0  0  -0.06598  -0.013204  0  3.952765  0
C  C55  1  0.86373035  0.52678393  0.65941277  1  0  0.010271  0  3.712754  0  0  -0.0105  0  3.964921  0  0  -0.006167  0  3.982969  0  0  -0.065975  -0.013184  0  3.952715  0
C  C56  1  0.62206332  0.91939542  0.19075507  1  0  -0.13667  0  3.667848  0  0  -0.154392  0  3.913434  0  0  -0.161148  0  3.932733  0  0  -0.075528  -0.150065  0  3.900626  0
C  C57  1  0.12206060  0.58060366  0.30924610  1  0  -0.136586  0  3.667907  0  0  -0.154319  0  3.913431  0  0  -0.161065  0  3.932721  0  0  -0.075475  -0.149967  0  3.90064  0
C  C58  1  0.37793682  0.08060485  0.80924553  1  0  -0.136714  0  3.667926  0  0  -0.154438  0  3.913467  0  0  -0.16119  0  3.932761  0  0  -0.075528  -0.150099  0  3.900689  0
C  C59  1  0.87793689  0.41939580  0.69075526  1  0  -0.136735  0  3.667901  0  0  -0.154435  0  3.913468  0  0  -0.161193  0  3.932766  0  0  -0.075526  -0.150113  0  3.900676  0
C  C60  1  0.67138384  0.71892972  0.14393830  1  0  0.124704  0  3.815034  0  0  0.112357  0  4.07696  0  0  0.118733  0  4.095918  0  0  0.095933  0.108326  0  4.063928  0
C  C61  1  0.17138531  0.78107020  0.35606130  1  0  0.124674  0  3.815002  0  0  0.112316  0  4.076905  0  0  0.118676  0  4.095883  0  0  0.095901  0.10829  0  4.063867  0
C  C62  1  0.32861631  0.28107056  0.85606230  1  0  0.12471  0  3.815082  0  0  0.112328  0  4.077023  0  0  0.118694  0  4.095994  0  0  0.095942  0.108294  0  4.063989  0
C  C63  1  0.82861616  0.21892925  0.64393846  1  0  0.124677  0  3.815022  0  0  0.112312  0  4.076997  0  0  0.118662  0  4.095991  0  0  0.095908  0.108297  0  4.063948  0
C  C64  1  0.63003170  0.55358107  0.20527239  1  0  0.007475  0  3.626356  0  0  -0.055217  0  3.889023  0  0  -0.048415  0  3.902447  0  0  0.023893  -0.059262  0  3.879752  0
C  C65  1  0.13003205  0.94641964  0.29472725  1  0  0.007509  0  3.626338  0  0  -0.055186  0  3.889002  0  0  -0.048385  0  3.902428  0  0  0.02388  -0.059238  0  3.879739  0
C  C66  1  0.36996845  0.44641920  0.79472821  1  0  0.007476  0  3.626337  0  0  -0.055214  0  3.889009  0  0  -0.048413  0  3.902432  0  0  0.023889  -0.059267  0  3.879747  0
C  C67  1  0.86996809  0.05358063  0.70527174  1  0  0.007489  0  3.626363  0  0  -0.055202  0  3.889019  0  0  -0.0484  0  3.90244  0  0  0.023905  -0.059254  0  3.879779  0
C  C68  1  0.61943880  0.66414113  0.23618765  1  0  -0.221579  0  3.704766  0  0  -0.241973  0  3.966082  0  0  -0.250844  0  3.985751  0  0  -0.105271  -0.236151  0  3.952675  0
C  C69  1  0.11944037  0.83585876  0.26381115  1  0  -0.221542  0  3.704739  0  0  -0.241942  0  3.966063  0  0  -0.250808  0  3.985734  0  0  -0.105241  -0.236133  0  3.952665  0
C  C70  1  0.38055869  0.33585832  0.76381131  1  0  -0.221526  0  3.704798  0  0  -0.241944  0  3.966111  0  0  -0.250813  0  3.985783  0  0  -0.105252  -0.236129  0  3.952715  0
C  C71  1  0.88055845  0.16414069  0.73618861  1  0  -0.221553  0  3.704761  0  0  -0.241933  0  3.966079  0  0  -0.250797  0  3.985755  0  0  -0.105233  -0.236111  0  3.952682  0
C  C72  1  0.70202608  0.44832737  0.03037824  1  0  -0.185343  0  3.610489  0  0  -0.256111  0  3.853021  0  0  -0.258441  0  3.858903  0  0  -0.050654  -0.254609  0  3.84932  0
C  C73  1  0.20202461  0.05167368  0.46962208  1  0  -0.185363  0  3.610517  0  0  -0.256146  0  3.853049  0  0  -0.258475  0  3.858928  0  0  -0.050689  -0.254658  0  3.849382  0
C  C74  1  0.29797406  0.55167373  0.96962160  1  0  -0.185332  0  3.610511  0  0  -0.256113  0  3.853059  0  0  -0.258444  0  3.858942  0  0  -0.050681  -0.254632  0  3.849383  0
C  C75  1  0.79797421  0.94832659  0.53037771  1  0  -0.185325  0  3.610447  0  0  -0.256107  0  3.852975  0  0  -0.258437  0  3.858857  0  0  -0.050659  -0.254609  0  3.849282  0
C  C76  1  0.87216043  0.38243505  0.03990283  1  0  0.668632  0  3.89105  0  0  0.61969  0  4.198947  0  0  0.652762  0  4.191965  0  0  0.195989  0.597259  0  4.202929  0
C  C77  1  0.37216169  0.11756525  0.46009663  1  0  0.668636  0  3.891006  0  0  0.6197  0  4.1989  0  0  0.652772  0  4.191917  0  0  0.195994  0.597271  0  4.202882  0
C  C78  1  0.12783838  0.61756522  0.96009616  1  0  0.668581  0  3.89106  0  0  0.619647  0  4.198951  0  0  0.652718  0  4.191971  0  0  0.195969  0.597222  0  4.202924  0
C  C79  1  0.62783978  0.88243502  0.53990317  1  0  0.668603  0  3.891059  0  0  0.619664  0  4.198946  0  0  0.652736  0  4.191964  0  0  0.195987  0.597237  0  4.202929  0
C  C80  1  0.06817690  0.78447191  0.75013717  1  0  0.57447  0  3.888388  0  0  0.503347  0  4.189237  0  0  0.536532  0  4.182016  0  0  0.144378  0.480972  0  4.193379  0
C  C81  1  0.56817804  0.71552831  0.74986377  1  0  0.574473  0  3.888362  0  0  0.503353  0  4.189199  0  0  0.536539  0  4.181982  0  0  0.144401  0.480961  0  4.193351  0
C  C82  1  0.93182324  0.21552836  0.24986263  1  0  0.574463  0  3.888425  0  0  0.503328  0  4.189288  0  0  0.536512  0  4.182069  0  0  0.144375  0.480933  0  4.193436  0
C  C83  1  0.43182343  0.28447196  0.25013603  1  0  0.574469  0  3.888416  0  0  0.503337  0  4.189275  0  0  0.536521  0  4.182057  0  0  0.144374  0.480941  0  4.193425  0
N  N84  1  0.75568596  0.85554792  0.02387490  1  0  -0.362073  0  3.264181  0  0  -0.28623  0  3.526307  0  0  -0.305028  0  3.541272  0  0  -0.321504  -0.273535  0  3.516103  0
N  N85  1  0.25568725  0.64445286  0.47612474  1  0  -0.362121  0  3.264187  0  0  -0.286275  0  3.526262  0  0  -0.305073  0  3.541226  0  0  -0.321515  -0.273577  0  3.516055  0
N  N86  1  0.24431418  0.14445481  0.97612422  1  0  -0.3621  0  3.264185  0  0  -0.28624  0  3.526264  0  0  -0.305038  0  3.541228  0  0  -0.321555  -0.273531  0  3.516034  0
N  N87  1  0.74431422  0.35554741  0.52387506  1  0  -0.362121  0  3.264193  0  0  -0.28625  0  3.526303  0  0  -0.305047  0  3.541264  0  0  -0.32151  -0.273543  0  3.516074  0
N  N88  1  0.71190172  0.64558194  0.06314076  1  0  -0.312354  0  3.127327  0  0  -0.279993  0  3.399337  0  0  -0.293935  0  3.413987  0  0  -0.235778  -0.270506  0  3.389455  0
N  N89  1  0.21190193  0.85441800  0.43685883  1  0  -0.312346  0  3.127298  0  0  -0.279998  0  3.39931  0  0  -0.293935  0  3.413965  0  0  -0.23578  -0.270518  0  3.389434  0
N  N90  1  0.28809842  0.35441834  0.93685904  1  0  -0.312373  0  3.127358  0  0  -0.280007  0  3.399375  0  0  -0.293946  0  3.414027  0  0  -0.235789  -0.270513  0  3.389479  0
N  N91  1  0.78809954  0.14558145  0.56314093  1  0  -0.312336  0  3.127285  0  0  -0.280006  0  3.399337  0  0  -0.293939  0  3.413995  0  0  -0.23575  -0.270507  0  3.389438  0
N  N92  1  0.68617781  0.54601851  0.10109545  1  0  0.121116  0  3.575424  0  0  0.233889  0  3.757758  0  0  0.227635  0  3.780906  0  0  -0.131338  0.237758  0  3.742319  0
N  N93  1  0.18617814  0.95398141  0.39890414  1  0  0.121104  0  3.575424  0  0  0.233896  0  3.757741  0  0  0.227643  0  3.780888  0  0  -0.131333  0.237762  0  3.742306  0
N  N94  1  0.31382101  0.45398094  0.89890350  1  0  0.121101  0  3.575458  0  0  0.233876  0  3.757788  0  0  0.227623  0  3.780937  0  0  -0.13133  0.237746  0  3.742345  0
N  N95  1  0.81382067  0.04601804  0.60109642  1  0  0.121106  0  3.575461  0  0  0.233905  0  3.757779  0  0  0.227653  0  3.780925  0  0  -0.131342  0.23777  0  3.742352  0
O  O96  1  0.99495409  0.41687405  0.10418197  1  0  -0.63658  0  1.999759  0  0  -0.572272  0  2.255333  0  0  -0.600712  0  2.245651  0  0  -0.323127  -0.552364  0  2.261169  0
O  O97  1  0.49495400  0.08312712  0.39581753  1  0  -0.636583  0  1.99976  0  0  -0.572266  0  2.25531  0  0  -0.600705  0  2.245628  0  0  -0.323131  -0.552361  0  2.261164  0
O  O98  1  0.00504605  0.58312623  0.89581863  1  0  -0.636513  0  1.999784  0  0  -0.572203  0  2.255346  0  0  -0.600643  0  2.245667  0  0  -0.3231  -0.552301  0  2.261201  0
O  O99  1  0.50504747  0.91687315  0.60418227  1  0  -0.636553  0  1.999784  0  0  -0.572245  0  2.255356  0  0  -0.600686  0  2.245674  0  0  -0.3231  -0.552339  0  2.261209  0
O  O100  1  0.88067916  0.29363080  0.98396198  1  0  -0.633346  0  1.911495  0  0  -0.584183  0  2.145866  0  0  -0.60883  0  2.136188  0  0  -0.326622  -0.566769  0  2.151848  0
O  O101  1  0.38068198  0.20636903  0.51603797  1  0  -0.633344  0  1.911484  0  0  -0.584185  0  2.145851  0  0  -0.608833  0  2.136174  0  0  -0.326625  -0.566767  0  2.151834  0
O  O102  1  0.11931965  0.70636947  0.01603782  1  0  -0.633372  0  1.91148  0  0  -0.584199  0  2.145833  0  0  -0.608845  0  2.136153  0  0  -0.326642  -0.566781  0  2.15181  0
O  O103  1  0.61932082  0.79363043  0.48396259  1  0  -0.633327  0  1.911475  0  0  -0.584174  0  2.145859  0  0  -0.608822  0  2.136182  0  0  -0.326634  -0.566747  0  2.151831  0
O  O104  1  0.93195877  0.81217672  0.80490976  1  0  -0.59637  0  2.120886  0  0  -0.524877  0  2.388035  0  0  -0.552951  0  2.376405  0  0  -0.3147  -0.505327  0  2.39529  0
O  O105  1  0.43195753  0.68782284  0.69509111  1  0  -0.596399  0  2.120898  0  0  -0.524893  0  2.388033  0  0  -0.552957  0  2.376382  0  0  -0.314711  -0.505339  0  2.395285  0
O  O106  1  0.06804270  0.18782355  0.19509004  1  0  -0.596404  0  2.120927  0  0  -0.524884  0  2.388045  0  0  -0.552949  0  2.3764  0  0  -0.314722  -0.50534  0  2.395298  0
O  O107  1  0.56804261  0.31217661  0.30490865  1  0  -0.596409  0  2.120929  0  0  -0.524885  0  2.388039  0  0  -0.552951  0  2.376396  0  0  -0.314708  -0.505338  0  2.395293  0
O  O108  1  0.11503232  0.83122071  0.66582170  1  0  -0.587655  0  2.118621  0  0  -0.519748  0  2.39293  0  0  -0.547828  0  2.381835  0  0  -0.318154  -0.500169  0  2.399705  0
O  O109  1  0.61503206  0.66877953  0.83417924  1  0  -0.587633  0  2.118562  0  0  -0.519743  0  2.392892  0  0  -0.547817  0  2.381778  0  0  -0.318173  -0.500163  0  2.399671  0
O  O110  1  0.88496782  0.16877874  0.33417806  1  0  -0.58764  0  2.118613  0  0  -0.519741  0  2.392935  0  0  -0.547819  0  2.381833  0  0  -0.318158  -0.500169  0  2.39971  0
O  O111  1  0.38496941  0.33122074  0.16582056  1  0  -0.587652  0  2.118598  0  0  -0.519756  0  2.392922  0  0  -0.547834  0  2.381819  0  0  -0.318166  -0.500185  0  2.399699  0
