# generated using pymatgen
data_Mg2H9C18N4O6F
_symmetry_space_group_name_H-M   'P 1'
_cell_length_a   6.74868784
_cell_length_b   31.39402725
_cell_length_c   31.39680060
_cell_angle_alpha   119.49472155
_cell_angle_beta   94.09860486
_cell_angle_gamma   94.10926786
_symmetry_Int_Tables_number   1
_chemical_formula_structural   Mg2H9C18N4O6F
_chemical_formula_sum   'Mg6 H27 C54 N12 O18 F3'
_cell_volume   5731.19016267
_cell_formula_units_Z   3
loop_
 _symmetry_equiv_pos_site_id
 _symmetry_equiv_pos_as_xyz
  1  'x, y, z'
loop_
 _atom_site_type_symbol
 _atom_site_label
 _atom_site_symmetry_multiplicity
 _atom_site_fract_x
 _atom_site_fract_y
 _atom_site_fract_z
 _atom_site_occupancy
 _atom_site_pbe_bader_charge
 _atom_site_pbe_bader_spin_density
 _atom_site_pbe_cm5_charge
 _atom_site_pbe_ddec_charge
 _atom_site_pbe_ddec_spin_density
 _atom_site_pbe_ddec_sum_bond_order
 _atom_site_pbe_magmom
Mg  Mg0  1  0.45106264  0.32145023  0.69308605  1  1.681743  0  0.906884  1.408394  0  1.334175  0
Mg  Mg1  1  0.85534894  0.66750048  0.36745188  1  1.683693  0  0.899956  1.404922  0  1.331238  0
Mg  Mg2  1  0.75802457  0.30696749  0.62841431  1  1.68302  0  0.906654  1.407349  0  1.335248  0
Mg  Mg3  1  0.48788673  0.63250436  0.30002540  1  1.682981  0  0.899481  1.40396  0  1.331707  0
Mg  Mg4  1  0.12968674  0.37163463  0.67857971  1  1.68168  0  0.906889  1.407676  0  1.335549  0
Mg  Mg5  1  0.18779984  0.69993162  0.33243468  1  1.683629  0  0.899723  1.405213  0  1.330186  0
H  H6  1  0.72945665  0.93143145  0.43742960  1  0.46209  0  0.322289  0.276758  0  0.924546  0
H  H7  1  0.58563744  0.83620395  0.38382132  1  0.106859  0  0.109426  0.127029  0  0.998602  0
H  H8  1  0.25624741  0.81204650  0.43811998  1  0.089163  0  0.109747  0.128329  0  0.985999  0
H  H9  1  0.18929534  0.89510278  0.45505634  1  0.076247  0  0.104182  0.106233  0  1.001967  0
H  H10  1  0.93899090  0.08325075  0.51120012  1  0.459014  0  0.327402  0.284958  0  0.915351  0
H  H11  1  0.96043694  0.16931532  0.54420800  1  0.095429  0  0.106397  0.117144  0  1.015667  0
H  H12  1  0.68592359  0.17892827  0.59018341  1  0.064884  0  0.103002  0.118164  0  1.007865  0
H  H13  1  0.49126985  0.09752727  0.53056626  1  0.111214  0  0.100342  0.107002  0  1.035444  0
H  H14  1  0.47532470  0.97713833  0.40905834  1  0.085803  0  0.119204  0.107699  0  0.97078  0
H  H15  1  0.29113825  0.56256300  0.49390186  1  0.455711  0  0.322314  0.277239  0  0.923997  0
H  H16  1  0.20152009  0.61615264  0.45233005  1  0.120278  0  0.10919  0.126472  0  0.998713  0
H  H17  1  0.81810623  0.56184680  0.37394488  1  0.086233  0  0.109576  0.127893  0  0.986057  0
H  H18  1  0.73412078  0.54496575  0.44009332  1  0.070862  0  0.103791  0.106121  0  1.001417  0
H  H19  1  0.42696488  0.48874557  0.57209895  1  0.442311  0  0.327786  0.285334  0  0.915876  0
H  H20  1  0.41608866  0.45581869  0.62523939  1  0.100623  0  0.10665  0.117291  0  1.016259  0
H  H21  1  0.09579906  0.41001536  0.58890055  1  0.080644  0  0.102872  0.117472  0  1.008911  0
H  H22  1  0.96029442  0.46952898  0.56703773  1  0.095501  0  0.099743  0.106392  0  1.036058  0
H  H23  1  0.06527643  0.59083915  0.56799422  1  0.109047  0  0.118712  0.10704  0  0.971566  0
H  H24  1  0.79769063  0.50602742  0.06863985  1  0.451948  0  0.322081  0.277116  0  0.923902  0
H  H25  1  0.74960985  0.54764544  0.16376443  1  0.115318  0  0.10922  0.126455  0  0.99965  0
H  H26  1  0.44453424  0.62602118  0.18791504  1  0.101056  0  0.109583  0.127815  0  0.985868  0
H  H27  1  0.29457311  0.55988572  0.10485002  1  0.058436  0  0.104067  0.106223  0  1.001834  0
H  H28  1  0.85544135  0.42789789  0.91668805  1  0.440866  0  0.327523  0.285052  0  0.915384  0
H  H29  1  0.79121093  0.37491793  0.83067713  1  0.091382  0  0.106459  0.116906  0  1.016815  0
H  H30  1  0.50718509  0.41116538  0.82107838  1  0.083526  0  0.103002  0.117581  0  1.008906  0
H  H31  1  0.39376142  0.43298779  0.90246567  1  0.097798  0  0.099926  0.107045  0  1.035782  0
H  H32  1  0.49799147  0.43204309  0.02283687  1  0.083533  0  0.118868  0.107055  0  0.971155  0
C  C33  1  0.18599721  0.94437205  0.40954280  1  0.428084  0  0.068218  0.055692  0  4.087548  0
C  C34  1  0.00663803  0.95347333  0.43166460  1  1.067329  0  0.222408  0.309198  0  4.169258  0
C  C35  1  0.88697056  0.87085343  0.41739770  1  0.315785  0  0.076629  0.198944  0  4.078478  0
C  C36  1  0.73426883  0.83164334  0.39593449  1  -0.022885  0  -0.090282  -0.170637  0  3.955219  0
C  C37  1  0.76696461  0.78447952  0.38800857  1  0.031194  0  -0.038309  -0.188506  0  3.966926  0
C  C38  1  0.96336130  0.77637816  0.40061377  1  0.520774  0  0.089256  0.348091  0  4.0875  0
C  C39  1  0.10997233  0.81778419  0.42618932  1  0.088573  0  -0.10368  -0.197144  0  3.997083  0
C  C40  1  0.07280427  0.86387789  0.43484367  1  -0.097812  0  -0.089385  -0.13351  0  4.014781  0
C  C41  1  0.59578159  0.74511551  0.36532815  1  1.496741  0  0.237749  0.673424  0  4.119365  0
C  C42  1  0.12898048  0.03610660  0.47389429  1  1.552148  0  0.333745  0.507383  0  4.113156  0
C  C43  1  0.21007189  0.12726839  0.53407683  1  0.386981  0  0.084038  0.220672  0  4.074254  0
C  C44  1  0.11978492  0.17041987  0.55415085  1  -0.082608  0  -0.095536  -0.185723  0  3.984545  0
C  C45  1  0.22663858  0.21656175  0.58803453  1  0.041345  0  -0.04231  -0.190597  0  3.995431  0
C  C46  1  0.43576368  0.22017412  0.60233243  1  0.567469  0  0.088203  0.353914  0  4.089477  0
C  C47  1  0.52584931  0.17623535  0.57982424  1  -0.016892  0  -0.108041  -0.204031  0  3.988089  0
C  C48  1  0.41771883  0.13080299  0.54672255  1  -0.047405  0  -0.090975  -0.139265  0  3.982459  0
C  C49  1  0.11283387  0.25930492  0.60732773  1  1.522542  0  0.237022  0.674929  0  4.123541  0
C  C50  1  0.33338408  0.98351441  0.42471810  1  0.608463  0  0.032319  0.002251  0  4.101693  0
C  C51  1  0.77536286  0.59041973  0.53485085  1  0.444348  0  0.067939  0.054707  0  4.088961  0
C  C52  1  0.57388070  0.56831505  0.52182340  1  1.043237  0  0.22123  0.30807  0  4.168723  0
C  C53  1  0.46920976  0.58257572  0.45343141  1  0.363282  0  0.076621  0.198694  0  4.079715  0
C  C54  1  0.33804858  0.60403346  0.43566332  1  -0.020146  0  -0.08987  -0.169779  0  3.955836  0
C  C55  1  0.37884883  0.61196110  0.39644348  1  -0.03598  0  -0.039078  -0.189019  0  3.968078  0
C  C56  1  0.56275656  0.59937895  0.37578061  1  0.590893  0  0.090064  0.348499  0  4.086909  0
C  C57  1  0.68375567  0.57379005  0.39161341  1  -0.002844  0  -0.104207  -0.196581  0  3.996542  0
C  C58  1  0.63778894  0.56515408  0.42905418  1  -0.068072  0  -0.088422  -0.133456  0  4.013896  0
C  C59  1  0.23037510  0.63462602  0.37974901  1  1.510755  0  0.237388  0.671922  0  4.1218  0
C  C60  1  0.65401645  0.52607287  0.56220266  1  1.530321  0  0.334418  0.507796  0  4.111175  0
C  C61  1  0.67550537  0.46594074  0.59322462  1  0.320753  0  0.084194  0.221023  0  4.074445  0
C  C62  1  0.56545915  0.44588275  0.61635742  1  -0.041007  0  -0.095634  -0.18608  0  3.984756  0
C  C63  1  0.63865363  0.41203038  0.62862742  1  0.008729  0  -0.041969  -0.189706  0  3.99348  0
C  C64  1  0.83351634  0.39776606  0.61794740  1  0.597756  0  0.086496  0.352012  0  4.091437  0
C  C65  1  0.94596579  0.42031761  0.59653542  1  -0.036719  0  -0.107401  -0.202907  0  3.988411  0
C  C66  1  0.87066086  0.45335908  0.58414944  1  0.001778  0  -0.090252  -0.138312  0  3.982017  0
C  C67  1  0.50561453  0.39273417  0.65207978  1  1.495132  0  0.238402  0.675803  0  4.122188  0
C  C68  1  0.90766135  0.57520257  0.55875642  1  0.559548  0  0.032572  0.002188  0  4.102153  0
C  C69  1  0.24119240  0.46519327  0.05557716  1  0.476672  0  0.067985  0.054712  0  4.087885  0
C  C70  1  0.05260465  0.47814895  0.04648408  1  1.0251  0  0.222564  0.310208  0  4.169545  0
C  C71  1  0.01620908  0.54656343  0.12909896  1  0.33525  0  0.076069  0.197945  0  4.080676  0
C  C72  1  0.90276543  0.56433765  0.16831058  1  -0.07079  0  -0.089823  -0.16967  0  3.956932  0
C  C73  1  0.98255196  0.60357051  0.21545899  1  0.038359  0  -0.038815  -0.189444  0  3.965976  0
C  C74  1  0.18711088  0.62423505  0.22355459  1  0.550939  0  0.090131  0.349452  0  4.08395  0
C  C75  1  0.29243921  0.60837460  0.18215821  1  0.011613  0  -0.103618  -0.195876  0  3.994334  0
C  C76  1  0.20920077  0.57093103  0.13606778  1  -0.01908  0  -0.088938  -0.133715  0  4.013951  0
C  C77  1  0.85069392  0.62023484  0.25482612  1  1.50451  0  0.237558  0.672593  0  4.120202  0
C  C78  1  0.09238149  0.43776933  0.96387150  1  1.534438  0  0.334701  0.509006  0  4.111439  0
C  C79  1  0.08278289  0.40682077  0.87272923  1  0.38212  0  0.084445  0.221028  0  4.074518  0
C  C80  1  0.94945703  0.38374470  0.82957497  1  -0.016166  0  -0.095937  -0.186084  0  3.986116  0
C  C81  1  0.01023185  0.37145549  0.78343640  1  0.003614  0  -0.041796  -0.189529  0  3.994831  0
C  C82  1  0.21575890  0.38212812  0.77983005  1  0.564958  0  0.087137  0.352041  0  4.089926  0
C  C83  1  0.34976072  0.40353267  0.82376554  1  0.013748  0  -0.107671  -0.202384  0  3.986331  0
C  C84  1  0.28698038  0.41588633  0.86919600  1  -0.094083  0  -0.090278  -0.139674  0  3.981331  0
C  C85  1  0.85366522  0.34802309  0.74069947  1  1.487467  0  0.237101  0.674042  0  4.124719  0
C  C86  1  0.34959748  0.44128146  0.01645314  1  0.559698  0  0.031735  0.001991  0  4.100815  0
N  N87  1  0.85532299  0.91734315  0.42294739  1  -1.233825  0  -0.406161  -0.357662  0  3.556758  0
N  N88  1  0.97848768  0.00009517  0.46274711  1  -1.242769  0  -0.351546  -0.493341  0  3.242307  0
N  N89  1  0.08465197  0.08264786  0.50508702  1  -1.259031  0  -0.397394  -0.376465  0  3.56293  0
N  N90  1  0.31035349  0.03007153  0.45790045  1  -1.207286  0  -0.340497  -0.383066  0  3.274805  0
N  N91  1  0.43157669  0.57702067  0.49434607  1  -1.224932  0  -0.405409  -0.3571  0  3.557335  0
N  N92  1  0.51461601  0.53723111  0.53736476  1  -1.219272  0  -0.351498  -0.493291  0  3.240708  0
N  N93  1  0.57872825  0.49487370  0.57756854  1  -1.24026  0  -0.397863  -0.377364  0  3.562758  0
N  N94  1  0.85141377  0.54201664  0.57211182  1  -1.176812  0  -0.340524  -0.381871  0  3.274164  0
N  N95  1  0.93773214  0.50561553  0.08265618  1  -1.225819  0  -0.405285  -0.357308  0  3.558872  0
N  N96  1  0.97774561  0.46257340  0.99986903  1  -1.196465  0  -0.352425  -0.495059  0  3.241814  0
N  N97  1  0.00173965  0.42243161  0.91732252  1  -1.22931  0  -0.397522  -0.376652  0  3.563062  0
N  N98  1  0.27994342  0.42789474  0.96990996  1  -1.193982  0  -0.340249  -0.382411  0  3.273247  0
O  O99  1  0.93275048  0.25526052  0.58942512  1  -1.243105  0  -0.356817  -0.639272  0  2.14844  0
O  O100  1  0.19902525  0.30097425  0.64364919  1  -1.30484  0  -0.400696  -0.766897  0  2.416588  0
O  O101  1  0.54776883  0.26260872  0.63564348  1  -1.318481  0  -0.45311  -0.785436  0  2.310622  0
O  O102  1  0.42171810  0.75409608  0.35631709  1  -1.230214  0  -0.348317  -0.632037  0  2.154907  0
O  O103  1  0.62472486  0.70075292  0.35504750  1  -1.300365  0  -0.400583  -0.775076  0  2.394333  0
O  O104  1  0.01973443  0.73205791  0.38905398  1  -1.305223  0  -0.455242  -0.778949  0  2.305071  0
O  O105  1  0.34343842  0.41065477  0.66596184  1  -1.236891  0  -0.357438  -0.639791  0  2.148984  0
O  O106  1  0.55540426  0.35637379  0.65737808  1  -1.295008  0  -0.40221  -0.767901  0  2.416644  0
O  O107  1  0.91233205  0.36443583  0.62702701  1  -1.313488  0  -0.452433  -0.78489  0  2.311722  0
O  O108  1  0.06524417  0.64360659  0.39771965  1  -1.23526  0  -0.347965  -0.630985  0  2.157486  0
O  O109  1  0.26956667  0.64488571  0.34565277  1  -1.304239  0  -0.400387  -0.774275  0  2.392862  0
O  O110  1  0.63071057  0.61091053  0.34301510  1  -1.306454  0  -0.455639  -0.778856  0  2.304888  0
O  O111  1  0.67758873  0.33420415  0.74476022  1  -1.238898  0  -0.356878  -0.638796  0  2.149061  0
O  O112  1  0.89821038  0.34268025  0.69903079  1  -1.29265  0  -0.401174  -0.767133  0  2.417893  0
O  O113  1  0.28535678  0.37304568  0.73740660  1  -1.311907  0  -0.453162  -0.784746  0  2.311008  0
O  O114  1  0.66760430  0.60224793  0.24585134  1  -1.236187  0  -0.347859  -0.631153  0  2.155486  0
O  O115  1  0.92395027  0.65429547  0.29918831  1  -1.3088  0  -0.400899  -0.774771  0  2.394285  0
O  O116  1  0.28771896  0.65698217  0.26787528  1  -1.311717  0  -0.455716  -0.779682  0  2.304243  0
F  F117  1  0.21527699  0.89814446  0.37386186  1  -0.633328  0  -0.108846  -0.132835  0  1.366238  0
F  F118  1  0.84043303  0.62612236  0.52433900  1  -0.633696  0  -0.108553  -0.132236  0  1.367958  0
F  F119  1  0.31673024  0.47575674  0.10181587  1  -0.631971  0  -0.108756  -0.13263  0  1.367432  0
