# generated using pymatgen
data_CoH6C6(N2O)2
_symmetry_space_group_name_H-M   'P 1'
_cell_length_a   12.00115742
_cell_length_b   12.00119009
_cell_length_c   12.00107252
_cell_angle_alpha   95.93138994
_cell_angle_beta   95.93265903
_cell_angle_gamma   95.93146439
_symmetry_Int_Tables_number   1
_chemical_formula_structural   CoH6C6(N2O)2
_chemical_formula_sum   'Co6 H36 C36 N24 O12'
_cell_volume   1698.63576695
_cell_formula_units_Z   6
loop_
 _symmetry_equiv_pos_site_id
 _symmetry_equiv_pos_as_xyz
  1  'x, y, z'
loop_
 _atom_site_type_symbol
 _atom_site_label
 _atom_site_symmetry_multiplicity
 _atom_site_fract_x
 _atom_site_fract_y
 _atom_site_fract_z
 _atom_site_occupancy
 _atom_site_pbe_bader_charge
 _atom_site_pbe_bader_spin_density
 _atom_site_pbe_cm5_charge
 _atom_site_pbe_ddec_charge
 _atom_site_pbe_ddec_spin_density
 _atom_site_pbe_ddec_sum_bond_order
 _atom_site_pbe_magmom
Co  Co0  1  0.82938791  0.54852815  0.26013865  1  1.202701  2.557626  0.668453  0.804159  2.774896  2.614024  2.517
Co  Co1  1  0.26013558  0.82938474  0.54852033  1  1.202729  2.557577  0.668403  0.803965  2.774868  2.614485  2.517
Co  Co2  1  0.54852734  0.26012191  0.82939292  1  1.202703  2.557578  0.668402  0.803991  2.774856  2.614626  2.517
Co  Co3  1  0.17060498  0.45146828  0.73988685  1  1.20255  2.557524  0.668476  0.803973  2.774795  2.615033  2.517
Co  Co4  1  0.73987742  0.17061631  0.45146682  1  1.202673  2.557535  0.668496  0.803977  2.774822  2.614769  2.517
Co  Co5  1  0.45147731  0.73987829  0.17061747  1  1.202737  2.557537  0.668448  0.804043  2.77483  2.614556  2.517
H  H6  1  0.19468603  0.63037953  0.12519966  1  0.520292  0.001224  0.299535  0.313775  0.000558  0.999544  0.001
H  H7  1  0.12520038  0.19467697  0.63038169  1  0.520422  0.001224  0.299479  0.313629  0.000558  0.999523  0.001
H  H8  1  0.63037585  0.12520302  0.19468166  1  0.52021  0.001225  0.299473  0.31362  0.000559  0.99954  0.001
H  H9  1  0.80532870  0.36962760  0.87479328  1  0.520357  0.001225  0.299443  0.313562  0.000559  0.999443  0.001
H  H10  1  0.87478578  0.80533709  0.36962990  1  0.520347  0.001224  0.299442  0.313526  0.000559  0.999592  0.001
H  H11  1  0.36963213  0.87479251  0.80532360  1  0.520385  0.001224  0.299473  0.313599  0.000559  0.999406  0.001
H  H12  1  0.09825540  0.55411330  0.01099557  1  0.528494  0.000273  0.302859  0.32641  -3.7e-05  0.96522  0.0
H  H13  1  0.01099566  0.09824723  0.55410982  1  0.528629  0.000273  0.302861  0.323834  -3.3e-05  0.968835  0.0
H  H14  1  0.55411179  0.01099812  0.09825293  1  0.528513  0.000272  0.302866  0.324096  -3.3e-05  0.969011  0.0
H  H15  1  0.90177284  0.44590453  0.98899229  1  0.528648  0.000272  0.302769  0.323907  -3.3e-05  0.969318  0.0
H  H16  1  0.98898635  0.90177894  0.44590757  1  0.528668  0.000273  0.302741  0.323685  -3.3e-05  0.969211  0.0
H  H17  1  0.44591139  0.98899076  0.90176652  1  0.528737  0.000273  0.302826  0.324044  -3.3e-05  0.969297  0.0
H  H18  1  0.41655336  0.80836737  0.40122966  1  0.443826  0.003417  0.285332  0.290803  0.001299  1.001536  0.004
H  H19  1  0.40122821  0.41653838  0.80837292  1  0.444028  0.003413  0.285353  0.290691  0.001298  1.001728  0.004
H  H20  1  0.80837244  0.40122192  0.41655721  1  0.443774  0.003416  0.285325  0.290854  0.001298  1.001545  0.004
H  H21  1  0.58345539  0.19162734  0.59875393  1  0.444073  0.003411  0.285336  0.290703  0.001298  1.001731  0.004
H  H22  1  0.59876632  0.58346820  0.19162877  1  0.444187  0.003413  0.285346  0.290819  0.001298  1.001575  0.004
H  H23  1  0.19161698  0.59874647  0.58346597  1  0.443849  0.003416  0.285394  0.290821  0.001298  1.001695  0.004
H  H24  1  0.86853305  0.66626722  0.52701987  1  0.077488  -8.4e-05  0.101243  0.148115  -0.000131  0.990026  0.0
H  H25  1  0.52702828  0.86851962  0.66625594  1  0.077207  -8.5e-05  0.101237  0.148162  -0.000131  0.990006  0.0
H  H26  1  0.66625673  0.52701798  0.86852387  1  0.077216  -8.5e-05  0.101274  0.148205  -0.000131  0.990047  0.0
H  H27  1  0.13148331  0.33373754  0.47296132  1  0.077171  -8.5e-05  0.101237  0.148144  -0.000131  0.990098  0.0
H  H28  1  0.47295366  0.13149896  0.33374735  1  0.077195  -8.5e-05  0.101271  0.148212  -0.000131  0.989981  0.0
H  H29  1  0.33374198  0.47296065  0.13149543  1  0.077025  -8.5e-05  0.101256  0.148174  -0.000131  0.989933  0.0
H  H30  1  0.99035794  0.73627949  0.61495290  1  0.057524  -0.000204  0.103099  0.1516  -0.000253  0.982391  0.0
H  H31  1  0.61495601  0.99035635  0.73627488  1  0.057581  -0.000204  0.103094  0.151621  -0.000253  0.982371  0.0
H  H32  1  0.73627110  0.61494550  0.99035388  1  0.057622  -0.000204  0.103135  0.151684  -0.000253  0.982344  0.0
H  H33  1  0.00964412  0.26372787  0.38503045  1  0.057547  -0.000204  0.103087  0.151644  -0.000253  0.982363  0.0
H  H34  1  0.38502759  0.00965238  0.26373259  1  0.057952  -0.000204  0.103094  0.151626  -0.000253  0.982324  0.0
H  H35  1  0.26372756  0.38502974  0.00965424  1  0.057544  -0.000204  0.10308  0.151614  -0.000253  0.982376  0.0
H  H36  1  0.96560073  0.58674369  0.59680933  1  0.072703  -0.000153  0.097471  0.145925  -0.000238  1.013335  0.0
H  H37  1  0.59681612  0.96559771  0.58673158  1  0.072443  -0.000153  0.09753  0.145917  -0.000238  1.013397  0.0
H  H38  1  0.58673635  0.59681109  0.96559501  1  0.072532  -0.000153  0.097553  0.14599  -0.000238  1.013361  0.0
H  H39  1  0.03440723  0.41326934  0.40316852  1  0.072508  -0.000153  0.097575  0.145989  -0.000238  1.013362  0.0
H  H40  1  0.40317169  0.03440898  0.41327695  1  0.072381  -0.000153  0.097584  0.146005  -0.000238  1.013385  0.0
H  H41  1  0.41326906  0.40316825  0.03441337  1  0.072204  -0.000153  0.097585  0.146021  -0.000238  1.013327  0.0
C  C42  1  0.02317450  0.66062817  0.45457578  1  0.96669  0.001472  0.211885  0.411008  0.000897  3.954943  0.003
C  C43  1  0.45458181  0.02317128  0.66062181  1  0.966301  0.001474  0.211867  0.410993  0.000898  3.955015  0.003
C  C44  1  0.66061548  0.45457281  0.02316291  1  0.965978  0.001476  0.212029  0.411228  0.0009  3.954737  0.003
C  C45  1  0.97683773  0.33938623  0.54541930  1  0.966575  0.001477  0.212032  0.411292  0.0009  3.954636  0.003
C  C46  1  0.54541106  0.97683849  0.33938587  1  0.966798  0.001476  0.211998  0.411194  0.000897  3.954563  0.003
C  C47  1  0.33937639  0.54540581  0.97682904  1  0.967013  0.001472  0.211892  0.410981  0.000894  3.954924  0.003
C  C48  1  0.03786539  0.58264963  0.16375460  1  1.361815  0.002089  0.239812  0.527122  0.001621  4.155021  0.002
C  C49  1  0.16375781  0.03785196  0.58264256  1  1.361448  0.002095  0.239664  0.526583  0.001626  4.15539  0.002
C  C50  1  0.58265227  0.16375933  0.03785192  1  1.361522  0.002097  0.239722  0.526827  0.001626  4.155256  0.002
C  C51  1  0.96215854  0.41734677  0.83622985  1  1.361626  0.002098  0.239561  0.526332  0.001629  4.155564  0.002
C  C52  1  0.83622407  0.96215989  0.41735089  1  1.36221  0.00209  0.23946  0.526053  0.001624  4.155876  0.002
C  C53  1  0.41735315  0.83622919  0.96214821  1  1.361375  0.002091  0.239611  0.526427  0.001623  4.155506  0.002
C  C54  1  0.06564316  0.62639058  0.28250086  1  0.42394  -0.001302  0.064878  -0.026837  -0.00275  4.052883  -0.001
C  C55  1  0.28250932  0.06562881  0.62638474  1  0.424147  -0.001297  0.064733  -0.026987  -0.002743  4.053128  -0.001
C  C56  1  0.62639281  0.28250385  0.06563500  1  0.423743  -0.001311  0.064783  -0.026952  -0.002758  4.053195  -0.001
C  C57  1  0.93437826  0.37361057  0.71748382  1  0.42414  -0.001311  0.064885  -0.026689  -0.002757  4.053011  -0.001
C  C58  1  0.71748101  0.93438566  0.37361148  1  0.423238  -0.001313  0.064789  -0.0268  -0.00276  4.053244  -0.001
C  C59  1  0.37360923  0.71747510  0.93437134  1  0.424266  -0.001305  0.064814  -0.026813  -0.002751  4.052868  -0.001
C  C60  1  0.16114117  0.68151098  0.35055631  1  0.361472  0.005977  0.07438  0.019848  0.002501  4.016319  0.004
C  C61  1  0.35055352  0.16113420  0.68151858  1  0.361603  0.005976  0.074264  0.019727  0.002501  4.016145  0.004
C  C62  1  0.68150799  0.35055641  0.16113478  1  0.361608  0.00598  0.074391  0.019944  0.002502  4.016225  0.004
C  C63  1  0.83886847  0.31848720  0.64943689  1  0.361657  0.00597  0.074311  0.019855  0.002496  4.016028  0.004
C  C64  1  0.64943432  0.83888421  0.31848529  1  0.361629  0.005964  0.074206  0.01987  0.002491  4.016346  0.004
C  C65  1  0.31847466  0.64942289  0.83886881  1  0.361559  0.005966  0.074134  0.019633  0.002492  4.016168  0.004
C  C66  1  0.27531677  0.72265631  0.33043584  1  1.360097  0.007197  0.221858  0.514972  0.005073  4.182028  0.004
C  C67  1  0.33043269  0.27531547  0.72266671  1  1.361237  0.0072  0.221889  0.515064  0.00508  4.182198  0.004
C  C68  1  0.72265467  0.33043223  0.27531418  1  1.360629  0.007187  0.221796  0.514944  0.00507  4.181853  0.004
C  C69  1  0.72468360  0.27733751  0.66956099  1  1.3601  0.007206  0.221946  0.514997  0.005081  4.181473  0.004
C  C70  1  0.66955854  0.72470584  0.27734195  1  1.361354  0.007198  0.222007  0.514916  0.005077  4.18184  0.004
C  C71  1  0.27732713  0.66954865  0.72468782  1  1.361776  0.007195  0.222074  0.515251  0.005079  4.181401  0.004
C  C72  1  0.95820432  0.66280370  0.55379565  1  -0.070821  0.000655  -0.231203  -0.460468  -0.000158  3.925363  0.001
C  C73  1  0.55380237  0.95819588  0.66279414  1  -0.070446  0.000655  -0.231274  -0.460544  -0.000157  3.925271  0.001
C  C74  1  0.66279405  0.55379113  0.95819432  1  -0.070421  0.000655  -0.2314  -0.460805  -0.000158  3.925471  0.001
C  C75  1  0.04180786  0.33720647  0.44618817  1  -0.070654  0.000655  -0.231392  -0.460757  -0.000158  3.925333  0.001
C  C76  1  0.44618295  0.04181974  0.33721336  1  -0.071207  0.000654  -0.231472  -0.460788  -0.000158  3.925085  0.001
C  C77  1  0.33720631  0.44618347  0.04181724  1  -0.070425  0.000655  -0.231444  -0.4607  -0.000158  3.925051  0.001
N  N78  1  0.13306582  0.70298203  0.45840722  1  -1.181424  0.054131  -0.350583  -0.412762  0.026941  3.470559  0.047
N  N79  1  0.45840614  0.13305857  0.70298547  1  -1.181361  0.054128  -0.350515  -0.412662  0.02694  3.470545  0.047
N  N80  1  0.70296853  0.45841038  0.13306498  1  -1.181139  0.054118  -0.350703  -0.412878  0.026936  3.470114  0.047
N  N81  1  0.86693793  0.29702637  0.54157808  1  -1.181349  0.054125  -0.350543  -0.412806  0.026939  3.470234  0.047
N  N82  1  0.54157153  0.86694279  0.29701900  1  -1.18146  0.054121  -0.350511  -0.41285  0.026938  3.470423  0.047
N  N83  1  0.29700569  0.54156799  0.86694017  1  -1.181831  0.054123  -0.350345  -0.412429  0.026936  3.470279  0.047
N  N84  1  0.97989190  0.61403441  0.34963518  1  -1.209455  0.064545  -0.368072  -0.407053  0.034517  3.554945  0.05
N  N85  1  0.34964898  0.97989032  0.61403240  1  -1.209584  0.064529  -0.367956  -0.406936  0.034508  3.555446  0.05
N  N86  1  0.61403974  0.34964170  0.97988862  1  -1.209053  0.064534  -0.367999  -0.407003  0.034513  3.555429  0.05
N  N87  1  0.02012107  0.38596244  0.65034572  1  -1.209568  0.064528  -0.368132  -0.407194  0.034509  3.555664  0.05
N  N88  1  0.65034054  0.02013495  0.38596399  1  -1.208906  0.064534  -0.368009  -0.406997  0.034512  3.555397  0.05
N  N89  1  0.38596145  0.65033716  0.02011845  1  -1.209585  0.064526  -0.367974  -0.40692  0.034509  3.555313  0.05
N  N90  1  0.11546665  0.59181550  0.09291993  1  -1.32847  0.013339  -0.550713  -0.593641  0.006442  3.312454  0.01
N  N91  1  0.09292236  0.11545307  0.59181084  1  -1.328446  0.013344  -0.550572  -0.591253  0.006442  3.315427  0.01
N  N92  1  0.59181113  0.09292229  0.11545139  1  -1.328257  0.013352  -0.550526  -0.591591  0.006447  3.315526  0.01
N  N93  1  0.88455653  0.40819675  0.90707270  1  -1.328489  0.013362  -0.550471  -0.591298  0.006452  3.315484  0.01
N  N94  1  0.90706548  0.88456033  0.40820003  1  -1.329076  0.013356  -0.550435  -0.590877  0.006448  3.315791  0.01
N  N95  1  0.40820695  0.90707183  0.88454891  1  -1.328286  0.013345  -0.550519  -0.591437  0.006443  3.315932  0.01
N  N96  1  0.33741346  0.78025861  0.41900232  1  -1.270105  0.115656  -0.550707  -0.68579  0.059537  3.332999  0.08
N  N97  1  0.41899419  0.33740378  0.78026773  1  -1.271187  0.115644  -0.550667  -0.685582  0.059533  3.333132  0.08
N  N98  1  0.78025874  0.41899663  0.33741396  1  -1.270311  0.115665  -0.550637  -0.685831  0.059542  3.332818  0.08
N  N99  1  0.66259197  0.21973744  0.58099357  1  -1.270436  0.115632  -0.550694  -0.685577  0.05953  3.332939  0.08
N  N100  1  0.58099528  0.66260223  0.21973256  1  -1.271143  0.115644  -0.550733  -0.685695  0.059533  3.332961  0.08
N  N101  1  0.21971805  0.58098623  0.66259773  1  -1.270909  0.115648  -0.550738  -0.685743  0.059537  3.333118  0.08
O  O102  1  0.93676304  0.53576953  0.13134242  1  -1.157033  0.065026  -0.301878  -0.524834  0.033312  2.276117  0.049
O  O103  1  0.13135426  0.93675716  0.53575652  1  -1.156916  0.065036  -0.301758  -0.524447  0.03331  2.276732  0.049
O  O104  1  0.53577792  0.13135712  0.93674813  1  -1.156782  0.065061  -0.301948  -0.524839  0.033334  2.276915  0.049
O  O105  1  0.06326170  0.46422275  0.86863503  1  -1.157029  0.065091  -0.301851  -0.525325  0.033347  2.277478  0.049
O  O106  1  0.86864279  0.06326221  0.46422921  1  -1.15699  0.065084  -0.301714  -0.524319  0.033334  2.276847  0.049
O  O107  1  0.46423935  0.86865114  0.06324935  1  -1.156907  0.065063  -0.30186  -0.524649  0.033329  2.276728  0.049
O  O108  1  0.30621637  0.70185386  0.23039819  1  -1.159683  0.10917  -0.317595  -0.541588  0.05601  2.417432  0.088
O  O109  1  0.23040812  0.30622749  0.70186838  1  -1.159861  0.109159  -0.317563  -0.541634  0.056014  2.417746  0.088
O  O110  1  0.70186165  0.23039693  0.30621953  1  -1.159882  0.109171  -0.317583  -0.541602  0.056019  2.417617  0.088
O  O111  1  0.69376714  0.29813641  0.76959992  1  -1.159654  0.109178  -0.317595  -0.54164  0.056019  2.417231  0.088
O  O112  1  0.76960423  0.69380205  0.29814573  1  -1.159968  0.109166  -0.317642  -0.541628  0.056008  2.417174  0.088
O  O113  1  0.29813444  0.76957799  0.69377747  1  -1.160413  0.109156  -0.317676  -0.541745  0.056007  2.416924  0.088
