# generated using pymatgen
data_KH24C20I2Cl(OF3)6
_symmetry_space_group_name_H-M   'P 1'
_cell_length_a   9.78345010
_cell_length_b   12.21024775
_cell_length_c   15.25140000
_cell_angle_alpha   104.90993932
_cell_angle_beta   108.69814398
_cell_angle_gamma   90.00263958
_symmetry_Int_Tables_number   1
_chemical_formula_structural   KH24C20I2Cl(OF3)6
_chemical_formula_sum   'K2 H48 C40 I4 Cl2 O12 F36'
_cell_volume   1660.85179679
_cell_formula_units_Z   2
loop_
 _symmetry_equiv_pos_site_id
 _symmetry_equiv_pos_as_xyz
  1  'x, y, z'
loop_
 _atom_site_type_symbol
 _atom_site_label
 _atom_site_symmetry_multiplicity
 _atom_site_fract_x
 _atom_site_fract_y
 _atom_site_fract_z
 _atom_site_occupancy
 _atom_site_hle17_bader_spin_density
 _atom_site_hle17_ddec_charge
 _atom_site_hle17_ddec_spin_density
 _atom_site_hle17_ddec_sum_bond_order
 _atom_site_hle17_magmom
 _atom_site_hse06_10hf_bader_spin_density
 _atom_site_hse06_10hf_ddec_charge
 _atom_site_hse06_10hf_ddec_spin_density
 _atom_site_hse06_10hf_ddec_sum_bond_order
 _atom_site_hse06_10hf_magmom
 _atom_site_hse06_bader_spin_density
 _atom_site_hse06_ddec_charge
 _atom_site_hse06_ddec_spin_density
 _atom_site_hse06_ddec_sum_bond_order
 _atom_site_hse06_magmom
 _atom_site_pbe_bader_charge
 _atom_site_pbe_bader_spin_density
 _atom_site_pbe_cm5_charge
 _atom_site_pbe_ddec_charge
 _atom_site_pbe_ddec_spin_density
 _atom_site_pbe_ddec_sum_bond_order
 _atom_site_pbe_magmom
K  K0  1  0.49999899  0.49999978  0.99999985  1  0  0.882585  0  0.518526  0  0  0.801978  0  0.721232  0  0  0.819402  0  0.699929  0  0.875696  0  0.716756  0.78907  0  0.7365  0
K  K1  1  0.49999967  0.00000000  0.99999997  1  0  0.882366  0  0.519028  0  0  0.801799  0  0.721688  0  0  0.81922  0  0.700396  0  0.875084  0  0.716793  0.788884  0  0.736958  0
H  H2  1  0.67341978  0.69477158  0.90123790  1  0  0.064747  0  0.948158  0  0  0.074775  0  1.017239  0  0  0.076843  0  1.015358  0  0.085828  0  0.104962  0.07329  0  1.018608  0
H  H3  1  0.77217940  0.80522862  0.09876487  1  0  0.06477  0  0.948707  0  0  0.075003  0  1.017499  0  0  0.077049  0  1.01562  0  0.097552  0  0.105132  0.073534  0  1.018868  0
H  H4  1  0.32657929  0.30522798  0.09876201  1  0  0.064737  0  0.948174  0  0  0.074784  0  1.017247  0  0  0.076854  0  1.015363  0  0.085824  0  0.104955  0.073291  0  1.018622  0
H  H5  1  0.22781967  0.19477095  0.90123439  1  0  0.064773  0  0.948709  0  0  0.075001  0  1.017512  0  0  0.077047  0  1.015634  0  0.097574  0  0.105138  0.073533  0  1.018879  0
H  H6  1  0.74861029  0.60834042  0.81702902  1  0  0.053449  0  0.935916  0  0  0.063341  0  1.006718  0  0  0.063925  0  1.005748  0  0.054872  0  0.088644  0.062786  0  1.007743  0
H  H7  1  0.93157572  0.89165638  0.18296902  1  0  0.054069  0  0.935863  0  0  0.063991  0  1.006643  0  0  0.064564  0  1.00559  0  0.059209  0  0.089349  0.063519  0  1.007525  0
H  H8  1  0.25138995  0.39166000  0.18297066  1  0  0.053471  0  0.935932  0  0  0.063381  0  1.006727  0  0  0.063964  0  1.005759  0  0.054873  0  0.088657  0.062824  0  1.007752  0
H  H9  1  0.06842452  0.10834404  0.81703066  1  0  0.054044  0  0.935897  0  0  0.063969  0  1.006679  0  0  0.064542  0  1.005624  0  0.05921  0  0.089325  0.063498  0  1.007559  0
H  H10  1  0.50530136  0.54320686  0.70623692  1  0  0.049427  0  0.924605  0  0  0.05935  0  0.995618  0  0  0.060216  0  0.993888  0  0.052081  0  0.086423  0.058626  0  0.997  0
H  H11  1  0.79905896  0.95679079  0.29375801  1  0  0.050015  0  0.924182  0  0  0.059543  0  0.995357  0  0  0.060426  0  0.993575  0  0.040053  0  0.086746  0.058886  0  0.996648  0
H  H12  1  0.49469780  0.45679356  0.29376319  1  0  0.049436  0  0.924577  0  0  0.059349  0  0.99559  0  0  0.060215  0  0.99386  0  0.052076  0  0.086427  0.058625  0  0.996972  0
H  H13  1  0.20094129  0.04320963  0.70624167  1  0  0.049997  0  0.924209  0  0  0.059534  0  0.995355  0  0  0.060416  0  0.993572  0  0.040052  0  0.086736  0.058864  0  0.996675  0
H  H14  1  0.43238803  0.62961249  0.79211463  1  0  0.048781  0  0.935068  0  0  0.058567  0  1.010674  0  0  0.059777  0  1.009347  0  0.037447  0  0.094183  0.057468  0  1.011964  0
H  H15  1  0.64027575  0.87037409  0.20787977  1  0  0.04883  0  0.935528  0  0  0.05871  0  1.010831  0  0  0.059873  0  1.009544  0  0.061348  0  0.09372  0.057616  0  1.012174  0
H  H16  1  0.56761113  0.37038792  0.20788548  1  0  0.048765  0  0.935087  0  0  0.058551  0  1.010688  0  0  0.059762  0  1.009361  0  0.037458  0  0.09417  0.057452  0  1.011979  0
H  H17  1  0.35972440  0.12962548  0.79212037  1  0  0.048808  0  0.93555  0  0  0.058678  0  1.010859  0  0  0.059837  0  1.009576  0  0.061346  0  0.093714  0.057584  0  1.012202  0
H  H18  1  0.90271410  0.48672356  0.10145323  1  0  0.043834  0  0.952293  0  0  0.0553  0  1.025755  0  0  0.055876  0  1.025215  0  0.054104  0  0.090853  0.054846  0  1.026224  0
H  H19  1  0.80126608  0.01326431  0.89854926  1  0  0.043558  0  0.951964  0  0  0.055012  0  1.02573  0  0  0.0556  0  1.02514  0  0.058272  0  0.090647  0.054539  0  1.026213  0
H  H20  1  0.09728496  0.51327600  0.89854668  1  0  0.043842  0  0.952275  0  0  0.055306  0  1.025733  0  0  0.055882  0  1.025193  0  0.054112  0  0.090862  0.05485  0  1.026201  0
H  H21  1  0.19873416  0.98673611  0.10145107  1  0  0.043538  0  0.951979  0  0  0.054991  0  1.025744  0  0  0.05558  0  1.025153  0  0.058274  0  0.090647  0.054518  0  1.026226  0
H  H22  1  0.99074265  0.62809944  0.13921263  1  0  0.040157  0  0.953755  0  0  0.048601  0  1.032803  0  0  0.04886  0  1.032044  0  0.039026  0  0.085311  0.048364  0  1.033329  0
H  H23  1  0.85151746  0.87188289  0.86078960  1  0  0.039779  0  0.954188  0  0  0.048226  0  1.033553  0  0  0.048491  0  1.032706  0  0.052217  0  0.085131  0.04805  0  1.033988  0
H  H24  1  0.00925750  0.37190012  0.86078685  1  0  0.04017  0  0.953734  0  0  0.048618  0  1.032771  0  0  0.048877  0  1.032009  0  0.039033  0  0.085319  0.048379  0  1.033296  0
H  H25  1  0.14848278  0.12811753  0.13921074  1  0  0.039766  0  0.954194  0  0  0.048215  0  1.033556  0  0  0.048479  0  1.032711  0  0.052217  0  0.085139  0.048038  0  1.033991  0
H  H26  1  0.92641376  0.63708414  0.97378953  1  0  0.041695  0  0.93082  0  0  0.053913  0  1.002852  0  0  0.054166  0  1.002297  0  0.04916  0  0.091841  0.053713  0  1.003187  0
H  H27  1  0.95261086  0.86290754  0.02620533  1  0  0.041533  0  0.930858  0  0  0.054093  0  1.002512  0  0  0.05433  0  1.001996  0  0.020954  0  0.092363  0.053887  0  1.002842  0
H  H28  1  0.07358648  0.36291627  0.02621081  1  0  0.041681  0  0.930838  0  0  0.053891  0  1.002868  0  0  0.054143  0  1.002315  0  0.049161  0  0.091834  0.053691  0  1.003203  0
H  H29  1  0.04738928  0.13709202  0.97379480  1  0  0.041531  0  0.930856  0  0  0.054094  0  1.002514  0  0  0.054332  0  1.001997  0  0.020931  0  0.092361  0.053892  0  1.002846  0
H  H30  1  0.84810513  0.49286512  0.93725252  1  0  0.044662  0  0.94612  0  0  0.055594  0  1.021333  0  0  0.055968  0  1.021028  0  0.056086  0  0.09354  0.055255  0  1.021623  0
H  H31  1  0.91084859  0.00712700  0.06274489  1  0  0.044691  0  0.946026  0  0  0.056006  0  1.021069  0  0  0.056362  0  1.020769  0  0.058062  0  0.093669  0.055713  0  1.021277  0
H  H32  1  0.15189394  0.50713444  0.06274739  1  0  0.044656  0  0.946157  0  0  0.055588  0  1.021363  0  0  0.055962  0  1.02106  0  0.05615  0  0.09353  0.055248  0  1.021654  0
H  H33  1  0.08915165  0.99287341  0.93725479  1  0  0.044683  0  0.946007  0  0  0.056011  0  1.021048  0  0  0.056366  0  1.020747  0  0.058092  0  0.093668  0.055721  0  1.021259  0
H  H34  1  0.38577827  0.36849788  0.72004379  1  0  0.049818  0  0.933403  0  0  0.057345  0  1.010073  0  0  0.058471  0  1.008315  0  0.050411  0  0.087867  0.05651  0  1.011331  0
H  H35  1  0.66573586  0.13149084  0.27994739  1  0  0.049515  0  0.933  0  0  0.056657  0  1.010089  0  0  0.057803  0  1.008353  0  0.068969  0  0.087318  0.055792  0  1.011377  0
H  H36  1  0.61422197  0.63150253  0.27995588  1  0  0.049836  0  0.933414  0  0  0.057363  0  1.010073  0  0  0.058487  0  1.008316  0  0.050415  0  0.087877  0.056517  0  1.011356  0
H  H37  1  0.33426438  0.86850958  0.72005229  1  0  0.049512  0  0.932974  0  0  0.056661  0  1.010072  0  0  0.057807  0  1.008335  0  0.068916  0  0.087311  0.055795  0  1.01136  0
H  H38  1  0.26043907  0.46515364  0.67652448  1  0  0.057024  0  0.926258  0  0  0.067509  0  0.994952  0  0  0.067882  0  0.994228  0  0.060072  0  0.090519  0.067172  0  0.995566  0
H  H39  1  0.58391608  0.03484444  0.32347823  1  0  0.056256  0  0.926012  0  0  0.066665  0  0.994753  0  0  0.067008  0  0.99406  0  0.058412  0  0.090467  0.066301  0  0.995457  0
H  H40  1  0.73956117  0.53484678  0.32347585  1  0  0.057043  0  0.926231  0  0  0.067508  0  0.994944  0  0  0.067881  0  0.994219  0  0.060073  0  0.090514  0.067171  0  0.995559  0
H  H41  1  0.41608426  0.96515683  0.67652230  1  0  0.056234  0  0.92603  0  0  0.066648  0  0.994777  0  0  0.06699  0  0.994084  0  0.058407  0  0.090458  0.066285  0  0.995478  0
H  H42  1  0.91716763  0.59055227  0.26780523  1  0  0.055199  0  0.937967  0  0  0.064684  0  1.011084  0  0  0.065207  0  1.009874  0  0.044417  0  0.088773  0.064193  0  1.012079  0
H  H43  1  0.64936345  0.90944452  0.73219625  1  0  0.054947  0  0.938199  0  0  0.06458  0  1.011347  0  0  0.065075  0  1.01012  0  0.04831  0  0.089378  0.064172  0  1.012202  0
H  H44  1  0.08283261  0.40944815  0.73219510  1  0  0.05521  0  0.937978  0  0  0.064675  0  1.011105  0  0  0.065196  0  1.009897  0  0.044422  0  0.088765  0.064183  0  1.012101  0
H  H45  1  0.35063669  0.09055504  0.26780389  1  0  0.054898  0  0.938173  0  0  0.064536  0  1.011332  0  0  0.065029  0  1.010107  0  0.048296  0  0.089355  0.064129  0  1.012185  0
H  H46  1  0.81207317  0.69700202  0.22394795  1  0  0.053541  0  0.920072  0  0  0.067007  0  0.987463  0  0  0.06772  0  0.986626  0  0.031766  0  0.095657  0.066454  0  0.988063  0
H  H47  1  0.58811044  0.80298882  0.77605281  1  0  0.053193  0  0.920113  0  0  0.066505  0  0.987859  0  0  0.067218  0  0.987015  0  0.036991  0  0.095971  0.065952  0  0.988463  0
H  H48  1  0.18792697  0.30299755  0.77605219  1  0  0.053588  0  0.920125  0  0  0.067051  0  0.987499  0  0  0.067763  0  0.986663  0  0.031758  0  0.095676  0.066498  0  0.9881  0
H  H49  1  0.41188980  0.19701159  0.22394818  1  0  0.053257  0  0.920039  0  0  0.066564  0  0.9878  0  0  0.067278  0  0.986956  0  0.036985  0  0.096  0.066011  0  0.988405  0
C  C50  1  0.26219260  0.79876028  0.31728549  1  0  0.310216  0  3.565253  0  0  0.279179  0  3.902459  0  0  0.297126  0  3.891794  0  0.991479  0  0.135123  0.266575  0  3.910202  0
C  C51  1  0.94495926  0.70125694  0.68271382  1  0  0.307944  0  3.567355  0  0  0.275641  0  3.905801  0  0  0.294065  0  3.894435  0  0.987937  0  0.133502  0.262924  0  3.913508  0
C  C52  1  0.73780755  0.20123929  0.68271465  1  0  0.310161  0  3.565263  0  0  0.27915  0  3.902492  0  0  0.297098  0  3.891823  0  0.991453  0  0.13511  0.266541  0  3.910245  0
C  C53  1  0.05504099  0.29874347  0.31728586  1  0  0.307905  0  3.567336  0  0  0.275583  0  3.905799  0  0  0.294007  0  3.894434  0  0.987828  0  0.133469  0.262866  0  3.913506  0
C  C54  1  0.30170631  0.69804192  0.36332085  1  0  0.343778  0  3.674487  0  0  0.284182  0  3.991134  0  0  0.300267  0  3.981488  0  1.159051  0  0.18236  0.272625  0  3.998446  0
C  C55  1  0.93838392  0.80196849  0.63667560  1  0  0.342366  0  3.676751  0  0  0.284493  0  3.991298  0  0  0.300707  0  3.981766  0  1.161944  0  0.180815  0.273511  0  3.997724  0
C  C56  1  0.69829384  0.30195765  0.63667928  1  0  0.343943  0  3.674188  0  0  0.2842  0  3.991048  0  0  0.300301  0  3.981402  0  1.158996  0  0.182378  0.27264  0  3.998368  0
C  C57  1  0.06161632  0.19803192  0.36332473  1  0  0.342304  0  3.676875  0  0  0.284474  0  3.991373  0  0  0.300681  0  3.981853  0  1.16195  0  0.180861  0.273494  0  3.997794  0
C  C58  1  0.25342036  0.70261001  0.45302589  1  0  0.281182  0  3.680261  0  0  0.224472  0  3.99526  0  0  0.238813  0  3.983787  0  1.19118  0  0.19027  0.214088  0  4.003975  0
C  C59  1  0.80041402  0.79738253  0.54696668  1  0  0.281827  0  3.681533  0  0  0.224825  0  3.997297  0  0  0.238782  0  3.986374  0  1.190963  0  0.191091  0.214858  0  4.005105  0
C  C60  1  0.74657988  0.29739041  0.54697444  1  0  0.281112  0  3.680235  0  0  0.224426  0  3.995259  0  0  0.238698  0  3.983912  0  1.191253  0  0.190248  0.214042  0  4.003976  0
C  C61  1  0.19958613  0.20261703  0.45303346  1  0  0.281846  0  3.681515  0  0  0.224865  0  3.997299  0  0  0.238817  0  3.986377  0  1.190966  0  0.191099  0.214897  0  4.005106  0
C  C62  1  0.33556867  0.62665787  0.51825670  1  0  0.68724  0  3.707083  0  0  0.603632  0  4.060692  0  0  0.632883  0  4.035187  0  1.789873  0  0.293334  0.582678  0  4.079402  0
C  C63  1  0.81732902  0.87332360  0.48173309  1  0  0.688546  0  3.702339  0  0  0.603647  0  4.0586  0  0  0.63337  0  4.032415  0  1.787731  0  0.294369  0.58254  0  4.077423  0
C  C64  1  0.66443158  0.37334254  0.48174363  1  0  0.687235  0  3.706999  0  0  0.603623  0  4.060616  0  0  0.632888  0  4.03512  0  1.789879  0  0.293338  0.582668  0  4.079326  0
C  C65  1  0.18267112  0.12667596  0.51826705  1  0  0.688774  0  3.702012  0  0  0.603743  0  4.05848  0  0  0.633481  0  4.032282  0  1.787523  0  0.294394  0.582637  0  4.077301  0
C  C66  1  0.70731582  0.60923395  0.87664854  1  0  0.048611  0  3.668469  0  0  -0.008341  0  3.939465  0  0  -0.003017  0  3.945671  0  0.405307  0  -0.081308  -0.011931  0  3.935172  0
C  C67  1  0.83066917  0.89076370  0.12335889  1  0  0.046948  0  3.670718  0  0  -0.010444  0  3.942805  0  0  -0.004953  0  3.948762  0  0.400611  0  -0.082185  -0.014072  0  3.938482  0
C  C68  1  0.29268432  0.39076562  0.12335159  1  0  0.048612  0  3.668439  0  0  -0.008391  0  3.939476  0  0  -0.003067  0  3.945681  0  0.405304  0  -0.081304  -0.011974  0  3.935183  0
C  C69  1  0.16933097  0.10923587  0.87664125  1  0  0.046971  0  3.67073  0  0  -0.010423  0  3.942824  0  0  -0.004932  0  3.948781  0  0.400597  0  -0.082157  -0.014047  0  3.938504  0
C  C70  1  0.47023608  0.54513093  0.76865061  1  0  0.059881  0  3.687221  0  0  -0.001993  0  3.96907  0  0  0.004273  0  3.974812  0  0.447526  0  -0.081672  -0.006114  0  3.964971  0
C  C71  1  0.70158784  0.95484203  0.23134663  1  0  0.057826  0  3.689338  0  0  -0.003341  0  3.970431  0  0  0.002987  0  3.976105  0  0.418395  0  -0.081543  -0.007498  0  3.966359  0
C  C72  1  0.52976417  0.45486948  0.23134973  1  0  0.059909  0  3.687187  0  0  -0.001935  0  3.968975  0  0  0.004331  0  3.974715  0  0.447517  0  -0.081661  -0.006054  0  3.964871  0
C  C73  1  0.29841241  0.04515838  0.76865371  1  0  0.057832  0  3.689398  0  0  -0.003316  0  3.970497  0  0  0.003018  0  3.976163  0  0.418404  0  -0.081545  -0.007473  0  3.966412  0
C  C74  1  0.88610509  0.57818320  0.12028274  1  0  0.053437  0  3.682532  0  0  -0.004758  0  3.950703  0  0  0.00128  0  3.957663  0  0.433456  0  -0.081224  -0.008711  0  3.94579  0
C  C75  1  0.76580295  0.92179998  0.87971111  1  0  0.05469  0  3.683582  0  0  -0.003947  0  3.952211  0  0  0.002169  0  3.95901  0  0.416102  0  -0.081362  -0.007944  0  3.947407  0
C  C76  1  0.11389398  0.42181636  0.87971717  1  0  0.053443  0  3.682483  0  0  -0.004744  0  3.950626  0  0  0.001294  0  3.957586  0  0.433444  0  -0.081237  -0.008696  0  3.945719  0
C  C77  1  0.23419720  0.07819959  0.12028903  1  0  0.054752  0  3.683543  0  0  -0.003852  0  3.952165  0  0  0.002259  0  3.958967  0  0.416089  0  -0.08132  -0.007847  0  3.947358  0
C  C78  1  0.82596358  0.58297084  0.95789984  1  0  0.066052  0  3.670195  0  0  0.007829  0  3.936922  0  0  0.014026  0  3.943946  0  0.403066  0  -0.075962  0.003666  0  3.932089  0
C  C79  1  0.86806458  0.91702255  0.04209713  1  0  0.067364  0  3.66965  0  0  0.008441  0  3.936326  0  0  0.014617  0  3.943408  0  0.43778  0  -0.075933  0.004301  0  3.931479  0
C  C80  1  0.17403558  0.41702957  0.04210027  1  0  0.066038  0  3.670189  0  0  0.00784  0  3.936918  0  0  0.014036  0  3.943942  0  0.402984  0  -0.075968  0.003675  0  3.93209  0
C  C81  1  0.13193566  0.08297787  0.95790320  1  0  0.06733  0  3.66953  0  0  0.008389  0  3.936263  0  0  0.014562  0  3.943342  0  0.437802  0  -0.075952  0.004232  0  3.931438  0
C  C82  1  0.34801370  0.45382873  0.73966555  1  0  0.055083  0  3.681803  0  0  -0.005813  0  3.960653  0  0  0.000301  0  3.967193  0  0.42838  0  -0.082913  -0.009944  0  3.956058  0
C  C83  1  0.60834499  0.04615659  0.26032063  1  0  0.058975  0  3.678664  0  0  -0.001562  0  3.957055  0  0  0.00456  0  3.963477  0  0.421004  0  -0.081003  -0.0057  0  3.952522  0
C  C84  1  0.65198537  0.54617084  0.26033437  1  0  0.055038  0  3.681841  0  0  -0.005833  0  3.960657  0  0  0.000283  0  3.967199  0  0.428372  0  -0.082919  -0.009965  0  3.95606  0
C  C85  1  0.39165525  0.95384383  0.73967904  1  0  0.059025  0  3.678625  0  0  -0.001543  0  3.95705  0  0  0.004577  0  3.963476  0  0.421065  0  -0.080989  -0.005683  0  3.952528  0
C  C86  1  0.83282023  0.60630146  0.20522619  1  0  0.059729  0  3.679712  0  0  -0.001735  0  3.957575  0  0  0.00457  0  3.963416  0  0.460965  0  -0.078795  -0.005941  0  3.953432  0
C  C87  1  0.62760612  0.89367492  0.79478046  1  0  0.060033  0  3.680492  0  0  -0.001697  0  3.959397  0  0  0.004601  0  3.965245  0  0.453533  0  -0.080716  -0.005912  0  3.955269  0
C  C88  1  0.16717991  0.39369811  0.79477395  1  0  0.059645  0  3.679794  0  0  -0.001791  0  3.957613  0  0  0.004511  0  3.963461  0  0.460961  0  -0.078799  -0.005996  0  3.953472  0
C  C89  1  0.37239412  0.10632550  0.20521987  1  0  0.060011  0  3.680391  0  0  -0.001743  0  3.959345  0  0  0.004554  0  3.965195  0  0.453556  0  -0.080731  -0.005959  0  3.955219  0
I  I90  1  0.30303648  0.77266141  0.17984158  1  0  0.046613  0  1.421744  0  0  -0.009866  0  1.765007  0  0  -0.001109  0  1.742965  0  0.218648  0  0.109998  -0.016119  0  1.780535  0
I  I91  1  0.12325836  0.72738474  0.82015512  1  0  0.047247  0  1.421221  0  0  -0.009001  0  1.76469  0  0  -0.000149  0  1.742438  0  0.218421  0  0.110685  -0.015212  0  1.780108  0
I  I92  1  0.69696367  0.22733815  0.82015791  1  0  0.046624  0  1.421748  0  0  -0.009861  0  1.765017  0  0  -0.001106  0  1.742978  0  0.218663  0  0.110001  -0.016114  0  1.780547  0
I  I93  1  0.87674179  0.27261482  0.17984502  1  0  0.047256  0  1.421219  0  0  -0.008994  0  1.7647  0  0  -0.000143  0  1.742448  0  0.218428  0  0.110686  -0.015206  0  1.780121  0
Cl  Cl94  1  0.63156296  0.24998713  0.00000129  1  0  -0.518702  0  0.795103  0  0  -0.485137  0  1.050919  0  0  -0.506639  0  1.034303  0  -0.659832  0  -0.33402  -0.469575  0  1.062359  0
Cl  Cl95  1  0.36843719  0.75001244  0.99999819  1  0  -0.518698  0  0.795101  0  0  -0.485138  0  1.050922  0  0  -0.50664  0  1.034305  0  -0.659823  0  -0.334019  -0.469576  0  1.062359  0
O  O96  1  0.58768764  0.52501960  0.84527711  1  0  -0.341758  0  2.304047  0  0  -0.269224  0  2.556899  0  0  -0.284947  0  2.55943  0  -1.059872  0  -0.282846  -0.25787  0  2.554613  0
O  O97  1  0.74242118  0.97498145  0.15471968  1  0  -0.340988  0  2.30555  0  0  -0.26885  0  2.558533  0  0  -0.284546  0  2.560906  0  -1.058846  0  -0.283359  -0.257457  0  2.556215  0
O  O98  1  0.41231152  0.47498082  0.15472301  1  0  -0.341758  0  2.303986  0  0  -0.26923  0  2.556841  0  0  -0.28495  0  2.559373  0  -1.059869  0  -0.282846  -0.257872  0  2.554551  0
O  O99  1  0.25757907  0.02501897  0.84528000  1  0  -0.340954  0  2.305591  0  0  -0.26881  0  2.558561  0  0  -0.284507  0  2.560931  0  -1.058861  0  -0.283331  -0.257415  0  2.556241  0
O  O100  1  0.78081340  0.60462672  0.04060617  1  0  -0.326097  0  2.281788  0  0  -0.250424  0  2.525327  0  0  -0.266019  0  2.527022  0  -1.054163  0  -0.27488  -0.239545  0  2.523896  0
O  O101  1  0.74019695  0.89537518  0.95940874  1  0  -0.327158  0  2.280975  0  0  -0.250702  0  2.524487  0  0  -0.266269  0  2.526147  0  -1.0677  0  -0.274693  -0.239861  0  2.523082  0
O  O102  1  0.21918684  0.39537370  0.95939416  1  0  -0.326092  0  2.28174  0  0  -0.250434  0  2.525279  0  0  -0.266025  0  2.526973  0  -1.054152  0  -0.274885  -0.239554  0  2.523846  0
O  O103  1  0.25980330  0.10462523  0.04059159  1  0  -0.327127  0  2.280863  0  0  -0.250711  0  2.524415  0  0  -0.266267  0  2.526068  0  -1.067704  0  -0.274717  -0.239864  0  2.523011  0
O  O104  1  0.29641112  0.46482090  0.81869618  1  0  -0.34097  0  2.33532  0  0  -0.263508  0  2.585173  0  0  -0.279744  0  2.588306  0  -1.059003  0  -0.290329  -0.252018  0  2.582663  0
O  O105  1  0.47771788  0.03517547  0.18130504  1  0  -0.342579  0  2.335492  0  0  -0.264958  0  2.58536  0  0  -0.281158  0  2.588456  0  -1.060728  0  -0.290583  -0.253473  0  2.582892  0
O  O106  1  0.70358903  0.53517866  0.18130396  1  0  -0.34098  0  2.335325  0  0  -0.263524  0  2.585188  0  0  -0.279764  0  2.588321  0  -1.059017  0  -0.290322  -0.252032  0  2.582676  0
O  O107  1  0.52228236  0.96482494  0.81869529  1  0  -0.342608  0  2.335493  0  0  -0.264987  0  2.585368  0  0  -0.281186  0  2.588463  0  -1.060732  0  -0.290597  -0.253499  0  2.582897  0
F  F108  1  0.11784094  0.81308576  0.30476413  1  0  -0.213361  0  1.22499  0  0  -0.164019  0  1.394166  0  0  -0.175793  0  1.383882  0  -0.623302  0  -0.110345  -0.156912  0  1.402675  0
F  F109  1  0.81312192  0.68692465  0.69524889  1  0  -0.212726  0  1.226385  0  0  -0.163079  0  1.395873  0  0  -0.175009  0  1.385527  0  -0.616153  0  -0.109616  -0.155938  0  1.404391  0
F  F110  1  0.88215931  0.18691465  0.69523555  1  0  -0.213367  0  1.224998  0  0  -0.164028  0  1.394172  0  0  -0.1758  0  1.383884  0  -0.623295  0  -0.110347  -0.156919  0  1.402682  0
F  F111  1  0.18687823  0.31307492  0.30475059  1  0  -0.212734  0  1.226386  0  0  -0.163081  0  1.395878  0  0  -0.175012  0  1.385534  0  -0.616048  0  -0.109628  -0.155941  0  1.404397  0
F  F112  1  0.34117911  0.89619043  0.38106192  1  0  -0.196988  0  1.21827  0  0  -0.162363  0  1.391176  0  0  -0.170832  0  1.37738  0  -0.608347  0  -0.117371  -0.156056  0  1.400647  0
F  F113  1  0.96014328  0.60382339  0.61893646  1  0  -0.196535  0  1.218399  0  0  -0.161735  0  1.391693  0  0  -0.170241  0  1.377745  0  -0.610501  0  -0.117247  -0.155393  0  1.401175  0
F  F114  1  0.65882114  0.10380999  0.61893841  1  0  -0.196965  0  1.218297  0  0  -0.16234  0  1.391199  0  0  -0.17081  0  1.377403  0  -0.60834  0  -0.117357  -0.156032  0  1.400671  0
F  F115  1  0.03985697  0.39617703  0.38106388  1  0  -0.19653  0  1.218383  0  0  -0.161727  0  1.391684  0  0  -0.170234  0  1.377734  0  -0.610507  0  -0.117257  -0.155386  0  1.401166  0
F  F116  1  0.23756322  0.59858642  0.29547017  1  0  -0.189844  0  1.229179  0  0  -0.145811  0  1.397125  0  0  -0.155634  0  1.385757  0  -0.612734  0  -0.090699  -0.138211  0  1.404572  0
F  F117  1  0.94200941  0.90141292  0.70452483  1  0  -0.18883  0  1.2292  0  0  -0.144856  0  1.396201  0  0  -0.156093  0  1.386165  0  -0.612504  0  -0.090949  -0.138454  0  1.404471  0
F  F118  1  0.76243692  0.40141314  0.70452931  1  0  -0.189883  0  1.229084  0  0  -0.145822  0  1.397084  0  0  -0.155644  0  1.38571  0  -0.612725  0  -0.090732  -0.138214  0  1.404526  0
F  F119  1  0.05799073  0.09858664  0.29547530  1  0  -0.188817  0  1.229178  0  0  -0.144859  0  1.396176  0  0  -0.156086  0  1.386133  0  -0.612502  0  -0.090968  -0.138459  0  1.404446  0
F  F120  1  0.44892346  0.69402272  0.39041639  1  0  -0.193581  0  1.238332  0  0  -0.156255  0  1.41404  0  0  -0.164933  0  1.400861  0  -0.610844  0  -0.096614  -0.150069  0  1.423136  0
F  F121  1  0.05853957  0.80604471  0.60960999  1  0  -0.192949  0  1.239204  0  0  -0.155802  0  1.414006  0  0  -0.164232  0  1.400753  0  -0.611695  0  -0.095422  -0.14961  0  1.422853  0
F  F122  1  0.55107570  0.30597770  0.60958306  1  0  -0.193665  0  1.238302  0  0  -0.156252  0  1.414017  0  0  -0.164929  0  1.400831  0  -0.610864  0  -0.096607  -0.150067  0  1.423114  0
F  F123  1  0.94146077  0.19395656  0.39039054  1  0  -0.192902  0  1.239284  0  0  -0.155766  0  1.41408  0  0  -0.164197  0  1.400833  0  -0.611693  0  -0.095401  -0.149577  0  1.422928  0
F  F124  1  0.27384337  0.81168334  0.51026593  1  0  -0.171369  0  1.239047  0  0  -0.135686  0  1.407695  0  0  -0.143772  0  1.394526  0  -0.599258  0  -0.091686  -0.129865  0  1.416783  0
F  F125  1  0.76357514  0.68830239  0.48974316  1  0  -0.17121  0  1.23858  0  0  -0.135644  0  1.407498  0  0  -0.143598  0  1.394493  0  -0.602287  0  -0.091642  -0.129926  0  1.416412  0
F  F126  1  0.72615678  0.18831623  0.48973421  1  0  -0.171344  0  1.239044  0  0  -0.135663  0  1.40769  0  0  -0.143733  0  1.394551  0  -0.599253  0  -0.091667  -0.129843  0  1.416778  0
F  F127  1  0.23642402  0.31169802  0.51025695  1  0  -0.17122  0  1.238563  0  0  -0.13566  0  1.407481  0  0  -0.143611  0  1.394478  0  -0.602286  0  -0.091642  -0.129942  0  1.416397  0
F  F128  1  0.10964672  0.66657929  0.42152390  1  0  -0.164537  0  1.245808  0  0  -0.140313  0  1.425679  0  0  -0.147751  0  1.411614  0  -0.601796  0  -0.091972  -0.134905  0  1.435402  0
F  F129  1  0.68816072  0.83341920  0.57849199  1  0  -0.164988  0  1.246626  0  0  -0.140697  0  1.426614  0  0  -0.147897  0  1.41258  0  -0.600515  0  -0.092175  -0.135314  0  1.436098  0
F  F130  1  0.89035460  0.33342112  0.57847600  1  0  -0.164521  0  1.245818  0  0  -0.140296  0  1.425681  0  0  -0.147717  0  1.411646  0  -0.601808  0  -0.091964  -0.134886  0  1.435404  0
F  F131  1  0.31183943  0.16658036  0.42150815  1  0  -0.164984  0  1.246603  0  0  -0.140691  0  1.426589  0  0  -0.147892  0  1.412556  0  -0.600516  0  -0.092167  -0.135308  0  1.436072  0
F  F132  1  0.34153793  0.52102422  0.46460277  1  0  -0.212441  0  1.208762  0  0  -0.190972  0  1.390415  0  0  -0.199411  0  1.37247  0  -0.60777  0  -0.09508  -0.184879  0  1.402945  0
F  F133  1  0.87704983  0.97894364  0.53538227  1  0  -0.212592  0  1.207909  0  0  -0.190767  0  1.390127  0  0  -0.199218  0  1.371897  0  -0.608162  0  -0.095066  -0.184618  0  1.402655  0
F  F134  1  0.65846232  0.47897619  0.53539756  1  0  -0.212415  0  1.208717  0  0  -0.190947  0  1.390377  0  0  -0.199383  0  1.372425  0  -0.607767  0  -0.095065  -0.184854  0  1.402904  0
F  F135  1  0.12295031  0.02105593  0.46461787  1  0  -0.212656  0  1.207844  0  0  -0.190794  0  1.390108  0  0  -0.199251  0  1.371876  0  -0.607983  0  -0.095075  -0.184647  0  1.402637  0
F  F136  1  0.47180314  0.67317273  0.57140800  1  0  -0.222577  0  1.212748  0  0  -0.189113  0  1.384784  0  0  -0.198638  0  1.368558  0  -0.607381  0  -0.091153  -0.182227  0  1.39598  0
F  F137  1  0.90033570  0.82673982  0.42855043  1  0  -0.222963  0  1.211239  0  0  -0.18895  0  1.383601  0  0  -0.198563  0  1.367211  0  -0.607394  0  -0.091086  -0.182066  0  1.39489  0
F  F138  1  0.52819700  0.32682684  0.42859214  1  0  -0.222587  0  1.212743  0  0  -0.189129  0  1.384788  0  0  -0.198653  0  1.368559  0  -0.607368  0  -0.091167  -0.182243  0  1.395985  0
F  F139  1  0.09966444  0.17325974  0.57144971  1  0  -0.223016  0  1.211183  0  0  -0.188962  0  1.383582  0  0  -0.19858  0  1.367189  0  -0.607394  0  -0.091082  -0.182078  0  1.394871  0
F  F140  1  0.26374518  0.61834460  0.57926650  1  0  -0.222789  0  1.192012  0  0  -0.183852  0  1.358219  0  0  -0.193521  0  1.342001  0  -0.60712  0  -0.086221  -0.176907  0  1.369519  0
F  F141  1  0.68451465  0.88169645  0.42077973  1  0  -0.223019  0  1.190246  0  0  -0.183979  0  1.357216  0  0  -0.193718  0  1.340803  0  -0.606448  0  -0.087116  -0.177107  0  1.368701  0
F  F142  1  0.73625506  0.38165582  0.42073318  1  0  -0.222797  0  1.191988  0  0  -0.183856  0  1.358191  0  0  -0.193524  0  1.34197  0  -0.607123  0  -0.086226  -0.17691  0  1.369491  0
F  F143  1  0.31548442  0.11830312  0.57922019  1  0  -0.223096  0  1.190143  0  0  -0.184033  0  1.357166  0  0  -0.193774  0  1.340751  0  -0.606448  0  -0.087144  -0.177161  0  1.368652  0
