# generated using pymatgen
data_LaH14C21NO7
_symmetry_space_group_name_H-M   'P 1'
_cell_length_a   13.02836627
_cell_length_b   14.70481447
_cell_length_c   14.70481042
_cell_angle_alpha   111.67458709
_cell_angle_beta   107.17144191
_cell_angle_gamma   107.17126747
_symmetry_Int_Tables_number   1
_chemical_formula_structural   LaH14C21NO7
_chemical_formula_sum   'La3 H42 C63 N3 O21'
_cell_volume   2226.94562532
_cell_formula_units_Z   3
loop_
 _symmetry_equiv_pos_site_id
 _symmetry_equiv_pos_as_xyz
  1  'x, y, z'
loop_
 _atom_site_type_symbol
 _atom_site_label
 _atom_site_symmetry_multiplicity
 _atom_site_fract_x
 _atom_site_fract_y
 _atom_site_fract_z
 _atom_site_occupancy
 _atom_site_pbe_bader_charge
 _atom_site_pbe_bader_spin_density
 _atom_site_pbe_cm5_charge
 _atom_site_pbe_ddec_charge
 _atom_site_pbe_ddec_spin_density
 _atom_site_pbe_ddec_sum_bond_order
 _atom_site_pbe_magmom
La  La0  1  0.99999972  0.31812040  0.68187838  1  2.259413  0  1.410895  1.924518  0  2.380026  0
La  La1  1  0.31806282  0.31802620  0.63621699  1  2.261428  0  1.410754  1.924566  0  2.380288  0
La  La2  1  0.68193547  0.36378225  0.68197270  1  2.261446  0  1.410801  1.924616  0  2.380243  0
H  H3  1  0.06563676  0.19263433  0.82539440  1  0.622021  0  0.343561  0.420533  0  0.858212  0
H  H4  1  0.67518020  0.82470983  0.51616935  1  0.067892  0  0.103115  0.113074  0  1.001016  0
H  H5  1  0.76162922  0.02785371  0.61834263  1  0.084695  0  0.104768  0.096939  0  1.015028  0
H  H6  1  0.51385041  0.01797476  0.34344411  1  0.085413  0  0.108739  0.114046  0  0.986281  0
H  H7  1  0.43013584  0.81576315  0.23723311  1  0.059537  0  0.105278  0.114488  0  1.010702  0
H  H8  1  0.42100513  0.71065071  0.46101248  1  0.074525  0  0.099842  0.104395  0  1.058778  0
H  H9  1  0.41645422  0.60507473  0.56045237  1  0.080887  0  0.105942  0.110683  0  1.006663  0
H  H10  1  0.24040030  0.17483505  0.36715339  1  0.621291  0  0.343142  0.419708  0  0.85943  0
H  H11  1  0.15895428  0.48373585  0.30852262  1  0.068287  0  0.103339  0.113229  0  1.000997  0
H  H12  1  0.14318646  0.38162064  0.40953774  1  0.071275  0  0.104575  0.096549  0  1.015777  0
H  H13  1  0.17044821  0.65669128  0.67461015  1  0.098332  0  0.108412  0.113652  0  0.987894  0
H  H14  1  0.19295772  0.76281321  0.57854245  1  0.079434  0  0.104941  0.114248  0  1.011549  0
H  H15  1  0.96012933  0.53898492  0.24966894  1  0.074075  0  0.099221  0.103304  0  1.05845  0
H  H16  1  0.85608740  0.43955458  0.04461313  1  0.090335  0  0.106167  0.1112  0  1.005547  0
H  H17  1  0.87281389  0.63276184  0.80709497  1  0.621379  0  0.343481  0.419919  0  0.859224  0
H  H18  1  0.85050910  0.69147570  0.17534405  1  0.070403  0  0.103183  0.112806  0  1.000605  0
H  H19  1  0.73381767  0.59055896  0.97216736  1  0.057708  0  0.104626  0.096743  0  1.015883  0
H  H20  1  0.49596533  0.32548947  0.98207660  1  0.08368  0  0.108673  0.113639  0  0.986878  0
H  H21  1  0.61439784  0.42150392  0.18424260  1  0.061373  0  0.105202  0.114652  0  1.011443  0
H  H22  1  0.71030497  0.75029108  0.28932069  1  0.088156  0  0.099472  0.104102  0  1.058268  0
H  H23  1  0.81133567  0.95537376  0.39486708  1  0.104538  0  0.105432  0.109869  0  1.006249  0
H  H24  1  0.75960404  0.63284769  0.82517253  1  0.62147  0  0.343084  0.419619  0  0.859546  0
H  H25  1  0.84104508  0.69147727  0.51626386  1  0.068294  0  0.103342  0.113241  0  1.000938  0
H  H26  1  0.85681291  0.59046293  0.61837986  1  0.071285  0  0.104617  0.096585  0  1.015782  0
H  H27  1  0.82954991  0.32538945  0.34330851  1  0.098349  0  0.108435  0.113676  0  0.987866  0
H  H28  1  0.80704281  0.42145767  0.23718627  1  0.079426  0  0.104933  0.114258  0  1.011528  0
H  H29  1  0.03987175  0.75033093  0.46101510  1  0.07399  0  0.099225  0.103285  0  1.058429  0
H  H30  1  0.14391367  0.95538646  0.56044602  1  0.090324  0  0.10618  0.111249  0  1.00553  0
H  H31  1  0.12719016  0.19291234  0.36723959  1  0.621315  0  0.343519  0.419955  0  0.859197  0
H  H32  1  0.14948862  0.82465582  0.30852439  1  0.070345  0  0.103181  0.112802  0  1.000631  0
H  H33  1  0.26618190  0.02783197  0.40944274  1  0.057732  0  0.104606  0.096701  0  1.015948  0
H  H34  1  0.50403515  0.01792288  0.67451055  1  0.083528  0  0.108699  0.113689  0  0.986852  0
H  H35  1  0.38560293  0.81575750  0.57849494  1  0.061376  0  0.105223  0.11467  0  1.011491  0
H  H36  1  0.28969521  0.71067937  0.24970875  1  0.088153  0  0.099465  0.104088  0  1.058266  0
H  H37  1  0.18866382  0.60513269  0.04462597  1  0.104544  0  0.105422  0.109859  0  1.006272  0
H  H38  1  0.93436285  0.17460880  0.80736781  1  0.622018  0  0.343537  0.42049  0  0.858254  0
H  H39  1  0.32482155  0.48383107  0.17528977  1  0.067894  0  0.103114  0.113107  0  1.000993  0
H  H40  1  0.23837118  0.38165873  0.97214523  1  0.084723  0  0.104769  0.096977  0  1.014981  0
H  H41  1  0.48614875  0.65655609  0.98202448  1  0.085316  0  0.108748  0.114041  0  0.986301  0
H  H42  1  0.56986412  0.76276679  0.18423642  1  0.059544  0  0.105285  0.114476  0  1.010679  0
H  H43  1  0.57899289  0.53898634  0.28935047  1  0.074266  0  0.099851  0.104364  0  1.058807  0
H  H44  1  0.58354620  0.43954906  0.39492631  1  0.080883  0  0.105956  0.110727  0  1.006651  0
C  C45  1  0.54653966  0.80517360  0.36919498  1  0.333273  0  0.098985  0.189027  0  4.012869  0
C  C46  1  0.63942985  0.86666984  0.47795854  1  0.01491  0  -0.098442  -0.182435  0  3.998641  0
C  C47  1  0.68755212  0.98031373  0.53531542  1  -0.053995  0  -0.075013  -0.06251  0  3.98807  0
C  C48  1  0.64358634  0.03592426  0.48720335  1  0.04321  0  -0.020541  -0.053522  0  3.987345  0
C  C49  1  0.54955703  0.97463799  0.37974859  1  -0.072637  0  -0.078033  -0.063838  0  3.982837  0
C  C50  1  0.50207429  0.86122160  0.32106470  1  -0.051299  0  -0.101862  -0.195332  0  4.008947  0
C  C51  1  0.69060453  0.15679511  0.54888018  1  1.521044  0  0.209227  0.587648  0  4.216568  0
C  C52  1  0.45560751  0.65058460  0.44640367  1  -0.064799  0  -0.099945  -0.179959  0  4.000047  0
C  C53  1  0.45438199  0.59249600  0.50260791  1  0.01645  0  -0.084714  -0.079272  0  3.987405  0
C  C54  1  0.17732771  0.63077760  0.43596306  1  0.231637  0  0.099001  0.188047  0  4.0154  0
C  C55  1  0.16140304  0.52198089  0.38870110  1  0.048251  0  -0.098532  -0.181401  0  3.997295  0
C  C56  1  0.15217143  0.46467474  0.44502245  1  -0.05504  0  -0.07493  -0.06255  0  3.98986  0
C  C57  1  0.15639391  0.51285234  0.54877884  1  -0.040358  0  -0.020935  -0.054128  0  3.988844  0
C  C58  1  0.16985528  0.62033903  0.59495795  1  -0.013815  0  -0.07786  -0.06455  0  3.985188  0
C  C59  1  0.18101380  0.67895118  0.54016377  1  -0.005079  0  -0.101476  -0.193944  0  4.010859  0
C  C60  1  0.14177981  0.45113974  0.60791838  1  1.543975  0  0.210323  0.589567  0  4.215181  0
C  C61  1  0.00929536  0.55360265  0.20417981  1  -0.088216  0  -0.099185  -0.176914  0  3.997414  0
C  C62  1  0.95183147  0.49742346  0.08988742  1  0.025638  0  -0.085958  -0.08234  0  3.987549  0
C  C63  1  0.74138496  0.56405168  0.19484584  1  0.281422  0  0.098472  0.187398  0  4.015504  0
C  C64  1  0.77277061  0.61132921  0.13335465  1  -0.050422  0  -0.097906  -0.180322  0  3.995874  0
C  C65  1  0.70727250  0.55507052  0.01970744  1  0.027669  0  -0.075266  -0.062953  0  3.987959  0
C  C66  1  0.60776229  0.45130730  0.96410956  1  -0.035882  0  -0.020836  -0.053745  0  3.987067  0
C  C67  1  0.57502477  0.40511330  0.02538033  1  -0.078281  0  -0.078199  -0.064322  0  3.9852  0
C  C68  1  0.64088039  0.45987765  0.13879385  1  0.064261  0  -0.101566  -0.194214  0  4.011238  0
C  C69  1  0.53392240  0.39212269  0.84326932  1  1.54556  0  0.210627  0.590891  0  4.213918  0
C  C70  1  0.80496722  0.79579204  0.34937541  1  -0.088282  0  -0.100029  -0.179906  0  3.999512  0
C  C71  1  0.86182111  0.91009515  0.40743595  1  0.024709  0  -0.084383  -0.078109  0  3.985636  0
C  C72  1  0.82267386  0.56403781  0.36922338  1  0.231554  0  0.099008  0.188041  0  4.015463  0
C  C73  1  0.83859780  0.61129824  0.47801896  1  0.048284  0  -0.098589  -0.181497  0  3.997325  0
C  C74  1  0.84782917  0.55497835  0.53532698  1  -0.055057  0  -0.07496  -0.062515  0  3.989811  0
C  C75  1  0.84360552  0.45122134  0.48714745  1  -0.040295  0  -0.020931  -0.05417  0  3.98886  0
C  C76  1  0.83014386  0.40504245  0.37966088  1  -0.013758  0  -0.077874  -0.064588  0  3.98525  0
C  C77  1  0.81898747  0.45983690  0.32104915  1  -0.005078  0  -0.101478  -0.193934  0  4.010854  0
C  C78  1  0.85821802  0.39208042  0.54885929  1  1.543938  0  0.21037  0.589711  0  4.215283  0
C  C79  1  0.99070484  0.79582025  0.44639769  1  -0.088228  0  -0.099165  -0.176776  0  3.997438  0
C  C80  1  0.04816856  0.91011183  0.50257703  1  0.025722  0  -0.085986  -0.082459  0  3.987597  0
C  C81  1  0.25861632  0.80515432  0.43594781  1  0.281438  0  0.09844  0.187343  0  4.015557  0
C  C82  1  0.22722955  0.86664562  0.38867103  1  -0.050374  0  -0.097896  -0.180329  0  3.995945  0
C  C83  1  0.29272717  0.98029181  0.44492901  1  0.027643  0  -0.07524  -0.062872  0  3.987937  0
C  C84  1  0.39224022  0.03589106  0.54869270  1  -0.035862  0  -0.020836  -0.053755  0  3.986997  0
C  C85  1  0.42497734  0.97461913  0.59488404  1  -0.07813  0  -0.078254  -0.064442  0  3.985256  0
C  C86  1  0.35912173  0.86120572  0.54012051  1  0.064244  0  -0.101567  -0.194179  0  4.011313  0
C  C87  1  0.46607900  0.15673029  0.60787659  1  1.545558  0  0.210672  0.591011  0  4.213815  0
C  C88  1  0.19503311  0.65062483  0.20420862  1  -0.088288  0  -0.100033  -0.179919  0  3.999554  0
C  C89  1  0.13817838  0.59256355  0.08990466  1  0.024713  0  -0.084418  -0.078191  0  3.985732  0
C  C90  1  0.45346087  0.63080559  0.19482623  1  0.333258  0  0.098991  0.189077  0  4.012914  0
C  C91  1  0.36057133  0.52204228  0.13333021  1  0.014929  0  -0.098429  -0.182478  0  3.998689  0
C  C92  1  0.31244875  0.46468625  0.01968651  1  -0.053973  0  -0.075004  -0.062546  0  3.988043  0
C  C93  1  0.35641315  0.51279805  0.96407471  1  0.043008  0  -0.020544  -0.05352  0  3.987247  0
C  C94  1  0.45044272  0.62025198  0.02536126  1  -0.072584  0  -0.078055  -0.063848  0  3.982816  0
C  C95  1  0.49792481  0.67893467  0.13877692  1  -0.05104  0  -0.101881  -0.195342  0  4.008904  0
C  C96  1  0.30939439  0.45111952  0.84320364  1  1.521619  0  0.209253  0.587691  0  4.216555  0
C  C97  1  0.54439195  0.55359678  0.34941697  1  -0.064476  0  -0.099955  -0.179882  0  4.000116  0
C  C98  1  0.54561962  0.49739445  0.40750648  1  0.016501  0  -0.084713  -0.079339  0  3.987501  0
C  C99  1  0.49999895  0.63112140  0.36887821  1  0.280449  0  0.090145  0.179535  0  4.026375  0
C  C100  1  0.50000190  0.51568068  0.48432337  1  0.009983  0  -0.023413  -0.054621  0  3.975934  0
C  C101  1  0.50000039  0.45407701  0.54592371  1  1.55144  0  0.230384  0.624014  0  4.196906  0
C  C102  1  0.13119992  0.63112180  0.26224582  1  0.319101  0  0.090837  0.179961  0  4.027111  0
C  C103  1  0.01574614  0.51575785  0.03138657  1  -0.083212  0  -0.022845  -0.053501  0  3.974919  0
C  C104  1  0.95413281  0.45412462  0.90819980  1  1.613793  0  0.230024  0.622633  0  4.195715  0
C  C105  1  0.86880077  0.73775381  0.36887861  1  0.319117  0  0.090781  0.179856  0  4.027189  0
C  C106  1  0.98425425  0.96861354  0.48424232  1  -0.083283  0  -0.022842  -0.053587  0  3.9749  0
C  C107  1  0.04586616  0.09179923  0.54587570  1  1.613789  0  0.230043  0.622743  0  4.19571  0
N  N108  1  0.50000001  0.68975814  0.31024094  1  -1.205004  0  -0.250362  -0.153756  0  3.662433  0
N  N109  1  0.18978792  0.68973305  0.37951459  1  -1.21501  0  -0.249555  -0.154431  0  3.666561  0
N  N110  1  0.81021188  0.62048528  0.31026745  1  -1.215001  0  -0.249561  -0.154448  0  3.666582  0
O  O111  1  0.63190676  0.20048177  0.51037954  1  -1.183423  0  -0.374579  -0.589155  0  2.185918  0
O  O112  1  0.78655682  0.21439289  0.64238290  1  -1.218237  0  -0.399525  -0.681439  0  2.281173  0
O  O113  1  0.57866923  0.41896637  0.55935002  1  -1.199545  0  -0.388098  -0.631972  0  2.243275  0
O  O114  1  0.12159815  0.48959842  0.69013867  1  -1.181744  0  -0.374819  -0.589827  0  2.186349  0
O  O115  1  0.14423690  0.35763519  0.57189899  1  -1.209837  0  -0.399891  -0.682261  0  2.280905  0
O  O116  1  0.01939078  0.44091875  0.85961714  1  -1.20847  0  -0.388453  -0.631283  0  2.242548  0
O  O117  1  0.43151130  0.30995650  0.79958930  1  -1.180501  0  -0.374413  -0.590098  0  2.186584  0
O  O118  1  0.57226957  0.42806537  0.78569527  1  -1.216778  0  -0.400231  -0.68306  0  2.28078  0
O  O119  1  0.15968711  0.14033319  0.58128120  1  -1.207164  0  -0.387677  -0.630735  0  2.241527  0
O  O120  1  0.87840139  0.30986075  0.51040140  1  -1.181755  0  -0.374836  -0.589871  0  2.186443  0
O  O121  1  0.85575544  0.42809720  0.64236058  1  -1.209818  0  -0.399911  -0.682334  0  2.280971  0
O  O122  1  0.98060785  0.14038144  0.55907939  1  -1.208485  0  -0.38848  -0.631309  0  2.242508  0
O  O123  1  0.56848996  0.20041186  0.69004435  1  -1.1804  0  -0.374433  -0.590153  0  2.186605  0
O  O124  1  0.42773004  0.21430428  0.57193460  1  -1.215783  0  -0.400242  -0.683091  0  2.280709  0
O  O125  1  0.84031341  0.41872324  0.85966729  1  -1.207208  0  -0.38771  -0.630719  0  2.241511  0
O  O126  1  0.36809193  0.48962012  0.79951659  1  -1.183451  0  -0.374608  -0.589177  0  2.185903  0
O  O127  1  0.21344358  0.35761776  0.78560624  1  -1.218659  0  -0.399527  -0.681456  0  2.281268  0
O  O128  1  0.42132879  0.44064834  0.58103119  1  -1.199545  0  -0.388107  -0.63198  0  2.243235  0
O  O129  1  0.99999953  0.20697227  0.79302572  1  -1.219157  0  -0.57504  -0.783289  0  2.002057  0
O  O130  1  0.20669255  0.20629065  0.41388933  1  -1.218709  0  -0.574924  -0.781623  0  2.004076  0
O  O131  1  0.79330155  0.58611117  0.79369785  1  -1.21896  0  -0.574838  -0.781503  0  2.004204  0
