# generated using pymatgen
data_AgH8C6N2ClO4
_symmetry_space_group_name_H-M   'P 1'
_cell_length_a   7.36481053
_cell_length_b   11.14525438
_cell_length_c   11.44278950
_cell_angle_alpha   91.66523241
_cell_angle_beta   105.65122925
_cell_angle_gamma   89.95633932
_symmetry_Int_Tables_number   1
_chemical_formula_structural   AgH8C6N2ClO4
_chemical_formula_sum   'Ag4 H32 C24 N8 Cl4 O16'
_cell_volume   904.02256240
_cell_formula_units_Z   4
loop_
 _symmetry_equiv_pos_site_id
 _symmetry_equiv_pos_as_xyz
  1  'x, y, z'
loop_
 _atom_site_type_symbol
 _atom_site_label
 _atom_site_symmetry_multiplicity
 _atom_site_fract_x
 _atom_site_fract_y
 _atom_site_fract_z
 _atom_site_occupancy
 _atom_site_hle17_bader_spin_density
 _atom_site_hle17_ddec_charge
 _atom_site_hle17_ddec_spin_density
 _atom_site_hle17_ddec_sum_bond_order
 _atom_site_hle17_magmom
 _atom_site_hse06_10hf_bader_spin_density
 _atom_site_hse06_10hf_ddec_charge
 _atom_site_hse06_10hf_ddec_spin_density
 _atom_site_hse06_10hf_ddec_sum_bond_order
 _atom_site_hse06_10hf_magmom
 _atom_site_hse06_bader_spin_density
 _atom_site_hse06_ddec_charge
 _atom_site_hse06_ddec_spin_density
 _atom_site_hse06_ddec_sum_bond_order
 _atom_site_hse06_magmom
 _atom_site_pbe_bader_spin_density
 _atom_site_pbe_cm5_charge
 _atom_site_pbe_ddec_charge
 _atom_site_pbe_ddec_spin_density
 _atom_site_pbe_ddec_sum_bond_order
 _atom_site_pbe_magmom
Ag  Ag0  1  0.61511177  0.08370278  0.36630200  1  0  0.532948  0  1.330832  0  0  0.38972  0  1.742963  0  0  0.416876  0  1.708202  0  0  0.463074  0.370958  0  1.766833  0
Ag  Ag1  1  0.38489557  0.91629854  0.63369770  1  0  0.532878  0  1.330923  0  0  0.389662  0  1.743036  0  0  0.416825  0  1.708265  0  0  0.463079  0.370906  0  1.766904  0
Ag  Ag2  1  0.49669275  0.57973468  0.22189230  1  0  0.53496  0  1.328638  0  0  0.39352  0  1.736147  0  0  0.421175  0  1.699574  0  0  0.461032  0.374393  0  1.761315  0
Ag  Ag3  1  0.50330894  0.42026666  0.77810815  1  0  0.534989  0  1.328587  0  0  0.393525  0  1.736043  0  0  0.421181  0  1.699482  0  0  0.461007  0.374392  0  1.761214  0
H  H4  1  0.52812135  0.83487446  0.36127702  1  0  0.076677  0  0.950815  0  0  0.092211  0  1.023386  0  0  0.093094  0  1.021391  0  0  0.10363  0.091483  0  1.024875  0
H  H5  1  0.47187604  0.16512149  0.63871904  1  0  0.076674  0  0.950851  0  0  0.092205  0  1.023453  0  0  0.093094  0  1.021447  0  0  0.103637  0.091474  0  1.024945  0
H  H6  1  0.73454854  0.83742973  0.31295864  1  0  0.082579  0  0.929733  0  0  0.103417  0  0.989847  0  0  0.103331  0  0.990168  0  0  0.109067  0.103416  0  0.989686  0
H  H7  1  0.26544605  0.16256802  0.68703872  1  0  0.082582  0  0.929736  0  0  0.103421  0  0.989844  0  0  0.103336  0  0.99017  0  0  0.109061  0.103419  0  0.989685  0
H  H8  1  0.80946922  0.64178037  0.38890732  1  0  0.293666  0  0.936569  0  0  0.281703  0  0.994291  0  0  0.287169  0  0.99154  0  0  0.285119  0.277801  0  0.996297  0
H  H9  1  0.19053105  0.35821916  0.61108934  1  0  0.29363  0  0.93665  0  0  0.28165  0  0.994372  0  0  0.287111  0  0.991643  0  0  0.285116  0.277746  0  0.996379  0
H  H10  1  0.62773005  0.63948748  0.44783083  1  0  0.289602  0  0.930999  0  0  0.278064  0  0.989909  0  0  0.282995  0  0.987803  0  0  0.284117  0.274512  0  0.991496  0
H  H11  1  0.37227157  0.36050847  0.55216598  1  0  0.289623  0  0.930948  0  0  0.278032  0  0.989923  0  0  0.282964  0  0.98782  0  0  0.284101  0.274477  0  0.991511  0
H  H12  1  0.89590081  0.69705735  0.59187911  1  0  0.121447  0  0.96763  0  0  0.130132  0  1.029188  0  0  0.133115  0  1.028613  0  0  0.108857  0.12799  0  1.029742  0
H  H13  1  0.10408517  0.30293235  0.40811916  1  0  0.121388  0  0.967824  0  0  0.130092  0  1.029328  0  0  0.133075  0  1.028751  0  0  0.10884  0.12795  0  1.029883  0
H  H14  1  0.05976690  0.80326769  0.78757426  1  0  0.108947  0  0.944792  0  0  0.122875  0  0.994927  0  0  0.125604  0  0.993101  0  0  0.10929  0.120808  0  0.996396  0
H  H15  1  0.94022889  0.19671751  0.21242475  1  0  0.108857  0  0.944822  0  0  0.122855  0  0.994899  0  0  0.125579  0  0.993071  0  0  0.109253  0.120786  0  0.996369  0
H  H16  1  0.02993007  0.02584225  0.80542497  1  0  0.126587  0  0.934531  0  0  0.139431  0  0.986562  0  0  0.142101  0  0.986496  0  0  0.114622  0.137506  0  0.98681  0
H  H17  1  0.97007708  0.97414650  0.19457088  1  0  0.126603  0  0.934423  0  0  0.139434  0  0.986486  0  0  0.142104  0  0.98642  0  0  0.114614  0.137508  0  0.986734  0
H  H18  1  0.84034050  0.13536811  0.62451567  1  0  0.088515  0  0.969692  0  0  0.094899  0  1.037805  0  0  0.097364  0  1.035334  0  0  0.112226  0.093047  0  1.039636  0
H  H19  1  0.15966813  0.86462514  0.37548317  1  0  0.088494  0  0.96966  0  0  0.094847  0  1.03781  0  0  0.097315  0  1.035329  0  0  0.112219  0.092997  0  1.039651  0
H  H20  1  0.56623903  0.34330695  0.23500553  1  0  0.076897  0  0.945325  0  0  0.09414  0  1.014091  0  0  0.095207  0  1.011752  0  0  0.104602  0.093245  0  1.01588  0
H  H21  1  0.43375570  0.65670160  0.76499736  1  0  0.076953  0  0.945234  0  0  0.094145  0  1.014023  0  0  0.095224  0  1.011674  0  0  0.104606  0.09325  0  1.015816  0
H  H22  1  0.35901138  0.32468639  0.27995418  1  0  0.087861  0  0.929554  0  0  0.108225  0  0.989503  0  0  0.108038  0  0.990294  0  0  0.108764  0.108272  0  0.989088  0
H  H23  1  0.64097768  0.67531856  0.72004326  1  0  0.087875  0  0.929548  0  0  0.108228  0  0.989448  0  0  0.108043  0  0.990239  0  0  0.108789  0.108277  0  0.98903  0
H  H24  1  0.32699914  0.12356350  0.18055682  1  0  0.278527  0  0.933919  0  0  0.269757  0  0.989814  0  0  0.274124  0  0.988766  0  0  0.285762  0.266609  0  0.990634  0
H  H25  1  0.67300119  0.87644234  0.81944612  1  0  0.278444  0  0.93399  0  0  0.26969  0  0.989896  0  0  0.274057  0  0.988849  0  0  0.285719  0.266543  0  0.990714  0
H  H26  1  0.52096401  0.14697961  0.14060269  1  0  0.296411  0  0.928057  0  0  0.284556  0  0.985531  0  0  0.290096  0  0.982609  0  0  0.28574  0.280528  0  0.987762  0
H  H27  1  0.47903492  0.85302623  0.85939913  1  0  0.296382  0  0.92808  0  0  0.284551  0  0.985554  0  0  0.290094  0  0.982624  0  0  0.285766  0.280521  0  0.987788  0
H  H28  1  0.18840291  0.18203414  0.00530327  1  0  0.122538  0  0.961131  0  0  0.133834  0  1.018244  0  0  0.136935  0  1.017556  0  0  0.109803  0.131555  0  1.018962  0
H  H29  1  0.81158614  0.81797172  0.99469769  1  0  0.122573  0  0.961186  0  0  0.133914  0  1.018235  0  0  0.137012  0  1.017549  0  0  0.10983  0.131634  0  1.018955  0
H  H30  1  0.00853078  0.27810958  0.81576616  1  0  0.107865  0  0.952124  0  0  0.120734  0  1.006864  0  0  0.123104  0  1.005059  0  0  0.108457  0.118961  0  1.008215  0
H  H31  1  0.99145833  0.72190077  0.18423667  1  0  0.107873  0  0.952108  0  0  0.120791  0  1.006755  0  0  0.12317  0  1.004951  0  0  0.108465  0.119018  0  1.008105  0
H  H32  1  0.04447992  0.49883428  0.79412490  1  0  0.116825  0  0.939387  0  0  0.129418  0  0.993142  0  0  0.132041  0  0.992925  0  0  0.108584  0.127524  0  0.99349  0
H  H33  1  0.95552606  0.50117245  0.20587905  1  0  0.116802  0  0.939461  0  0  0.129487  0  0.993123  0  0  0.132111  0  0.992905  0  0  0.108599  0.127589  0  0.993473  0
H  H34  1  0.25016705  0.61782633  0.97043486  1  0  0.085293  0  0.979716  0  0  0.092044  0  1.047156  0  0  0.094445  0  1.044867  0  0  0.109623  0.090247  0  1.048825  0
H  H35  1  0.74984457  0.38217858  0.02956654  1  0  0.085387  0  0.979705  0  0  0.092089  0  1.047203  0  0  0.094497  0  1.044921  0  0  0.109599  0.090279  0  1.048881  0
C  C36  1  0.78000149  0.86004376  0.50497836  1  0  0.223766  0  3.698007  0  0  0.225902  0  3.93951  0  0  0.233713  0  3.960865  0  0  0.114455  0.220677  0  3.925061  0
C  C37  1  0.21999158  0.13994772  0.49501945  1  0  0.223771  0  3.698319  0  0  0.22598  0  3.939716  0  0  0.233792  0  3.96107  0  0  0.114469  0.22075  0  3.925268  0
C  C38  1  0.67473997  0.80367793  0.38410642  1  0  -0.011946  0  3.706032  0  0  -0.078071  0  3.954424  0  0  -0.074124  0  3.966624  0  0  -0.07803  -0.080597  0  3.945894  0
C  C39  1  0.32525601  0.19631802  0.61589027  1  0  -0.011933  0  3.706104  0  0  -0.078092  0  3.954425  0  0  -0.074147  0  3.966638  0  0  -0.078016  -0.080613  0  3.945878  0
C  C40  1  0.88469716  0.79392613  0.60177377  1  0  -0.156904  0  3.690928  0  0  -0.174205  0  3.934635  0  0  -0.18227  0  3.956102  0  0  -0.0888  -0.169103  0  3.920421  0
C  C41  1  0.11530292  0.20606265  0.39822521  1  0  -0.156987  0  3.691467  0  0  -0.174322  0  3.935136  0  0  -0.182379  0  3.956591  0  0  -0.088833  -0.16922  0  3.920917  0
C  C42  1  0.97719771  0.85296418  0.71067706  1  0  -0.008536  0  3.720083  0  0  -0.022713  0  3.967963  0  0  -0.018059  0  3.98383  0  0  -0.069588  -0.025556  0  3.957297  0
C  C43  1  0.02279673  0.14702460  0.28932092  1  0  -0.008397  0  3.720123  0  0  -0.022655  0  3.968015  0  0  -0.017998  0  3.983889  0  0  -0.069596  -0.025498  0  3.957346  0
C  C44  1  0.96217537  0.97737617  0.72100620  1  0  -0.123224  0  3.732982  0  0  -0.139552  0  3.99035  0  0  -0.146379  0  4.009981  0  0  -0.087369  -0.135337  0  3.97741  0
C  C45  1  0.03782472  0.02261350  0.27899367  1  0  -0.123215  0  3.733134  0  0  -0.139558  0  3.990515  0  0  -0.146381  0  4.010131  0  0  -0.087351  -0.135348  0  3.977582  0
C  C46  1  0.85596434  0.03825446  0.62134847  1  0  0.11503  0  3.70358  0  0  0.081779  0  3.958468  0  0  0.089268  0  3.976987  0  0  0.035316  0.076843  0  3.946086  0
C  C47  1  0.14404148  0.96173878  0.37864813  1  0  0.115053  0  3.703784  0  0  0.081843  0  3.958635  0  0  0.089337  0  3.977151  0  0  0.035348  0.076917  0  3.946223  0
C  C48  1  0.31405019  0.34952664  0.08926112  1  0  0.224202  0  3.696028  0  0  0.227815  0  3.932984  0  0  0.235555  0  3.955719  0  0  0.115868  0.222687  0  3.917531  0
C  C49  1  0.68595008  0.65047470  0.91073908  1  0  0.224339  0  3.69597  0  0  0.227918  0  3.932917  0  0  0.235662  0  3.955648  0  0  0.115887  0.222788  0  3.917474  0
C  C50  1  0.42670477  0.29954284  0.20821668  1  0  -0.010399  0  3.684481  0  0  -0.078817  0  3.939362  0  0  -0.074711  0  3.950846  0  0  -0.075989  -0.081453  0  3.931245  0
C  C51  1  0.57329273  0.70046211  0.79178574  1  0  -0.01058  0  3.684564  0  0  -0.078857  0  3.939311  0  0  -0.074758  0  3.950782  0  0  -0.076028  -0.081494  0  3.931202  0
C  C52  1  0.19901263  0.27854842  0.99592695  1  0  -0.156755  0  3.684642  0  0  -0.174281  0  3.926598  0  0  -0.18314  0  3.948838  0  0  -0.087408  -0.168646  0  3.911914  0
C  C53  1  0.80098631  0.72145741  0.00407313  1  0  -0.156865  0  3.68471  0  0  -0.174465  0  3.926699  0  0  -0.183321  0  3.948938  0  0  -0.087418  -0.168831  0  3.912023  0
C  C54  1  0.10022542  0.33171050  0.88895057  1  0  0.016221  0  3.707077  0  0  -0.003715  0  3.958784  0  0  0.001459  0  3.975736  0  0  -0.065864  -0.006933  0  3.947376  0
C  C55  1  0.89977351  0.66829534  0.11105212  1  0  0.016244  0  3.707021  0  0  -0.003691  0  3.958697  0  0  0.00147  0  3.97566  0  0  -0.065861  -0.006909  0  3.947288  0
C  C56  1  0.11855808  0.45492074  0.87709901  1  0  -0.137833  0  3.758761  0  0  -0.150595  0  4.01572  0  0  -0.15821  0  4.036142  0  0  -0.091037  -0.145844  0  4.002217  0
C  C57  1  0.88144934  0.54508597  0.12290083  1  0  -0.137908  0  3.758734  0  0  -0.150762  0  4.015681  0  0  -0.15838  0  4.036113  0  0  -0.091084  -0.146006  0  4.002165  0
C  C58  1  0.23262072  0.52107069  0.97415576  1  0  0.109824  0  3.730148  0  0  0.07762  0  3.980086  0  0  0.084997  0  3.999717  0  0  0.034172  0.072892  0  3.966765  0
C  C59  1  0.76738383  0.47893334  0.02584438  1  0  0.109879  0  3.730184  0  0  0.077688  0  3.980105  0  0  0.085052  0  3.999752  0  0  0.034243  0.072975  0  3.966769  0
N  N60  1  0.76742283  0.98113042  0.51550804  1  0  -0.365396  0  3.370377  0  0  -0.274852  0  3.644921  0  0  -0.296252  0  3.663323  0  0  -0.355367  -0.26031  0  3.632121  0
N  N61  1  0.23258011  0.01886104  0.48449238  1  0  -0.365303  0  3.370571  0  0  -0.274774  0  3.645032  0  0  -0.296174  0  3.663432  0  0  -0.355317  -0.260237  0  3.632241  0
N  N62  1  0.67448009  0.67212894  0.37814361  1  0  -0.596418  0  3.232574  0  0  -0.521292  0  3.482082  0  0  -0.543695  0  3.485218  0  0  -0.657494  -0.505611  0  3.479518  0
N  N63  1  0.32551730  0.32786701  0.62185332  1  0  -0.596477  0  3.232688  0  0  -0.521214  0  3.482094  0  0  -0.543631  0  3.485242  0  0  -0.657494  -0.505517  0  3.479511  0
N  N64  1  0.32861180  0.46961859  0.07784835  1  0  -0.350801  0  3.356513  0  0  -0.260051  0  3.625881  0  0  -0.282117  0  3.645492  0  0  -0.354382  -0.245113  0  3.612242  0
N  N65  1  0.67139556  0.53038272  0.92214785  1  0  -0.350906  0  3.356591  0  0  -0.260152  0  3.625973  0  0  -0.282219  0  3.64559  0  0  -0.354434  -0.245215  0  3.612333  0
N  N66  1  0.45334824  0.16875993  0.20618165  1  0  -0.595204  0  3.232998  0  0  -0.52038  0  3.484944  0  0  -0.542584  0  3.488074  0  0  -0.650551  -0.504794  0  3.482348  0
N  N67  1  0.54665068  0.83124591  0.79382017  1  0  -0.594986  0  3.23314  0  0  -0.520207  0  3.484918  0  0  -0.542415  0  3.488068  0  0  -0.650533  -0.50462  0  3.482323  0
Cl  Cl68  1  0.76946118  0.38694334  0.52498113  1  0  1.395337  0  6.169831  0  0  1.326052  0  6.736983  0  0  1.379061  0  6.713029  0  0  0.732766  1.289682  0  6.751957  0
Cl  Cl69  1  0.23054610  0.61305621  0.47502288  1  0  1.395172  0  6.170347  0  0  1.325964  0  6.737448  0  0  1.378983  0  6.713488  0  0  0.732684  1.289592  0  6.752423  0
Cl  Cl70  1  0.33783235  0.87476499  0.07340185  1  0  1.389533  0  6.185659  0  0  1.323398  0  6.753586  0  0  1.376378  0  6.729566  0  0  0.72706  1.286952  0  6.768625  0
Cl  Cl71  1  0.66216663  0.12524263  0.92659653  1  0  1.389539  0  6.18594  0  0  1.323333  0  6.753926  0  0  1.376325  0  6.729904  0  0  0.72694  1.286889  0  6.76896  0
O  O72  1  0.61048420  0.30195472  0.49206653  1  0  -0.560385  0  1.923577  0  0  -0.517748  0  2.189525  0  0  -0.535055  0  2.175283  0  0  -0.310458  -0.505709  0  2.198999  0
O  O73  1  0.38952727  0.69804122  0.50793550  1  0  -0.560321  0  1.923751  0  0  -0.517777  0  2.189731  0  0  -0.535107  0  2.175505  0  0  -0.310459  -0.505744  0  2.199212  0
O  O74  1  0.92908918  0.32789739  0.60791341  1  0  -0.54968  0  1.911762  0  0  -0.508329  0  2.15415  0  0  -0.526474  0  2.143436  0  0  -0.300497  -0.495718  0  2.161158  0
O  O75  1  0.07090818  0.67210311  0.39209936  1  0  -0.549655  0  1.912038  0  0  -0.508315  0  2.154444  0  0  -0.526458  0  2.143722  0  0  -0.300479  -0.495696  0  2.161445  0
O  O76  1  0.71763004  0.49310484  0.58629782  1  0  -0.544328  0  1.866899  0  0  -0.517771  0  2.129304  0  0  -0.532795  0  2.113711  0  0  -0.310212  -0.507172  0  2.139474  0
O  O77  1  0.28236461  0.50689651  0.41369964  1  0  -0.54429  0  1.866993  0  0  -0.517747  0  2.12939  0  0  -0.532771  0  2.113791  0  0  -0.310198  -0.507156  0  2.139578  0
O  O78  1  0.82028446  0.42073923  0.41579683  1  0  -0.538743  0  1.867907  0  0  -0.510639  0  2.122992  0  0  -0.526331  0  2.109001  0  0  -0.307834  -0.499623  0  2.13212  0
O  O79  1  0.17973546  0.57925761  0.58421108  1  0  -0.53863  0  1.867892  0  0  -0.510567  0  2.122985  0  0  -0.526258  0  2.108994  0  0  -0.307782  -0.499552  0  2.132115  0
O  O80  1  0.29528777  0.79602335  0.16294739  1  0  -0.560776  0  1.893833  0  0  -0.52757  0  2.160044  0  0  -0.544916  0  2.145244  0  0  -0.313564  -0.515308  0  2.169693  0
O  O81  1  0.70470832  0.20397889  0.83704685  1  0  -0.560752  0  1.894094  0  0  -0.52753  0  2.160343  0  0  -0.544884  0  2.145537  0  0  -0.313449  -0.515264  0  2.169986  0
O  O82  1  0.31393326  0.80574871  0.95837714  1  0  -0.559128  0  1.888389  0  0  -0.518615  0  2.124461  0  0  -0.536026  0  2.11227  0  0  -0.309606  -0.506249  0  2.132258  0
O  O83  1  0.68606433  0.19425981  0.04161927  1  0  -0.559151  0  1.88833  0  0  -0.51855  0  2.124416  0  0  -0.535939  0  2.112158  0  0  -0.309595  -0.506186  0  2.132216  0
O  O84  1  0.53171708  0.91814252  0.11594210  1  0  -0.542792  0  1.874753  0  0  -0.519124  0  2.136668  0  0  -0.534943  0  2.123233  0  0  -0.311911  -0.508052  0  2.145473  0
O  O85  1  0.46828330  0.08186601  0.88405917  1  0  -0.542873  0  1.874718  0  0  -0.519192  0  2.13662  0  0  -0.535011  0  2.123177  0  0  -0.311974  -0.508125  0  2.145429  0
O  O86  1  0.20650090  0.97497013  0.05302701  1  0  -0.53281  0  1.875205  0  0  -0.502928  0  2.121054  0  0  -0.51919  0  2.108841  0  0  -0.306035  -0.491459  0  2.128875  0
O  O87  1  0.79349806  0.02503660  0.94697222  1  0  -0.532778  0  1.875296  0  0  -0.502915  0  2.121178  0  0  -0.519152  0  2.108897  0  0  -0.305977  -0.491444  0  2.128995  0
