# generated using pymatgen
data_H16RhC22N(ClO3)2
_symmetry_space_group_name_H-M   'P 1'
_cell_length_a   9.39865982
_cell_length_b   12.30482205
_cell_length_c   12.27730054
_cell_angle_alpha   91.03971114
_cell_angle_beta   71.96230304
_cell_angle_gamma   81.92693387
_symmetry_Int_Tables_number   1
_chemical_formula_structural   H16RhC22N(ClO3)2
_chemical_formula_sum   'H32 Rh2 C44 N2 Cl4 O12'
_cell_volume   1333.82700565
_cell_formula_units_Z   2
loop_
 _symmetry_equiv_pos_site_id
 _symmetry_equiv_pos_as_xyz
  1  'x, y, z'
loop_
 _atom_site_type_symbol
 _atom_site_label
 _atom_site_symmetry_multiplicity
 _atom_site_fract_x
 _atom_site_fract_y
 _atom_site_fract_z
 _atom_site_occupancy
 _atom_site_hle17_bader_spin_density
 _atom_site_hle17_ddec_charge
 _atom_site_hle17_ddec_spin_density
 _atom_site_hle17_ddec_sum_bond_order
 _atom_site_hle17_magmom
 _atom_site_hse06_10hf_bader_spin_density
 _atom_site_hse06_10hf_ddec_charge
 _atom_site_hse06_10hf_ddec_spin_density
 _atom_site_hse06_10hf_ddec_sum_bond_order
 _atom_site_hse06_10hf_magmom
 _atom_site_hse06_bader_spin_density
 _atom_site_hse06_ddec_charge
 _atom_site_hse06_ddec_spin_density
 _atom_site_hse06_ddec_sum_bond_order
 _atom_site_hse06_magmom
 _atom_site_pbe_bader_spin_density
 _atom_site_pbe_cm5_charge
 _atom_site_pbe_ddec_charge
 _atom_site_pbe_ddec_spin_density
 _atom_site_pbe_ddec_sum_bond_order
 _atom_site_pbe_magmom
H  H0  1  0.05551180  0.40166852  0.55147989  1  0  0.09251  0  0.921282  0  0  0.112129  0  0.97887  0  0  0.112819  0  0.978279  0  0  0.105095  0.111579  0  0.979346  0
H  H1  1  0.94448797  0.59829994  0.44850656  1  0  0.092513  0  0.921212  0  0  0.11212  0  0.978813  0  0  0.112809  0  0.97822  0  0  0.105088  0.111568  0  0.979283  0
H  H2  1  0.11828810  0.26781435  0.47647291  1  0  0.083008  0  0.922635  0  0  0.101233  0  0.983304  0  0  0.101499  0  0.983021  0  0  0.101001  0.101023  0  0.983522  0
H  H3  1  0.88176371  0.73215052  0.52350317  1  0  0.082861  0  0.922701  0  0  0.101139  0  0.98331  0  0  0.101395  0  0.983029  0  0  0.100994  0.10093  0  0.983532  0
H  H4  1  0.99990402  0.37075905  0.42861434  1  0  0.094937  0  0.939293  0  0  0.112919  0  1.002931  0  0  0.112804  0  1.00344  0  0  0.107416  0.112958  0  1.002615  0
H  H5  1  0.00012151  0.62920106  0.57135479  1  0  0.094871  0  0.939455  0  0  0.112845  0  1.003118  0  0  0.11273  0  1.003626  0  0  0.107449  0.112884  0  1.002809  0
H  H6  1  0.26967404  0.31641358  0.57599451  1  0  0.120874  0  0.957583  0  0  0.13177  0  1.016044  0  0  0.135125  0  1.014687  0  0  0.106609  0.129422  0  1.017109  0
H  H7  1  0.73027232  0.68361580  0.42402658  1  0  0.12098  0  0.958017  0  0  0.131842  0  1.016461  0  0  0.135213  0  1.015083  0  0  0.106605  0.129489  0  1.017522  0
H  H8  1  0.74030064  0.35179196  0.46739175  1  0  0.104566  0  0.951535  0  0  0.115049  0  1.012111  0  0  0.118409  0  1.010847  0  0  0.099739  0.1127  0  1.013086  0
H  H9  1  0.25967665  0.64825814  0.53262624  1  0  0.104488  0  0.951528  0  0  0.115002  0  1.01207  0  0  0.118366  0  1.010809  0  0  0.099663  0.112654  0  1.013044  0
H  H10  1  0.71463836  0.42553298  0.28526750  1  0  0.10712  0  0.948071  0  0  0.117093  0  1.006382  0  0  0.119037  0  1.006  0  0  0.107299  0.115829  0  1.006499  0
H  H11  1  0.28533701  0.57449053  0.71476252  1  0  0.107256  0  0.947808  0  0  0.11707  0  1.006291  0  0  0.11901  0  1.005912  0  0  0.107294  0.115811  0  1.006406  0
H  H12  1  0.96577062  0.06649230  0.91267328  1  0  0.093513  0  0.933441  0  0  0.113795  0  0.993722  0  0  0.113635  0  0.994451  0  0  0.106227  0.113832  0  0.993309  0
H  H13  1  0.03422607  0.93353179  0.08733453  1  0  0.093451  0  0.93352  0  0  0.113725  0  0.993829  0  0  0.113558  0  0.994563  0  0  0.10615  0.113767  0  0.993419  0
H  H14  1  0.92412335  0.00293839  0.79535920  1  0  0.080864  0  0.921926  0  0  0.099822  0  0.982006  0  0  0.100132  0  0.981508  0  0  0.09909  0.099498  0  0.982502  0
H  H15  1  0.07588510  0.99707210  0.20463902  1  0  0.080745  0  0.922064  0  0  0.09973  0  0.982109  0  0  0.10004  0  0.981611  0  0  0.09907  0.099406  0  0.982605  0
H  H16  1  0.85292832  0.95770080  0.93792784  1  0  0.07518  0  0.975599  0  0  0.088836  0  1.051748  0  0  0.088166  0  1.053474  0  0  0.092961  0.089258  0  1.050636  0
H  H17  1  0.14710214  0.04229125  0.06206778  1  0  0.075174  0  0.975598  0  0  0.088815  0  1.0518  0  0  0.088147  0  1.053522  0  0  0.092995  0.089237  0  1.050692  0
H  H18  1  0.70868868  0.91791240  0.83573689  1  0  0.117986  0  0.973903  0  0  0.126498  0  1.04083  0  0  0.129434  0  1.039886  0  0  0.103592  0.124425  0  1.04169  0
H  H19  1  0.29130068  0.08206698  0.16427766  1  0  0.118032  0  0.974088  0  0  0.126568  0  1.040982  0  0  0.129505  0  1.040037  0  0  0.103627  0.124495  0  1.041842  0
H  H20  1  0.25595021  0.03262311  0.83353794  1  0  0.102206  0  0.952519  0  0  0.114446  0  1.010884  0  0  0.117502  0  1.009704  0  0  0.10004  0.112331  0  1.01175  0
H  H21  1  0.74407972  0.96735910  0.16645704  1  0  0.102118  0  0.952582  0  0  0.114395  0  1.010934  0  0  0.117459  0  1.009746  0  0  0.099978  0.112279  0  1.011796  0
H  H22  1  0.27402760  0.21914926  0.90745397  1  0  0.109514  0  0.938569  0  0  0.119383  0  0.996209  0  0  0.121755  0  0.995119  0  0  0.108345  0.117779  0  0.996808  0
H  H23  1  0.72598304  0.78085340  0.09253164  1  0  0.109492  0  0.938613  0  0  0.119413  0  0.996186  0  0  0.121779  0  0.995092  0  0  0.108385  0.117808  0  0.996782  0
H  H24  1  0.16980917  0.39406687  0.19625877  1  0  0.127686  0  0.985144  0  0  0.129129  0  1.056973  0  0  0.13543  0  1.051449  0  0  0.107856  0.124335  0  1.06132  0
H  H25  1  0.83017217  0.60593648  0.80373432  1  0  0.127713  0  0.985028  0  0  0.129119  0  1.056895  0  0  0.13541  0  1.051371  0  0  0.107874  0.124328  0  1.061249  0
H  H26  1  0.06026271  0.22303592  0.24864971  1  0  0.078629  0  0.950554  0  0  0.092538  0  1.006412  0  0  0.096357  0  1.003678  0  0  0.095852  0.089525  0  1.00888  0
H  H27  1  0.93974670  0.77696633  0.75132310  1  0  0.078882  0  0.950268  0  0  0.092752  0  1.00618  0  0  0.096574  0  1.003439  0  0  0.095896  0.089744  0  1.008648  0
H  H28  1  0.87959214  0.16448138  0.15342495  1  0  0.079889  0  0.960748  0  0  0.091215  0  1.021996  0  0  0.095044  0  1.019361  0  0  0.093444  0.08825  0  1.024358  0
H  H29  1  0.12041582  0.83550338  0.84656298  1  0  0.079775  0  0.961078  0  0  0.091101  0  1.022309  0  0  0.09493  0  1.019674  0  0  0.093364  0.088138  0  1.024675  0
H  H30  1  0.80262615  0.28084319  0.01319343  1  0  0.12772  0  0.982344  0  0  0.129112  0  1.055019  0  0  0.135223  0  1.049754  0  0  0.106909  0.124526  0  1.059191  0
H  H31  1  0.19734061  0.71912011  0.98682007  1  0  0.127969  0  0.982241  0  0  0.129117  0  1.05511  0  0  0.135313  0  1.049756  0  0  0.106956  0.124532  0  1.059276  0
Rh  Rh32  1  0.36286881  0.51563288  0.02748391  1  0  0.673787  0  3.071554  0  0  0.61135  0  3.650018  0  0  0.646538  0  3.603814  0  0  0.659666  0.59267  0  3.67816  0
Rh  Rh33  1  0.63713530  0.48437612  0.97251683  1  0  0.673633  0  3.071586  0  0  0.611018  0  3.650188  0  0  0.64619  0  3.60401  0  0  0.659644  0.592381  0  3.678238  0
C  C34  1  0.47937840  0.45325104  0.21201085  1  0  0.626055  0  3.824446  0  0  0.57184  0  4.133944  0  0  0.612491  0  4.124129  0  0  0.209309  0.544137  0  4.140155  0
C  C35  1  0.52064650  0.54673379  0.78798675  1  0  0.625528  0  3.824963  0  0  0.57153  0  4.134182  0  0  0.612183  0  4.124378  0  0  0.209276  0.543832  0  4.140389  0
C  C36  1  0.47865702  0.41528435  0.32642404  1  0  -0.176026  0  3.715597  0  0  -0.164667  0  3.963375  0  0  -0.177523  0  3.982823  0  0  -0.033797  -0.156504  0  3.950746  0
C  C37  1  0.52134814  0.58471079  0.67357905  1  0  -0.176086  0  3.716039  0  0  -0.164608  0  3.963539  0  0  -0.177475  0  3.983002  0  0  -0.033762  -0.15645  0  3.950916  0
C  C38  1  0.35058876  0.38459034  0.40981960  1  0  0.287895  0  3.770376  0  0  0.268765  0  4.03444  0  0  0.284598  0  4.048304  0  0  0.092991  0.258085  0  4.02508  0
C  C39  1  0.64940725  0.61541465  0.59018034  1  0  0.288029  0  3.770041  0  0  0.268852  0  4.034153  0  0  0.284685  0  4.048017  0  0  0.092886  0.258169  0  4.024794  0
C  C40  1  0.09133284  0.35647953  0.46681324  1  0  -0.07649  0  3.647929  0  0  -0.172835  0  3.909725  0  0  -0.165863  0  3.915238  0  0  -0.132972  -0.177383  0  3.905641  0
C  C41  1  0.90870508  0.64349920  0.53315489  1  0  -0.075978  0  3.646825  0  0  -0.17229  0  3.908644  0  0  -0.165302  0  3.914143  0  0  -0.132906  -0.176856  0  3.904575  0
C  C42  1  0.36564109  0.34117448  0.51120147  1  0  -0.286423  0  3.766179  0  0  -0.315724  0  4.021319  0  0  -0.325322  0  4.041274  0  0  -0.122501  -0.309348  0  4.007793  0
C  C43  1  0.63434777  0.65883665  0.48880719  1  0  -0.286505  0  3.766965  0  0  -0.31576  0  4.022073  0  0  -0.325367  0  4.042004  0  0  -0.122473  -0.309384  0  4.008544  0
C  C44  1  0.50557803  0.32949663  0.53011062  1  0  0.179165  0  3.840279  0  0  0.189242  0  4.107832  0  0  0.196983  0  4.128235  0  0  0.015599  0.184063  0  4.093948  0
C  C45  1  0.49440290  0.67054065  0.46991735  1  0  0.179064  0  3.840697  0  0  0.189147  0  4.108243  0  0  0.196886  0  4.12866  0  0  0.01561  0.183969  0  4.094349  0
C  C46  1  0.63243803  0.36050175  0.45047525  1  0  -0.171002  0  3.789279  0  0  -0.197882  0  4.050625  0  0  -0.205893  0  4.073238  0  0  -0.112699  -0.192579  0  4.035132  0
C  C47  1  0.36753891  0.63953513  0.54956332  1  0  -0.170929  0  3.788945  0  0  -0.19783  0  4.050247  0  0  -0.205838  0  4.072835  0  0  -0.112591  -0.192534  0  4.034776  0
C  C48  1  0.61690601  0.40242424  0.34991858  1  0  -0.01902  0  3.742399  0  0  -0.043736  0  3.997679  0  0  -0.039105  0  4.017767  0  0  -0.080499  -0.046447  0  3.983751  0
C  C49  1  0.38309102  0.59758328  0.65010807  1  0  -0.019169  0  3.742372  0  0  -0.043795  0  3.997614  0  0  -0.039166  0  4.017721  0  0  -0.080617  -0.04651  0  3.983693  0
C  C50  1  0.50479739  0.29199700  0.94545850  1  0  0.628447  0  3.822332  0  0  0.574909  0  4.130092  0  0  0.615585  0  4.11985  0  0  0.209974  0.546525  0  4.137813  0
C  C51  1  0.49518724  0.70801791  0.05453874  1  0  0.628195  0  3.822162  0  0  0.57467  0  4.129983  0  0  0.615349  0  4.119741  0  0  0.209798  0.546285  0  4.137701  0
C  C52  1  0.50185224  0.17665250  0.90951312  1  0  -0.170555  0  3.714278  0  0  -0.160019  0  3.962085  0  0  -0.17235  0  3.981028  0  0  -0.032457  -0.152288  0  3.950278  0
C  C53  1  0.49814011  0.82335195  0.09049327  1  0  -0.170367  0  3.714491  0  0  -0.16011  0  3.962582  0  0  -0.172459  0  3.981549  0  0  -0.032557  -0.152378  0  3.950774  0
C  C54  1  0.62685570  0.09085182  0.88894289  1  0  0.296236  0  3.752656  0  0  0.278848  0  4.010375  0  0  0.294365  0  4.024723  0  0  0.097379  0.267989  0  4.001265  0
C  C55  1  0.37314235  0.90915447  0.11107214  1  0  0.296195  0  3.75244  0  0  0.278973  0  4.010106  0  0  0.294493  0  4.024458  0  0  0.097429  0.268114  0  4.000994  0
C  C56  1  0.88038062  0.02926022  0.88749822  1  0  -0.074511  0  3.649366  0  0  -0.172966  0  3.911808  0  0  -0.165681  0  3.917388  0  0  -0.137103  -0.177766  0  3.907922  0
C  C57  1  0.11960740  0.97075660  0.11250893  1  0  -0.074133  0  3.649146  0  0  -0.172598  0  3.911594  0  0  -0.165307  0  3.917164  0  0  -0.136999  -0.177408  0  3.907715  0
C  C58  1  0.61612322  0.98563702  0.84923051  1  0  -0.280116  0  3.754342  0  0  -0.30869  0  4.006929  0  0  -0.318442  0  4.028433  0  0  -0.119814  -0.302355  0  3.992778  0
C  C59  1  0.38389106  0.01437097  0.15076902  1  0  -0.280078  0  3.754346  0  0  -0.308695  0  4.00679  0  0  -0.318457  0  4.028285  0  0  -0.119758  -0.302363  0  3.992643  0
C  C60  1  0.48311245  0.96627167  0.82977831  1  0  0.174882  0  3.834368  0  0  0.184525  0  4.102428  0  0  0.192433  0  4.121852  0  0  0.014589  0.179451  0  4.089216  0
C  C61  1  0.51691144  0.03373204  0.17022015  1  0  0.174612  0  3.83435  0  0  0.184336  0  4.102326  0  0  0.19227  0  4.121717  0  0  0.014494  0.179263  0  4.089114  0
C  C62  1  0.35824605  0.04896604  0.85043680  1  0  -0.177836  0  3.804806  0  0  -0.204786  0  4.065715  0  0  -0.211533  0  4.086091  0  0  -0.114873  -0.200296  0  4.051559  0
C  C63  1  0.64177008  0.95102545  0.14956005  1  0  -0.177698  0  3.804739  0  0  -0.204725  0  4.065639  0  0  -0.211486  0  4.086012  0  0  -0.114872  -0.200233  0  4.051473  0
C  C64  1  0.36921813  0.15261611  0.89099598  1  0  -0.031595  0  3.761188  0  0  -0.057037  0  4.020244  0  0  -0.051842  0  4.037953  0  0  -0.084524  -0.05986  0  4.007598  0
C  C65  1  0.63077082  0.84737608  0.10900957  1  0  -0.03162  0  3.761366  0  0  -0.057041  0  4.0205  0  0  -0.051829  0  4.038205  0  0  -0.084501  -0.059864  0  4.00785  0
C  C66  1  0.04929669  0.43592157  0.07489071  1  0  0.174954  0  3.72493  0  0  0.171697  0  3.973381  0  0  0.178477  0  3.98636  0  0  0.112081  0.166865  0  3.965658  0
C  C67  1  0.95069757  0.56406310  0.92508854  1  0  0.174952  0  3.724856  0  0  0.171749  0  3.973071  0  0  0.178528  0  3.986038  0  0  0.112138  0.166924  0  3.965373  0
C  C68  1  0.08983656  0.36844143  0.15693565  1  0  -0.127279  0  3.699003  0  0  -0.152402  0  3.959413  0  0  -0.153012  0  3.971582  0  0  -0.09212  -0.152626  0  3.952663  0
C  C69  1  0.91014859  0.63156869  0.84306561  1  0  -0.127326  0  3.698984  0  0  -0.152425  0  3.959335  0  0  -0.153025  0  3.971528  0  0  -0.092085  -0.152652  0  3.952589  0
C  C70  1  0.02902292  0.27342288  0.18483211  1  0  -0.071375  0  3.790296  0  0  -0.086923  0  4.04721  0  0  -0.086439  0  4.063759  0  0  -0.097523  -0.087538  0  4.037094  0
C  C71  1  0.97096393  0.72658267  0.81515578  1  0  -0.071699  0  3.790071  0  0  -0.08725  0  4.047008  0  0  -0.086776  0  4.063573  0  0  -0.09765  -0.087863  0  4.036891  0
C  C72  1  0.92731728  0.23999946  0.13081317  1  0  -0.073752  0  3.800439  0  0  -0.089465  0  4.05909  0  0  -0.089141  0  4.076126  0  0  -0.098498  -0.090145  0  4.048821  0
C  C73  1  0.07268986  0.75998947  0.86917653  1  0  -0.073648  0  3.800627  0  0  -0.089373  0  4.059222  0  0  -0.089046  0  4.076264  0  0  -0.098472  -0.090059  0  4.048958  0
C  C74  1  0.88284708  0.30451247  0.05332179  1  0  -0.128574  0  3.701149  0  0  -0.154694  0  3.962133  0  0  -0.155754  0  3.975051  0  0  -0.091554  -0.154732  0  3.954939  0
C  C75  1  0.11713611  0.69547790  0.94667595  1  0  -0.128857  0  3.701101  0  0  -0.154779  0  3.962033  0  0  -0.155916  0  3.974876  0  0  -0.091564  -0.154816  0  3.954846  0
C  C76  1  0.93829986  0.40578081  0.02590473  1  0  0.177781  0  3.722926  0  0  0.175384  0  3.970477  0  0  0.18218  0  3.98345  0  0  0.112977  0.170504  0  3.962816  0
C  C77  1  0.06168333  0.59420252  0.97407838  1  0  0.177951  0  3.722928  0  0  0.175728  0  3.97012  0  0  0.182531  0  3.983099  0  0  0.113044  0.170836  0  3.962444  0
N  N78  1  0.11501613  0.52734561  0.04455837  1  0  -0.290421  0  3.124145  0  0  -0.253441  0  3.3992  0  0  -0.256642  0  3.402449  0  0  -0.310897  -0.252508  0  3.397504  0
N  N79  1  0.88498451  0.47263783  0.95541145  1  0  -0.290262  0  3.123917  0  0  -0.253186  0  3.398903  0  0  -0.25638  0  3.402152  0  0  -0.310882  -0.252273  0  3.397217  0
Cl  Cl80  1  0.52108011  0.27540852  0.65558523  1  0  -0.082894  0  1.339138  0  0  -0.066963  0  1.547879  0  0  -0.069881  0  1.543014  0  0  0.00034  -0.064811  0  1.551196  0
Cl  Cl81  1  0.47889250  0.72462335  0.34444854  1  0  -0.082781  0  1.339425  0  0  -0.066851  0  1.548167  0  0  -0.069773  0  1.543305  0  0  0.000374  -0.064702  0  1.551483  0
Cl  Cl82  1  0.47310278  0.83619899  0.77973789  1  0  -0.070684  0  1.353784  0  0  -0.053532  0  1.572741  0  0  -0.057053  0  1.568464  0  0  0.014982  -0.050505  0  1.575822  0
Cl  Cl83  1  0.52691710  0.16380612  0.22025156  1  0  -0.070628  0  1.35387  0  0  -0.053486  0  1.57281  0  0  -0.057018  0  1.568522  0  0  0.014989  -0.05046  0  1.575891  0
O  O84  1  0.35405193  0.48116946  0.19163495  1  0  -0.501314  0  2.19183  0  0  -0.459281  0  2.468878  0  0  -0.49021  0  2.460916  0  0  -0.292227  -0.438166  0  2.47323  0
O  O85  1  0.64597747  0.51882914  0.80836000  1  0  -0.500897  0  2.19192  0  0  -0.458933  0  2.468906  0  0  -0.489849  0  2.460927  0  0  -0.292085  -0.437823  0  2.473242  0
O  O86  1  0.61112965  0.45326041  0.13925861  1  0  -0.524301  0  2.236664  0  0  -0.473312  0  2.510179  0  0  -0.508016  0  2.508214  0  0  -0.294416  -0.449565  0  2.510402  0
O  O87  1  0.38889404  0.54671945  0.86073683  1  0  -0.524057  0  2.236872  0  0  -0.473221  0  2.510302  0  0  -0.507923  0  2.508337  0  0  -0.294497  -0.44948  0  2.510557  0
O  O88  1  0.21655237  0.39642000  0.38746265  1  0  -0.233232  0  2.376412  0  0  -0.15656  0  2.61428  0  0  -0.175645  0  2.617971  0  0  -0.17479  -0.143067  0  2.61103  0
O  O89  1  0.78345531  0.60355882  0.61254335  1  0  -0.233647  0  2.375008  0  0  -0.157105  0  2.61302  0  0  -0.176198  0  2.616695  0  0  -0.174869  -0.143588  0  2.609759  0
O  O90  1  0.37539762  0.35303154  0.98516553  1  0  -0.52104  0  2.225354  0  0  -0.470963  0  2.497842  0  0  -0.505392  0  2.495478  0  0  -0.29415  -0.447533  0  2.499035  0
O  O91  1  0.62459094  0.64697897  0.01484892  1  0  -0.520956  0  2.224935  0  0  -0.470809  0  2.497404  0  0  -0.505234  0  2.495036  0  0  -0.294052  -0.447378  0  2.49857  0
O  O92  1  0.63287425  0.32388705  0.93151144  1  0  -0.502498  0  2.205241  0  0  -0.460746  0  2.483403  0  0  -0.491347  0  2.475242  0  0  -0.292651  -0.439936  0  2.488465  0
O  O93  1  0.36711849  0.67613516  0.06846290  1  0  -0.502438  0  2.205339  0  0  -0.460595  0  2.48335  0  0  -0.491208  0  2.475204  0  0  -0.292519  -0.439784  0  2.48843  0
O  O94  1  0.75237112  0.11390964  0.91135427  1  0  -0.224542  0  2.377964  0  0  -0.145008  0  2.611098  0  0  -0.164041  0  2.615036  0  0  -0.171323  -0.131704  0  2.608029  0
O  O95  1  0.24762724  0.88608919  0.08865831  1  0  -0.224646  0  2.377468  0  0  -0.145185  0  2.610602  0  0  -0.164216  0  2.614538  0  0  -0.171332  -0.131881  0  2.607539  0
