# generated using pymatgen
data_CoH22C22S2(N4O3)2
_symmetry_space_group_name_H-M   'P 1'
_cell_length_a   8.14213538
_cell_length_b   9.69690321
_cell_length_c   9.70951391
_cell_angle_alpha   60.99565543
_cell_angle_beta   86.32969657
_cell_angle_gamma   75.26880547
_symmetry_Int_Tables_number   1
_chemical_formula_structural   CoH22C22S2(N4O3)2
_chemical_formula_sum   'Co1 H22 C22 S2 N8 O6'
_cell_volume   646.82263223
_cell_formula_units_Z   1
loop_
 _symmetry_equiv_pos_site_id
 _symmetry_equiv_pos_as_xyz
  1  'x, y, z'
loop_
 _atom_site_type_symbol
 _atom_site_label
 _atom_site_symmetry_multiplicity
 _atom_site_fract_x
 _atom_site_fract_y
 _atom_site_fract_z
 _atom_site_occupancy
 _atom_site_hle17_ddec_charge
 _atom_site_hle17_ddec_spin_density
 _atom_site_hle17_ddec_sum_bond_order
 _atom_site_hle17_magmom
 _atom_site_hse06_10hf_ddec_charge
 _atom_site_hse06_10hf_ddec_spin_density
 _atom_site_hse06_10hf_ddec_sum_bond_order
 _atom_site_hse06_10hf_magmom
 _atom_site_hse06_ddec_charge
 _atom_site_hse06_ddec_spin_density
 _atom_site_hse06_ddec_sum_bond_order
 _atom_site_hse06_magmom
 _atom_site_pbe_cm5_charge
 _atom_site_pbe_ddec_charge
 _atom_site_pbe_ddec_spin_density
 _atom_site_pbe_ddec_sum_bond_order
 _atom_site_pbe_magmom
Co  Co0  1  0.49999791  0.49999893  0.50000063  1  0.693765  -1.090921  2.432685  -1.022  0.666245  -1.037167  2.861135  -0.982  0.723054  -1.036657  2.80095  -0.987  0.690567  0.632583  -1.032518  2.901634  -0.972
H  H1  1  0.14223790  0.65193003  0.31034044  1  0.110884  1.8e-05  0.982764  0.0  0.116378  4.7e-05  1.047261  0.0  0.117953  4.5e-05  1.047375  0.0  0.114012  0.115374  3.6e-05  1.047102  0.0
H  H2  1  0.85776361  0.34807400  0.68965033  1  0.110803  1.9e-05  0.982899  0.0  0.11631  4.7e-05  1.047385  0.0  0.117883  4.5e-05  1.047504  0.0  0.113968  0.11534  3.6e-05  1.047192  0.0
H  H3  1  0.97458790  0.45280098  0.27263945  1  0.103483  0.00018  0.991092  0.0  0.109231  0.000104  1.058152  0.0  0.111159  8.8e-05  1.058362  0.0  0.113679  0.107811  9.4e-05  1.05815  0.0
H  H4  1  0.02541276  0.54720180  0.72734786  1  0.103452  0.000175  0.991191  0.0  0.109195  0.000103  1.058248  0.0  0.11112  8.9e-05  1.058454  0.0  0.113666  0.107776  9.4e-05  1.058244  0.0
H  H5  1  0.38983041  0.21246362  0.79566703  1  0.095048  3.4e-05  0.949675  0.0  0.10071  0.000103  1.019406  0.0  0.102649  6.4e-05  1.016619  0.0  0.13602  0.098912  0.000139  1.021959  0.0
H  H6  1  0.61016874  0.78753552  0.20433551  1  0.095073  3.4e-05  0.949631  0.0  0.100738  0.000103  1.019359  0.0  0.102677  6.4e-05  1.016571  0.0  0.13602  0.098943  0.000139  1.02191  0.0
H  H7  1  0.90069795  0.07033263  0.33226389  1  0.121258  -2e-06  0.984056  0.0  0.127082  -1.7e-05  1.050559  0.0  0.130828  -1.3e-05  1.047885  0.0  0.105851  0.12389  -2.8e-05  1.053148  0.0
H  H8  1  0.09930420  0.92966900  0.66773523  1  0.121253  -2e-06  0.98405  0.0  0.127081  -1.7e-05  1.050545  0.0  0.130826  -1.3e-05  1.047872  0.0  0.105858  0.123884  -2.8e-05  1.053132  0.0
H  H9  1  0.64803140  0.10843243  0.93495612  1  0.093608  0.000125  0.995034  0.0  0.100125  8.4e-05  1.064895  0.0  0.103396  6.9e-05  1.062617  0.0  0.100417  0.097463  0.000106  1.067216  0.0
H  H10  1  0.35197074  0.89156920  0.06504403  1  0.093588  0.000125  0.99507  0.0  0.100112  8.4e-05  1.064932  0.0  0.103383  6.8e-05  1.062655  0.0  0.100412  0.097454  0.000106  1.067253  0.0
H  H11  1  0.35500735  0.69792185  0.68315361  1  0.109591  2.6e-05  0.96641  0.0  0.114538  4.7e-05  1.033828  0.0  0.116662  3.4e-05  1.032548  0.0  0.118006  0.113008  5.5e-05  1.035087  0.0
H  H12  1  0.64499179  0.30207730  0.31684996  1  0.109598  2.6e-05  0.966438  0.0  0.114545  4.7e-05  1.033857  0.0  0.116667  3.4e-05  1.032574  0.0  0.117987  0.113015  5.5e-05  1.035119  0.0
H  H13  1  0.63347013  0.13830239  0.17286198  1  0.102884  -2e-05  0.947471  0.0  0.114126  -1.9e-05  1.003808  0.0  0.117561  -1.3e-05  1.002356  0.0  0.102933  0.11155  -1.7e-05  1.004887  0.0
H  H14  1  0.36653570  0.86169929  0.82713796  1  0.102839  -2e-05  0.947476  0.0  0.114088  -1.9e-05  1.00381  0.0  0.117521  -1.3e-05  1.002351  0.0  0.102927  0.111514  -1.7e-05  1.004889  0.0
H  H15  1  0.17886451  0.16444104  0.41737842  1  0.31018  0.000104  0.933512  0.0  0.290586  8.5e-05  0.993603  0.0  0.298329  7.2e-05  0.987766  0.0  0.310288  0.284633  2.5e-05  0.998322  0.0
H  H16  1  0.82113398  0.83556052  0.58261783  1  0.310197  0.000105  0.933488  0.0  0.290615  8.5e-05  0.993581  0.0  0.298359  7.2e-05  0.987742  0.0  0.310289  0.284666  2.5e-05  0.998294  0.0
H  H17  1  0.30163449  0.23580761  0.04069009  1  0.312961  9.6e-05  0.928613  0.0  0.294704  8.4e-05  0.987819  0.0  0.302631  7.1e-05  0.981579  0.0  0.310218  0.288908  2.6e-05  0.992331  0.0
H  H18  1  0.69836411  0.76418908  0.95931470  1  0.313048  9.5e-05  0.928566  0.0  0.294725  8.4e-05  0.987865  0.0  0.302651  7.1e-05  0.981629  0.0  0.310231  0.288927  2.6e-05  0.992376  0.0
H  H19  1  0.25831229  0.53095706  0.99015677  1  0.107839  0.000158  0.963234  0.0  0.114664  6.5e-05  1.02686  0.0  0.116647  5.9e-05  1.02739  0.0  0.11938  0.113627  6.8e-05  1.026117  0.0
H  H20  1  0.74168508  0.46903962  0.00985015  1  0.107887  0.000158  0.963225  0.0  0.114704  6.5e-05  1.026856  0.0  0.116689  5.9e-05  1.027385  0.0  0.119389  0.113666  6.8e-05  1.026114  0.0
H  H21  1  0.43955136  0.16516137  0.54470970  1  0.090191  -1.2e-05  0.96849  0.0  0.093719  3.9e-05  1.040988  0.0  0.096466  2.7e-05  1.036896  0.0  0.130653  0.091744  5.2e-05  1.043567  0.0
H  H22  1  0.56044343  0.83484016  0.45529189  1  0.090185  -1.2e-05  0.96849  0.0  0.093739  3.9e-05  1.040951  0.0  0.096486  2.7e-05  1.03686  0.0  0.130659  0.091764  5.2e-05  1.043526  0.0
C  C23  1  0.90692870  0.05734356  0.22665805  1  -0.070406  -0.000167  3.756413  0.0  -0.100727  -0.000299  4.009929  0.0  -0.098456  -0.000217  4.028285  0.0  -0.090023  -0.10163  -0.000434  3.997434  -0.001
C  C24  1  0.09307469  0.94265807  0.77333895  1  -0.070325  -0.000167  3.756069  0.0  -0.100595  -0.0003  4.009612  0.0  -0.09832  -0.000215  4.027963  0.0  -0.089957  -0.101486  -0.000434  3.997104  -0.001
C  C25  1  0.76449231  0.07807538  0.00362950  1  -0.098114  -9.2e-05  3.725702  0.0  -0.124208  -0.000148  3.980918  0.0  -0.124105  -9.4e-05  3.998946  0.0  -0.089111  -0.123892  -0.000237  3.96817  0.0
C  C26  1  0.23551142  0.92192504  0.99636910  1  -0.098118  -9.1e-05  3.725858  0.0  -0.124213  -0.000148  3.981067  0.0  -0.124112  -9.4e-05  3.999097  0.0  -0.089085  -0.1239  -0.000237  3.968326  0.0
C  C27  1  0.36740783  0.32287406  0.80442883  1  0.20514  0.010422  3.637529  0.007  0.149999  0.004517  3.911311  0.003  0.165729  0.003549  3.922783  0.002  0.141908  0.139469  0.005396  3.903708  0.004
C  C28  1  0.63259043  0.67712385  0.19557538  1  0.20514  0.010392  3.637609  0.007  0.149968  0.004518  3.911395  0.003  0.165707  0.003547  3.92287  0.002  0.14195  0.139424  0.005396  3.903792  0.004
C  C29  1  0.75683381  0.09621472  0.13624207  1  -0.057193  5.6e-05  3.75074  0.0  -0.06836  1.3e-05  4.004367  0.0  -0.071115  2.9e-05  4.023729  0.0  -0.089838  -0.066141  -1.5e-05  3.990279  0.0
C  C30  1  0.24317131  0.90378941  0.86375877  1  -0.057155  5.7e-05  3.750743  0.0  -0.068333  1.2e-05  4.00437  0.0  -0.071078  2.9e-05  4.023724  0.0  -0.089886  -0.066119  -1.5e-05  3.99029  0.0
C  C31  1  0.34947533  0.57215266  0.75294743  1  -0.014859  0.005085  3.719847  0.004  -0.047652  0.002389  3.991575  0.002  -0.044626  0.002018  4.01119  0.001  -0.003602  -0.050151  0.002774  3.979563  0.002
C  C32  1  0.65052237  0.42784280  0.24706007  1  -0.014842  0.005078  3.719815  0.004  -0.047643  0.00239  3.991521  0.002  -0.044604  0.002016  4.011133  0.001  -0.003561  -0.050155  0.002774  3.979514  0.002
C  C33  1  0.29911168  0.49155607  0.90354074  1  -0.029387  -0.000949  3.719737  -0.001  -0.063601  8e-06  3.9794  0.0  -0.062486  -7.2e-05  3.99842  0.0  -0.004125  -0.064695  1.4e-05  3.967277  0.0
C  C34  1  0.70088851  0.50843940  0.09646147  1  -0.029374  -0.000945  3.719613  -0.001  -0.063585  8e-06  3.97927  0.0  -0.062469  -7.2e-05  3.998288  0.0  -0.004115  -0.064673  1.4e-05  3.967148  0.0
C  C35  1  0.33823996  0.27241019  0.47543640  1  0.188803  0.007173  3.655412  0.005  0.135283  0.003555  3.928955  0.002  0.149318  0.002842  3.941574  0.002  0.134745  0.125689  0.004002  3.920101  0.003
C  C36  1  0.66175798  0.72758892  0.52456415  1  0.188797  0.007152  3.655642  0.005  0.135328  0.003554  3.929197  0.002  0.149351  0.002842  3.941814  0.002  0.134811  0.125735  0.004001  3.920334  0.003
C  C37  1  0.09617691  0.42537005  0.33196948  1  -0.0171  -0.000478  3.710933  -0.001  -0.048975  9.5e-05  3.964337  0.0  -0.047402  -2e-06  3.983004  0.0  -0.00405  -0.050361  0.000111  3.952104  0.0
C  C38  1  0.90382739  0.57463281  0.66802378  1  -0.017043  -0.000429  3.710806  -0.001  -0.04888  9.6e-05  3.964197  0.0  -0.0473  -2e-06  3.982858  0.0  -0.003983  -0.050275  0.000112  3.951975  0.0
C  C39  1  0.17927300  0.52220461  0.35174691  1  -0.015207  0.003797  3.713257  0.003  -0.046908  0.001898  3.980463  0.002  -0.044217  0.001632  4.000352  0.001  -0.007333  -0.04905  0.002163  3.967522  0.002
C  C40  1  0.82072513  0.47778957  0.64824882  1  -0.015183  0.003732  3.713118  0.003  -0.046864  0.001896  3.980355  0.002  -0.044182  0.001632  4.000237  0.001  -0.007314  -0.049032  0.002164  3.967386  0.002
C  C41  1  0.07721205  0.97946204  0.04572521  1  0.054263  -5e-06  3.756208  0.0  0.065093  -7.1e-05  3.979433  0.0  0.065458  -3.2e-05  4.003751  0.0  -0.002819  0.064753  -8.9e-05  3.962929  0.0
C  C42  1  0.92279099  0.02054082  0.95427224  1  0.054232  5e-06  3.756363  0.0  0.065118  -7.1e-05  3.979622  0.0  0.065485  -3.3e-05  4.003939  0.0  -0.002852  0.064766  -8.9e-05  3.963129  0.0
C  C43  1  0.06277403  0.99927670  0.18311184  1  -0.171621  -0.001208  3.721977  -0.002  -0.148601  -0.001066  3.967912  -0.002  -0.156265  -0.000805  3.989024  -0.001  -0.022759  -0.143698  -0.00141  3.953333  -0.002
C  C44  1  0.93722988  0.00072740  0.81688702  1  -0.171622  -0.001215  3.721937  -0.002  -0.148768  -0.001065  3.968086  -0.002  -0.156438  -0.000807  3.9892  -0.001  -0.022802  -0.143866  -0.00141  3.953506  -0.002
S  S45  1  0.24716597  0.94348858  0.30747623  1  1.287804  -0.001941  5.66173  -0.004  1.189539  -0.002624  6.184537  -0.005  1.237606  -0.001996  6.160034  -0.005  0.512807  1.15694  -0.003428  6.19928  -0.006
S  S46  1  0.75283563  0.05651059  0.69252515  1  1.287803  -0.00194  5.661739  -0.004  1.189593  -0.002627  6.184541  -0.005  1.237664  -0.001995  6.160032  -0.005  0.512827  1.156996  -0.003428  6.199277  -0.006
N  N47  1  0.39324168  0.46494287  0.69307929  1  -0.301782  0.01427  3.377249  0.01  -0.261485  0.009555  3.682693  0.008  -0.286604  0.009598  3.699034  0.008  -0.360582  -0.245343  0.00867  3.671712  0.007
N  N48  1  0.60675747  0.53505627  0.30692325  1  -0.301853  0.014285  3.377375  0.01  -0.261494  0.009554  3.68276  0.008  -0.286631  0.0096  3.699114  0.008  -0.36063  -0.245326  0.00867  3.671756  0.007
N  N49  1  0.31056828  0.33513044  0.93317470  1  -0.286984  0.001265  3.456416  0.001  -0.219322  0.001067  3.687597  0.001  -0.235077  0.000746  3.701926  0.0  -0.383141  -0.2085  0.001249  3.677873  0.001
N  N50  1  0.68942963  0.66486869  0.06682894  1  -0.287081  0.001273  3.456502  0.001  -0.219368  0.001066  3.687736  0.001  -0.23513  0.000749  3.702072  0.0  -0.383152  -0.208544  0.001249  3.678011  0.001
N  N51  1  0.19827915  0.26904932  0.41083015  1  -0.276739  0.001354  3.475236  0.001  -0.209929  0.001103  3.705793  0.001  -0.225539  0.000809  3.721396  0.001  -0.3823  -0.199439  0.00132  3.695325  0.001
N  N52  1  0.80171846  0.73095100  0.58916674  1  -0.27673  0.001337  3.475351  0.001  -0.209989  0.001104  3.705951  0.001  -0.225599  0.000808  3.721554  0.001  -0.382324  -0.199502  0.001319  3.695482  0.001
N  N53  1  0.33073807  0.42520712  0.44168492  1  -0.305238  0.015606  3.372043  0.011  -0.263287  0.009993  3.67448  0.008  -0.288767  0.009991  3.692427  0.008  -0.35823  -0.246793  0.009233  3.662905  0.007
N  N54  1  0.66925605  0.57479683  0.55831245  1  -0.305146  0.015619  3.372063  0.011  -0.263312  0.009996  3.674599  0.008  -0.288761  0.009991  3.692525  0.008  -0.358278  -0.246817  0.009235  3.663024  0.007
O  O55  1  0.18716359  0.97589988  0.43765510  1  -0.65636  -0.000109  2.013332  0.0  -0.602512  -0.000215  2.259418  -0.001  -0.622433  -0.000121  2.245108  0.0  -0.332487  -0.588223  -0.000213  2.268724  0.0
O  O56  1  0.81283522  0.02410048  0.56234686  1  -0.656364  -0.00011  2.013417  0.0  -0.602494  -0.000216  2.259474  -0.001  -0.622415  -0.000122  2.24516  0.0  -0.332477  -0.588207  -0.000213  2.268775  0.0
O  O57  1  0.32434092  0.77019208  0.36131499  1  -0.654602  -0.008852  2.078807  -0.011  -0.605619  -0.011237  2.357882  -0.013  -0.628403  -0.009666  2.341509  -0.011  -0.31661  -0.58998  -0.012741  2.368879  -0.015
O  O58  1  0.67565755  0.22980949  0.63868434  1  -0.654634  -0.008853  2.078774  -0.011  -0.605668  -0.011235  2.357866  -0.013  -0.628457  -0.009667  2.341497  -0.011  -0.316646  -0.590031  -0.012741  2.368867  -0.015
O  O59  1  0.36025318  0.04677162  0.20942410  1  -0.685258  -0.000449  1.965985  -0.001  -0.63774  -0.00057  2.21636  -0.001  -0.658459  -0.000384  2.202561  -0.001  -0.349205  -0.622193  -0.000663  2.224748  -0.001
O  O60  1  0.63974808  0.95322878  0.79057772  1  -0.685277  -0.000445  1.966059  -0.001  -0.637747  -0.00057  2.216425  -0.001  -0.658464  -0.000384  2.202619  -0.001  -0.349197  -0.6222  -0.000663  2.22481  -0.001
