# generated using pymatgen
data_CdH4(CN2)5
_symmetry_space_group_name_H-M   'P 1'
_cell_length_a   3.65137303
_cell_length_b   11.46881353
_cell_length_c   12.02273135
_cell_angle_alpha   70.14256012
_cell_angle_beta   81.75181281
_cell_angle_gamma   87.13013972
_symmetry_Int_Tables_number   1
_chemical_formula_structural   CdH4(CN2)5
_chemical_formula_sum   'Cd2 H8 C10 N20'
_cell_volume   468.63985086
_cell_formula_units_Z   2
loop_
 _symmetry_equiv_pos_site_id
 _symmetry_equiv_pos_as_xyz
  1  'x, y, z'
loop_
 _atom_site_type_symbol
 _atom_site_label
 _atom_site_symmetry_multiplicity
 _atom_site_fract_x
 _atom_site_fract_y
 _atom_site_fract_z
 _atom_site_occupancy
 _atom_site_hle17_bader_spin_density
 _atom_site_hle17_ddec_charge
 _atom_site_hle17_ddec_spin_density
 _atom_site_hle17_ddec_sum_bond_order
 _atom_site_hle17_magmom
 _atom_site_hse06_10hf_bader_spin_density
 _atom_site_hse06_10hf_ddec_charge
 _atom_site_hse06_10hf_ddec_spin_density
 _atom_site_hse06_10hf_ddec_sum_bond_order
 _atom_site_hse06_10hf_magmom
 _atom_site_hse06_bader_spin_density
 _atom_site_hse06_ddec_charge
 _atom_site_hse06_ddec_spin_density
 _atom_site_hse06_ddec_sum_bond_order
 _atom_site_hse06_magmom
 _atom_site_pbe_bader_spin_density
 _atom_site_pbe_cm5_charge
 _atom_site_pbe_ddec_charge
 _atom_site_pbe_ddec_spin_density
 _atom_site_pbe_ddec_sum_bond_order
 _atom_site_pbe_magmom
Cd  Cd0  1  0.32011515  0.50015012  0.36516786  1  0  1.073755  0  1.8604  0  0  0.89921  0  2.317876  0  0  0.943317  0  2.282268  0  0  0.793097  0.868153  0  2.341826  0
Cd  Cd1  1  0.67989183  0.49984900  0.63483182  1  0  1.073734  0  1.860403  0  0  0.89919  0  2.317884  0  0  0.943302  0  2.282275  0  0  0.793091  0.868137  0  2.341836  0
H  H2  1  0.09164669  0.52567412  0.09173723  1  0  0.096116  0  0.956694  0  0  0.099398  0  1.028356  0  0  0.102083  0  1.024956  0  0  0.132193  0.097407  0  1.030806  0
H  H3  1  0.90836024  0.47432686  0.90826187  1  0  0.096153  0  0.956714  0  0  0.099413  0  1.028392  0  0  0.102096  0  1.024995  0  0  0.132192  0.097426  0  1.030832  0
H  H4  1  0.75825753  0.00558673  0.39853549  1  0  0.089272  0  0.934795  0  0  0.096655  0  0.999954  0  0  0.099055  0  0.996677  0  0  0.120532  0.094954  0  1.00213  0
H  H5  1  0.24174378  0.99441607  0.60146493  1  0  0.089271  0  0.934831  0  0  0.096639  0  0.999997  0  0  0.099038  0  0.996721  0  0  0.120524  0.094939  0  1.002173  0
H  H6  1  0.71156185  0.96467292  0.20889918  1  0  0.128445  0  0.977731  0  0  0.132941  0  1.042727  0  0  0.135935  0  1.043175  0  0  0.11247  0.130699  0  1.042923  0
H  H7  1  0.28842853  0.03532430  0.79110346  1  0  0.128481  0  0.977715  0  0  0.132948  0  1.042745  0  0  0.13594  0  1.043196  0  0  0.112458  0.130706  0  1.042944  0
H  H8  1  0.44835777  0.13587808  0.03991177  1  0  0.123335  0  0.943894  0  0  0.128674  0  1.012408  0  0  0.131764  0  1.008644  0  0  0.135767  0.126564  0  1.014638  0
H  H9  1  0.55164086  0.86412195  0.96008881  1  0  0.123367  0  0.943737  0  0  0.128648  0  1.012316  0  0  0.131736  0  1.008553  0  0  0.135765  0.126541  0  1.014541  0
C  C10  1  0.20465844  0.43313113  0.12788626  1  0  0.230244  0  3.718292  0  0  0.174484  0  4.016383  0  0  0.189339  0  4.028212  0  0  0.150411  0.16496  0  4.007998  0
C  C11  1  0.79535129  0.56686987  0.87211105  1  0  0.230199  0  3.71824  0  0  0.17446  0  4.016336  0  0  0.189314  0  4.028169  0  0  0.150442  0.164938  0  4.007952  0
C  C12  1  0.42885787  0.27146149  0.24886385  1  0  0.449271  0  3.804554  0  0  0.392607  0  4.083147  0  0  0.412538  0  4.095152  0  0  0.332606  0.379629  0  4.074665  0
C  C13  1  0.57114354  0.72853948  0.75113465  1  0  0.44934  0  3.804558  0  0  0.392672  0  4.083154  0  0  0.412602  0  4.09516  0  0  0.332636  0.379694  0  4.074674  0
C  C14  1  0.65279425  0.07770150  0.32451821  1  0  0.17963  0  3.669005  0  0  0.142319  0  3.942063  0  0  0.155012  0  3.954876  0  0  0.06942  0.134441  0  3.932916  0
C  C15  1  0.34718777  0.92229848  0.67548307  1  0  0.179555  0  3.669078  0  0  0.142277  0  3.942114  0  0  0.154973  0  3.954924  0  0  0.069403  0.1344  0  3.932965  0
C  C16  1  0.62522612  0.05341816  0.21829857  1  0  -0.174776  0  3.726455  0  0  -0.188172  0  3.991638  0  0  -0.201115  0  4.015087  0  0  -0.082523  -0.180013  0  3.975951  0
C  C17  1  0.37475322  0.94657810  0.78170483  1  0  -0.174778  0  3.726442  0  0  -0.188163  0  3.991596  0  0  -0.2011  0  4.015039  0  0  -0.082485  -0.180003  0  3.975912  0
C  C18  1  0.48741655  0.14331324  0.12541647  1  0  0.108023  0  3.59683  0  0  0.047544  0  3.851831  0  0  0.0575  0  3.866226  0  0  0.07103  0.041766  0  3.841547  0
C  C19  1  0.51256827  0.85668676  0.87458386  1  0  0.107997  0  3.596661  0  0  0.04758  0  3.851659  0  0  0.057537  0  3.866053  0  0  0.071024  0.041805  0  3.841372  0
N  N20  1  0.24141342  0.35480742  0.06629051  1  0  -0.281362  0  2.820022  0  0  -0.286471  0  3.096902  0  0  -0.297987  0  3.111256  0  0  -0.227251  -0.278533  0  3.087177  0
N  N21  1  0.75859353  0.64519357  0.93370775  1  0  -0.281355  0  2.819911  0  0  -0.286483  0  3.0968  0  0  -0.297997  0  3.11115  0  0  -0.227278  -0.278537  0  3.087066  0
N  N22  1  0.31407992  0.38805851  0.23782534  1  0  -0.49218  0  3.151062  0  0  -0.422727  0  3.444  0  0  -0.446981  0  3.455462  0  0  -0.35374  -0.406305  0  3.435662  0
N  N23  1  0.68593251  0.61194434  0.76217210  1  0  -0.49217  0  3.151055  0  0  -0.422732  0  3.444003  0  0  -0.446986  0  3.455468  0  0  -0.35375  -0.406312  0  3.435672  0
N  N24  1  0.56017361  0.18557207  0.34023049  1  0  -0.373524  0  3.012397  0  0  -0.341557  0  3.294943  0  0  -0.357487  0  3.307082  0  0  -0.308742  -0.331074  0  3.28648  0
N  N25  1  0.43982227  0.81442889  0.65976824  1  0  -0.373572  0  3.012464  0  0  -0.34161  0  3.294991  0  0  -0.357543  0  3.307135  0  0  -0.308773  -0.331125  0  3.286527  0
N  N26  1  0.38605243  0.25204069  0.14316719  1  0  -0.001907  0  3.622878  0  0  0.117618  0  3.799514  0  0  0.106765  0  3.823682  0  0  -0.109851  0.123718  0  3.784568  0
N  N27  1  0.61394064  0.74796025  0.85683333  1  0  -0.0019  0  3.622709  0  0  0.117646  0  3.799315  0  0  0.106793  0  3.82348  0  0  -0.109821  0.123739  0  3.78438  0
N  N28  1  0.77160179  0.39179005  0.48906538  1  0  -0.686128  0  2.837969  0  0  -0.619619  0  3.15559  0  0  -0.650262  0  3.162007  0  0  -0.356649  -0.598416  0  3.150758  0
N  N29  1  0.22839963  0.60820999  0.51093424  1  0  -0.686132  0  2.837961  0  0  -0.619636  0  3.155595  0  0  -0.650283  0  3.162024  0  0  -0.356648  -0.598437  0  3.150767  0
N  N30  1  0.80478493  0.28016233  0.53832877  1  0  0.418471  0  4.1818  0  0  0.439174  0  4.476474  0  0  0.456196  0  4.504424  0  0  0.090312  0.427617  0  4.457645  0
N  N31  1  0.19521374  0.71983678  0.46167127  1  0  0.418513  0  4.181732  0  0  0.43922  0  4.476404  0  0  0.456239  0  4.504369  0  0  0.090326  0.427663  0  4.457572  0
N  N32  1  0.84233603  0.17536613  0.58665395  1  0  -0.290474  0  2.39453  0  0  -0.295292  0  2.63039  0  0  -0.301036  0  2.640787  0  0  -0.135714  -0.291363  0  2.623688  0
N  N33  1  0.15766260  0.82463390  0.41334663  1  0  -0.290496  0  2.394446  0  0  -0.295313  0  2.630304  0  0  -0.301044  0  2.640687  0  0  -0.135718  -0.29138  0  2.623598  0
N  N34  1  0.84108408  0.62391054  0.26913915  1  0  -0.638688  0  2.764584  0  0  -0.590854  0  3.072693  0  0  -0.617494  0  3.080318  0  0  -0.341457  -0.572405  0  3.067121  0
N  N35  1  0.15892015  0.37608858  0.73085982  1  0  -0.638657  0  2.764583  0  0  -0.590809  0  3.072703  0  0  -0.617449  0  3.080323  0  0  -0.341436  -0.572361  0  3.067135  0
N  N36  1  0.87095145  0.72395414  0.19113955  1  0  0.416815  0  4.227323  0  0  0.44938  0  4.50804  0  0  0.465816  0  4.537302  0  0  0.089038  0.438271  0  4.488202  0
N  N37  1  0.12904994  0.27604683  0.80885979  1  0  0.416785  0  4.227264  0  0  0.449326  0  4.508016  0  0  0.465761  0  4.537273  0  0  0.089016  0.438216  0  4.488182  0
N  N38  1  0.90365663  0.82029601  0.11580958  1  0  -0.374333  0  2.406585  0  0  -0.375289  0  2.629193  0  0  -0.382942  0  2.638335  0  0  -0.180959  -0.370063  0  2.623244  0
N  N39  1  0.09634756  0.17970310  0.88419106  1  0  -0.374342  0  2.406552  0  0  -0.375296  0  2.629185  0  0  -0.382946  0  2.638327  0  0  -0.180959  -0.370056  0  2.623228  0
