# generated using pymatgen
data_ZnH16C24N2(O4F)2
_symmetry_space_group_name_H-M   'P 1'
_cell_length_a   10.53345565
_cell_length_b   11.80139925
_cell_length_c   23.62364633
_cell_angle_alpha   90.34560667
_cell_angle_beta   90.01006165
_cell_angle_gamma   89.91895692
_symmetry_Int_Tables_number   1
_chemical_formula_structural   ZnH16C24N2(O4F)2
_chemical_formula_sum   'Zn2 H32 C48 N4 O16 F4'
_cell_volume   2936.58762746
_cell_formula_units_Z   2
loop_
 _symmetry_equiv_pos_site_id
 _symmetry_equiv_pos_as_xyz
  1  'x, y, z'
loop_
 _atom_site_type_symbol
 _atom_site_label
 _atom_site_symmetry_multiplicity
 _atom_site_fract_x
 _atom_site_fract_y
 _atom_site_fract_z
 _atom_site_occupancy
 _atom_site_pbe_bader_charge
 _atom_site_pbe_bader_spin_density
 _atom_site_pbe_cm5_charge
 _atom_site_pbe_ddec_charge
 _atom_site_pbe_ddec_spin_density
 _atom_site_pbe_ddec_sum_bond_order
 _atom_site_pbe_magmom
Zn  Zn0  1  0.38150572  0.49965972  0.50128874  1  1.297217  0  0.694916  0.866652  0  2.456316  0
Zn  Zn1  1  0.63827188  0.49774743  0.50121324  1  1.299219  0  0.691806  0.864895  0  2.461683  0
H  H2  1  0.48275567  0.78237350  0.05429360  1  0.114567  0  0.120828  0.126082  0  0.973408  0
H  H3  1  0.51934899  0.21117549  0.94843871  1  0.118086  0  0.120885  0.126075  0  0.972974  0
H  H4  1  0.53853406  0.21410157  0.05522820  1  0.11759  0  0.120505  0.125532  0  0.972973  0
H  H5  1  0.50221460  0.78132698  0.94747570  1  0.111973  0  0.120499  0.125709  0  0.973169  0
H  H6  1  0.72256808  0.23729615  0.61731247  1  0.064277  0  0.103912  0.07829  0  0.95966  0
H  H7  1  0.55960132  0.26768593  0.62959581  1  0.053425  0  0.095978  0.064084  0  0.988408  0
H  H8  1  0.73826372  0.15068761  0.71387306  1  0.058738  0  0.093704  0.090672  0  0.968126  0
H  H9  1  0.57626797  0.18062003  0.72642312  1  0.012294  0  0.09303  0.093517  0  0.972501  0
H  H10  1  0.51398404  0.05334459  0.64422943  1  0.029709  0  0.082916  0.105809  0  1.024528  0
H  H11  1  0.60443793  0.97788586  0.69494939  1  0.031582  0  0.090462  0.120612  0  0.994213  0
H  H12  1  0.67646472  0.02322793  0.63107312  1  0.020138  0  0.083408  0.106349  0  1.008294  0
H  H13  1  0.69162775  0.77960484  0.38321516  1  0.054788  0  0.103852  0.078205  0  0.961715  0
H  H14  1  0.53236743  0.73750763  0.36958912  1  0.043163  0  0.094974  0.061759  0  0.98972  0
H  H15  1  0.70595384  0.85906183  0.28497460  1  0.030397  0  0.094208  0.092151  0  0.967127  0
H  H16  1  0.54742107  0.81825940  0.27145429  1  0.033145  0  0.092873  0.093982  0  0.974104  0
H  H17  1  0.47109886  0.94768787  0.35051674  1  0.00663  0  0.08233  0.104062  0  1.018214  0
H  H18  1  0.55721928  0.02422842  0.29871324  1  0.040806  0  0.090682  0.121402  0  0.996053  0
H  H19  1  0.63000926  0.98946398  0.36412293  1  0.008761  0  0.082836  0.105673  0  1.011895  0
H  H20  1  0.43738516  0.74207676  0.64833678  1  0.029602  0  0.09595  0.062496  0  0.971432  0
H  H21  1  0.35205703  0.76362726  0.71308802  1  0.063349  0  0.097377  0.061505  0  0.979517  0
H  H22  1  0.23259824  0.73930413  0.59520037  1  0.043205  0  0.086592  0.084861  0  0.996838  0
H  H23  1  0.14797053  0.76435015  0.65917362  1  0.044115  0  0.092487  0.086178  0  0.968738  0
H  H24  1  0.26573804  0.95234909  0.67059773  1  0.027788  0  0.086669  0.112407  0  0.999799  0
H  H25  1  0.17738011  0.94666043  0.60669271  1  0.020765  0  0.087172  0.115353  0  0.998468  0
H  H26  1  0.34403054  0.92586582  0.60516288  1  0.042511  0  0.081225  0.104169  0  1.036338  0
H  H27  1  0.46879995  0.24852685  0.35665083  1  0.044698  0  0.094692  0.059832  0  0.981262  0
H  H28  1  0.39406917  0.22010232  0.28990760  1  0.066805  0  0.097136  0.06038  0  0.988393  0
H  H29  1  0.31357359  0.10140941  0.37126608  1  0.00476  0  0.091885  0.081556  0  0.989545  0
H  H30  1  0.25971242  0.22594010  0.40509590  1  0.052659  0  0.087697  0.087622  0  0.992896  0
H  H31  1  0.11253157  0.26323987  0.32104973  1  0.023288  0  0.085876  0.116203  0  1.005827  0
H  H32  1  0.07928177  0.13079180  0.35326750  1  0.029153  0  0.083509  0.108147  0  1.006541  0
H  H33  1  0.16614246  0.13561178  0.28894329  1  0.013236  0  0.085677  0.111617  0  1.000601  0
C  C34  1  0.51113289  0.71718494  0.50524086  1  1.686334  0  0.221656  0.649091  0  4.264001  0
C  C35  1  0.50908142  0.28050398  0.49233963  1  1.733954  0  0.223403  0.651708  0  4.262504  0
C  C36  1  0.50890721  0.48496699  0.60913946  1  1.627619  0  0.222871  0.634684  0  4.148366  0
C  C37  1  0.50747572  0.51142222  0.39320899  1  1.546251  0  0.223479  0.637618  0  4.149471  0
C  C38  1  0.53265732  0.39456878  0.12362702  1  1.364463  0  0.246679  0.44312  0  4.081586  0
C  C39  1  0.51976207  0.60142037  0.87915000  1  1.348795  0  0.246466  0.443006  0  4.078834  0
C  C40  1  0.48581145  0.60436893  0.12304401  1  1.316242  0  0.246772  0.441575  0  4.080011  0
C  C41  1  0.49940812  0.38828362  0.87965612  1  1.326796  0  0.24608  0.440537  0  4.080165  0
C  C42  1  0.49768386  0.60237344  0.06059646  1  -0.01556  0  -2.4e-05  -0.052165  0  3.974442  0
C  C43  1  0.51111619  0.39149660  0.94210367  1  -0.012911  0  -9.9e-05  -0.05297  0  3.97575  0
C  C44  1  0.52205815  0.39426177  0.06106072  1  -0.058416  0  7.9e-05  -0.056177  0  3.976559  0
C  C45  1  0.50900583  0.60067959  0.94169289  1  -0.058867  0  -0.000537  -0.057054  0  3.979022  0
C  C46  1  0.50994810  0.49774464  0.03151008  1  0.031309  0  0.006945  0.033893  0  3.994661  0
C  C47  1  0.51005845  0.49665383  0.97121359  1  0.038893  0  0.007365  0.034772  0  3.994837  0
C  C48  1  0.49285167  0.70329382  0.03065021  1  0.008072  0  -0.058731  -0.066506  0  3.922735  0
C  C49  1  0.51921580  0.29078470  0.97206508  1  -0.004488  0  -0.058623  -0.065885  0  3.92237  0
C  C50  1  0.52801011  0.29233924  0.03139792  1  -0.011615  0  -0.05886  -0.064382  0  3.923302  0
C  C51  1  0.50181877  0.70257613  0.97132859  1  -0.010806  0  -0.058116  -0.063746  0  3.924666  0
C  C52  1  0.60207295  0.43105679  0.76172417  1  0.442541  0  0.097335  0.127899  0  4.056685  0
C  C53  1  0.59398075  0.57191088  0.24080089  1  0.574532  0  0.097775  0.129476  0  4.058907  0
C  C54  1  0.41652304  0.54894425  0.76076575  1  0.46119  0  0.095084  0.124317  0  4.058314  0
C  C55  1  0.42337901  0.43737554  0.24197348  1  0.484668  0  0.095952  0.125422  0  4.061347  0
C  C56  1  0.60088455  0.42304846  0.70265730  1  0.696411  0  0.077387  0.137723  0  4.092513  0
C  C57  1  0.59185728  0.58029451  0.29980924  1  0.588597  0  0.075347  0.133093  0  4.098459  0
C  C58  1  0.41463688  0.54761223  0.70153786  1  0.692459  0  0.075429  0.132724  0  4.096707  0
C  C59  1  0.42176383  0.43879490  0.30120350  1  0.676946  0  0.074527  0.127936  0  4.102379  0
C  C60  1  0.50732600  0.48361537  0.67260514  1  -0.068374  0  -0.02267  -0.195185  0  3.94878  0
C  C61  1  0.50596722  0.51166630  0.32974912  1  0.060075  0  -0.020945  -0.19018  0  3.955944  0
C  C62  1  0.51001244  0.49245289  0.79159751  1  0.522726  0  0.072655  -0.002431  0  4.093224  0
C  C63  1  0.50952580  0.50214733  0.21109538  1  0.452644  0  0.071564  -0.005019  0  4.094461  0
C  C64  1  0.50789049  0.83860851  0.50087627  1  0.089643  0  -0.006978  -0.137037  0  3.870609  0
C  C65  1  0.50708010  0.15870202  0.48997514  1  0.131385  0  -0.006484  -0.135836  0  3.869216  0
C  C66  1  0.50655437  0.94162730  0.49588097  1  -0.188213  0  -0.010068  0.018889  0  4.260203  0
C  C67  1  0.50607641  0.05526499  0.49197843  1  -0.325436  0  -0.011302  0.01869  0  4.259096  0
C  C68  1  0.94513311  0.49738839  0.50178086  1  0.995476  0  0.31051  0.302441  0  3.899201  0
C  C69  1  0.07472561  0.49888044  0.50198599  1  0.973276  0  0.311015  0.302288  0  3.902561  0
C  C70  1  0.65214853  0.25502681  0.65052059  1  0.36157  0  -0.065618  0.03936  0  3.865005  0
C  C71  1  0.64527690  0.15891863  0.69302413  1  0.00529  0  -0.170301  -0.142587  0  3.984964  0
C  C72  1  0.60803077  0.04732343  0.66423609  1  -0.075094  0  -0.242713  -0.349751  0  3.977562  0
C  C73  1  0.62497652  0.75478346  0.34959245  1  0.397845  0  -0.066153  0.039664  0  3.861952  0
C  C74  1  0.61274518  0.84676543  0.30504760  1  -0.000481  0  -0.170848  -0.143886  0  3.982251  0
C  C75  1  0.56521693  0.95810477  0.33103318  1  -0.053531  0  -0.242155  -0.346922  0  3.973876  0
C  C76  1  0.34574243  0.72798023  0.66988451  1  0.397828  0  -0.065713  0.040126  0  3.872479  0
C  C77  1  0.23776200  0.78107105  0.63691439  1  -0.006857  0  -0.169474  -0.129609  0  3.986368  0
C  C78  1  0.25738944  0.90848524  0.62954140  1  -0.096614  0  -0.242892  -0.351857  0  3.974116  0
C  C79  1  0.37828947  0.25273356  0.33322238  1  0.357813  0  -0.066025  0.033676  0  3.870188  0
C  C80  1  0.27523937  0.18676224  0.36325520  1  0.011523  0  -0.168699  -0.128795  0  3.985381  0
C  C81  1  0.15133520  0.17872634  0.32983484  1  -0.045057  0  -0.24673  -0.352418  0  3.981747  0
N  N82  1  0.50951476  0.50009939  0.15077552  1  -1.183861  0  -0.228725  -0.192195  0  3.599009  0
N  N83  1  0.50993264  0.49426361  0.85193200  1  -1.194475  0  -0.227721  -0.191244  0  3.594971  0
N  N84  1  0.83496979  0.49647237  0.50143638  1  -0.91253  0  -0.171652  -0.131743  0  2.961155  0
N  N85  1  0.18487086  0.50038902  0.50199928  1  -0.911761  0  -0.171607  -0.13312  0  2.966862  0
O  O86  1  0.40829671  0.66884626  0.51994326  1  -1.138791  0  -0.302162  -0.53134  0  2.268803  0
O  O87  1  0.61449917  0.32509230  0.50660478  1  -1.134057  0  -0.306705  -0.540372  0  2.271998  0
O  O88  1  0.40549562  0.33108374  0.48076551  1  -1.138103  0  -0.300825  -0.530666  0  2.278263  0
O  O89  1  0.61690020  0.67030489  0.49340416  1  -1.133062  0  -0.304801  -0.534792  0  2.265629  0
O  O90  1  0.40670344  0.45865068  0.58356208  1  -1.14207  0  -0.314833  -0.544898  0  2.317658  0
O  O91  1  0.61104805  0.48180525  0.41652017  1  -1.146605  0  -0.31176  -0.536894  0  2.300212  0
O  O92  1  0.40556344  0.53966034  0.41854757  1  -1.152134  0  -0.314314  -0.546235  0  2.307716  0
O  O93  1  0.61278166  0.51369625  0.58576899  1  -1.147678  0  -0.31333  -0.539053  0  2.304437  0
O  O94  1  0.55952637  0.31002808  0.15109577  1  -1.094035  0  -0.270206  -0.424784  0  2.076524  0
O  O95  1  0.53610323  0.68803192  0.85171781  1  -1.087196  0  -0.270374  -0.42478  0  2.075684  0
O  O96  1  0.45746317  0.68978999  0.15002604  1  -1.091249  0  -0.267325  -0.423742  0  2.084475  0
O  O97  1  0.48168886  0.30064086  0.85268175  1  -1.08409  0  -0.267125  -0.422883  0  2.082379  0
O  O98  1  0.69351056  0.36088073  0.67637452  1  -1.054539  0  -0.206069  -0.223105  0  2.50967  0
O  O99  1  0.67691810  0.64981462  0.32661234  1  -1.055865  0  -0.206853  -0.223611  0  2.499818  0
O  O100  1  0.32315756  0.60659910  0.67290552  1  -1.064684  0  -0.203731  -0.21986  0  2.519393  0
O  O101  1  0.33915857  0.37119307  0.33031190  1  -1.053854  0  -0.201084  -0.211855  0  2.502731  0
F  F102  1  0.69479867  0.37775055  0.79093782  1  -0.62516  0  -0.090976  -0.107236  0  1.379097  0
F  F103  1  0.68006603  0.63280770  0.21137028  1  -0.62697  0  -0.090773  -0.1079  0  1.378569  0
F  F104  1  0.32389380  0.60567863  0.78893859  1  -0.624913  0  -0.090883  -0.10768  0  1.374646  0
F  F105  1  0.33815543  0.37201126  0.21390649  1  -0.625605  0  -0.090324  -0.107178  0  1.375231  0
