# generated using pymatgen
data_CoH16C24(NO)4
_symmetry_space_group_name_H-M   'P 1'
_cell_length_a   10.30360838
_cell_length_b   10.25573635
_cell_length_c   12.75111845
_cell_angle_alpha   80.39863583
_cell_angle_beta   69.77918955
_cell_angle_gamma   54.58803253
_symmetry_Int_Tables_number   1
_chemical_formula_structural   CoH16C24(NO)4
_chemical_formula_sum   'Co2 H32 C48 N8 O8'
_cell_volume   1029.48944321
_cell_formula_units_Z   2
loop_
 _symmetry_equiv_pos_site_id
 _symmetry_equiv_pos_as_xyz
  1  'x, y, z'
loop_
 _atom_site_type_symbol
 _atom_site_label
 _atom_site_symmetry_multiplicity
 _atom_site_fract_x
 _atom_site_fract_y
 _atom_site_fract_z
 _atom_site_occupancy
 _atom_site_pbe_bader_charge
 _atom_site_pbe_bader_spin_density
 _atom_site_pbe_cm5_charge
 _atom_site_pbe_ddec_charge
 _atom_site_pbe_ddec_spin_density
 _atom_site_pbe_ddec_sum_bond_order
 _atom_site_pbe_magmom
Co  Co0  1  0.24051659  0.10827671  0.73394206  1  1.248356  -2.593104  0.680832  0.789631  -2.830392  2.575622  -2.564
Co  Co1  1  0.75795835  0.88864457  0.25882478  1  1.132466  -0.973757  0.695662  0.633552  -1.05936  3.036404  -0.962
H  H2  1  0.30251689  0.41658894  0.44542421  1  0.104268  -0.000503  0.109132  0.122172  -0.000251  0.991318  0.0
H  H3  1  0.69057658  0.58677378  0.55311449  1  0.070684  2.8e-05  0.108157  0.12142  9.1e-05  0.992375  0.0
H  H4  1  0.23333716  0.57975280  0.76151423  1  0.11449  -0.000465  0.105496  0.109457  -0.000256  1.014602  0.0
H  H5  1  0.76020925  0.42740933  0.23499757  1  0.090336  -0.00064  0.103931  0.108442  -0.000375  1.018787  0.0
H  H6  1  0.31953681  0.82305477  0.46442787  1  0.076501  -0.000257  0.099263  0.099898  -6e-06  1.037768  0.0
H  H7  1  0.66464653  0.18678040  0.53088933  1  0.085727  -0.000256  0.100798  0.103482  -6.2e-05  1.028516  0.0
H  H8  1  0.37673992  0.72851072  0.28950517  1  0.028387  7.6e-05  0.107022  0.088894  6.5e-05  0.997824  0.0
H  H9  1  0.60557989  0.27872962  0.70600764  1  0.034148  -2.1e-05  0.108632  0.091548  8e-06  0.983892  0.0
H  H10  1  0.47379919  0.51914579  0.27637328  1  0.152115  5e-05  0.11773  0.115061  3.7e-05  1.025687  0.0
H  H11  1  0.50725507  0.48823168  0.72025294  1  0.139787  -0.000131  0.116847  0.112217  -4.3e-05  1.030166  0.0
H  H12  1  0.00366551  0.87362973  0.35858695  1  0.162624  9.5e-05  0.139181  0.115328  0.000137  1.005221  0.0
H  H13  1  0.97485061  0.13639070  0.63767148  1  0.140412  -0.00042  0.135873  0.106332  1.7e-05  1.004238  0.0
H  H14  1  0.08660800  0.57840268  0.11649895  1  0.112901  0.000151  0.121843  0.116558  0.000177  1.022068  0.0
H  H15  1  0.89502370  0.42794217  0.88063216  1  0.106914  -0.000835  0.116837  0.108807  -0.000172  1.031521  -0.001
H  H16  1  0.39065009  0.44930784  0.15685289  1  0.15005  0.000123  0.127906  0.1409  0.00011  1.008153  0.0
H  H17  1  0.58947069  0.55705399  0.84239662  1  0.141552  -0.000776  0.126962  0.140413  -0.0003  1.004299  0.0
H  H18  1  0.97930740  0.17648925  0.97235383  1  0.102442  -0.002104  0.118324  0.085666  -0.000609  1.014402  -0.001
H  H19  1  0.03163690  0.83620011  0.03068123  1  0.141075  -0.000285  0.118686  0.088444  0.000287  1.021355  0.0
H  H20  1  0.99611839  0.08571993  0.16323453  1  0.123949  -0.000988  0.10982  0.119148  -0.00032  1.021311  -0.001
H  H21  1  0.01219526  0.92013244  0.84156736  1  0.107104  -0.000203  0.108005  0.117457  -0.000134  1.031178  0.0
H  H22  1  0.27832608  0.90144486  0.19210696  1  0.044611  0.00013  0.103041  0.094849  0.000169  1.035221  0.0
H  H23  1  0.73054848  0.09923526  0.81038514  1  0.052457  0.000292  0.102088  0.095388  0.000457  1.03545  0.0
H  H24  1  0.59976979  0.73989386  0.10456160  1  0.101812  -0.000397  0.106459  0.122619  -0.00012  1.011538  0.0
H  H25  1  0.40444336  0.25961786  0.90231294  1  0.097752  -9.7e-05  0.106997  0.121772  1e-06  0.998335  0.0
H  H26  1  0.84237337  0.66252416  0.93593846  1  0.071684  -0.000369  0.111494  0.119818  -0.000139  0.977274  0.0
H  H27  1  0.16586338  0.33091989  0.07235057  1  0.061209  4.6e-05  0.109484  0.116853  4e-05  0.982561  0.0
H  H28  1  0.95750089  0.66829499  0.72484079  1  0.116462  0.000174  0.10384  0.107841  0.000392  1.045472  0.0
H  H29  1  0.05711124  0.31141600  0.28836151  1  0.103287  0.000214  0.103024  0.107829  0.000341  1.031336  0.0
H  H30  1  0.89656082  0.77913471  0.54393696  1  0.084876  -0.001016  0.106413  0.112361  -0.000469  1.014389  0.0
H  H31  1  0.13524464  0.18900665  0.46273692  1  0.105628  0.000187  0.109187  0.116672  0.000112  1.009142  0.0
H  H32  1  0.59960193  0.97107698  0.54550670  1  0.130659  -0.001926  0.123299  0.102875  -0.000448  1.006263  -0.001
H  H33  1  0.43442014  0.99866783  0.45227898  1  0.165357  0.000337  0.127408  0.108982  0.00053  1.005758  0.0
C  C34  1  0.30963009  0.62498828  0.44116017  1  -0.024001  -0.000586  -0.01554  0.081812  -0.000213  3.994104  -0.001
C  C35  1  0.67585227  0.38328944  0.55565503  1  -0.028605  -0.000514  -0.015591  0.081286  -0.000183  3.999373  0.0
C  C36  1  0.29008666  0.50359743  0.49385288  1  -0.040822  0.000751  -0.076047  -0.127593  0.001056  3.896752  0.0
C  C37  1  0.70100138  0.50195691  0.50379325  1  -0.007927  0.000805  -0.077697  -0.131208  0.001026  3.89968  0.0
C  C38  1  0.26090239  0.48824897  0.60938079  1  -0.075221  -0.003713  -0.020193  -0.029459  -0.002039  3.992801  -0.003
C  C39  1  0.73396754  0.51637395  0.38789795  1  0.00515  -0.000168  -0.021601  -0.033562  0.00035  3.999351  0.0
C  C40  1  0.25227059  0.59435273  0.67194093  1  0.010667  -0.000369  -0.082058  -0.12852  0.000121  3.975493  0.0
C  C41  1  0.74063560  0.41197505  0.32455136  1  -0.07448  -0.000778  -0.084282  -0.131115  -0.000316  3.96995  -0.001
C  C42  1  0.27512005  0.71375635  0.62012402  1  -0.045398  -0.006575  -0.021614  -0.032204  -0.003352  3.993644  -0.005
C  C43  1  0.71569402  0.29343765  0.37553594  1  -0.028662  -0.00645  -0.021267  -0.03021  -0.003473  3.992275  -0.005
C  C44  1  0.30013465  0.73053634  0.50478808  1  -0.06165  0.001457  -0.08388  -0.144564  0.001683  3.940196  0.001
C  C45  1  0.68662771  0.27800103  0.49114492  1  -0.029251  0.001233  -0.082874  -0.142936  0.001397  3.943907  0.001
C  C46  1  0.35629452  0.63245086  0.31557774  1  0.298613  0.000116  -0.046857  -0.11966  0.000204  3.895062  0.0
C  C47  1  0.62536376  0.37546057  0.68116372  1  0.277108  -0.001056  -0.04694  -0.11992  -0.000575  3.902184  -0.001
C  C48  1  0.06732647  0.77643863  0.29777978  1  0.939456  0.004522  0.140323  0.079549  0.005325  3.870887  0.003
C  C49  1  0.91304178  0.23256457  0.69896818  1  0.974493  -0.001578  0.138987  0.085262  -0.000984  3.921355  -0.001
C  C50  1  0.11659392  0.62095657  0.17070119  1  0.394159  0.001783  -0.004699  -0.056458  0.001735  4.010446  0.001
C  C51  1  0.86490106  0.38548372  0.82641554  1  0.458361  3.2e-05  -0.00675  -0.040143  0.000719  4.026244  0.0
C  C52  1  0.26607539  0.55618745  0.18961657  1  0.312488  -0.000495  0.004499  -0.101575  -7.9e-05  3.906014  0.0
C  C53  1  0.71436638  0.45064686  0.80894313  1  0.25125  -0.004582  0.003851  -0.103408  -0.002352  3.897507  -0.003
C  C54  1  0.25152689  0.35255984  0.66563539  1  1.527119  0.002402  0.190802  0.544081  0.00323  4.223155  0.004
C  C55  1  0.74935981  0.64862871  0.33029451  1  1.503559  0.000945  0.19264  0.533732  0.001723  4.199947  0.002
C  C56  1  0.28904305  0.81046818  0.68737855  1  1.563745  0.001801  0.194812  0.552883  0.002159  4.244029  0.002
C  C57  1  0.70286189  0.19510157  0.30830611  1  1.569248  0.001398  0.193492  0.548449  0.002054  4.248205  0.002
C  C58  1  0.10071169  0.09518146  0.98636453  1  0.475256  0.000977  0.060022  0.108272  0.001219  3.924222  -0.001
C  C59  1  0.90947892  0.91318465  0.01772046  1  0.422042  0.018173  0.046804  0.083291  0.018945  3.91039  0.01
C  C60  1  0.11130223  0.04309396  0.09389936  1  -0.026939  -0.001934  -0.082901  -0.124539  -0.00042  3.970849  -0.002
C  C61  1  0.89653286  0.96266166  0.91036027  1  0.011884  -0.003073  -0.086027  -0.121815  -0.0004  3.984064  -0.003
C  C62  1  0.26722194  0.93951014  0.10896231  1  -0.00307  0.005041  -0.069667  -0.082091  0.005362  3.950822  0.003
C  C63  1  0.74105472  0.06280832  0.89379904  1  -0.051035  0.022963  -0.078819  -0.099373  0.024097  3.963303  0.014
C  C64  1  0.41315573  0.88624520  0.01634148  1  0.017615  -0.001603  -0.000483  0.046703  -0.000683  4.005834  -0.002
C  C65  1  0.59593288  0.11388551  0.98673404  1  0.007644  -0.001931  -0.001578  0.050431  -0.000429  4.020071  -0.002
C  C66  1  0.58037428  0.78220774  0.02336163  1  -0.021415  -0.002277  -0.083495  -0.121695  -0.001145  3.950836  -0.002
C  C67  1  0.42674848  0.21561660  0.98261661  1  -0.063905  0.000897  -0.081871  -0.119343  0.000933  3.944037  0.001
C  C68  1  0.71554058  0.73905646  0.92983609  1  -0.046735  0.000425  -0.080249  -0.114157  0.000566  3.981065  0.0
C  C69  1  0.29332560  0.25550947  0.07720811  1  0.01374  -0.000555  -0.079897  -0.118116  -0.000207  3.979314  0.0
C  C70  1  0.69507859  0.79465128  0.82220121  1  -0.038523  -0.004065  -0.003996  0.038692  -0.00175  4.03223  -0.004
C  C71  1  0.31701492  0.19579169  0.18374163  1  -0.025822  0.001102  -0.003997  0.040221  0.001299  4.038287  0.0
C  C72  1  0.82945537  0.75076252  0.72237421  1  -0.066981  0.016753  -0.070902  -0.08808  0.017672  3.938076  0.01
C  C73  1  0.18790430  0.23104537  0.28574938  1  -0.021974  0.013328  -0.07181  -0.092539  0.013985  3.934508  0.008
C  C74  1  0.79583299  0.81257237  0.62278481  1  -0.009748  -0.00637  -0.083113  -0.119829  -0.00301  3.964805  -0.005
C  C75  1  0.23070404  0.16231361  0.38195900  1  -0.060555  0.000532  -0.08216  -0.120479  0.001155  3.968001  0.0
C  C76  1  0.62855775  0.91887308  0.62268783  1  0.526128  0.013082  0.057763  0.110787  0.013663  3.909743  0.008
C  C77  1  0.39970749  0.05607644  0.37773191  1  0.488561  0.012659  0.059644  0.100584  0.013602  3.86869  0.008
C  C78  1  0.53127629  0.89917357  0.81353198  1  0.482556  0.009224  0.117163  0.11878  0.010304  3.99091  0.006
C  C79  1  0.48307705  0.09248921  0.18750699  1  0.450875  0.007364  0.11328  0.110719  0.007904  3.99133  0.004
C  C80  1  0.38968124  0.94533893  0.91106779  1  0.453965  0.002169  0.120509  0.129113  0.003654  3.982254  0.001
C  C81  1  0.62087526  0.05501073  0.09122026  1  0.465428  0.009273  0.112209  0.115312  0.009789  3.986346  0.006
N  N82  1  0.23608493  0.04817557  0.89702851  1  -1.18622  -0.061246  -0.320675  -0.263188  -0.033208  3.598947  -0.046
N  N83  1  0.77466179  0.95716154  0.10811745  1  -1.151604  -0.002055  -0.327227  -0.215555  0.001363  3.634612  -0.002
N  N84  1  0.49907683  0.96076255  0.71559452  1  -1.203  -0.054056  -0.317522  -0.268344  -0.027447  3.572558  -0.051
N  N85  1  0.52427082  0.02069079  0.28204328  1  -1.178732  0.017183  -0.335273  -0.203977  0.016552  3.649609  0.012
N  N86  1  0.23244150  0.65549036  0.27007180  1  -1.238647  0.001534  -0.241848  0.047075  0.001373  3.790161  0.001
N  N87  1  0.74770974  0.35233338  0.72782184  1  -1.236813  -0.002914  -0.247579  0.045027  -0.001174  3.800855  -0.002
N  N88  1  0.99423477  0.75825915  0.23815371  1  -1.148928  0.009852  -0.359775  -0.22727  0.009824  3.683584  0.007
N  N89  1  0.98742600  0.24971963  0.75762845  1  -1.205978  -0.055388  -0.356299  -0.293133  -0.030629  3.624661  -0.042
O  O90  1  0.29290806  0.23934560  0.60376024  1  -1.140258  -0.090848  -0.315938  -0.535305  -0.046944  2.263414  -0.075
O  O91  1  0.73120613  0.75277371  0.38876739  1  -1.105283  -0.001981  -0.299899  -0.494683  7.9e-05  2.266892  0.0
O  O92  1  0.20691335  0.34889793  0.77167334  1  -1.155074  -0.060317  -0.324761  -0.55984  -0.030459  2.134509  -0.052
O  O93  1  0.77618300  0.65909514  0.22530984  1  -1.148729  -0.067773  -0.315472  -0.541577  -0.034768  2.155618  -0.057
O  O94  1  0.25987673  0.94619464  0.64725497  1  -1.157935  -0.089997  -0.32617  -0.558955  -0.047009  2.35223  -0.075
O  O95  1  0.74031934  0.05661852  0.34650705  1  -1.13982  -0.069241  -0.313885  -0.543884  -0.035798  2.325466  -0.062
O  O96  1  0.32684962  0.75416719  0.77558379  1  -1.176079  0.001434  -0.332435  -0.557983  0.002467  2.110574  0.001
O  O97  1  0.65665286  0.25539984  0.22324264  1  -1.177371  -7.5e-05  -0.332864  -0.556458  0.000938  2.112452  -0.001
