# generated using pymatgen
data_NdH20C24N11
_symmetry_space_group_name_H-M   'P 1'
_cell_length_a   10.25689290
_cell_length_b   10.65480072
_cell_length_c   12.70200000
_cell_angle_alpha   72.34861480
_cell_angle_beta   84.91905823
_cell_angle_gamma   78.89686679
_symmetry_Int_Tables_number   1
_chemical_formula_structural   NdH20C24N11
_chemical_formula_sum   'Nd2 H40 C48 N22'
_cell_volume   1297.34962239
_cell_formula_units_Z   2
loop_
 _symmetry_equiv_pos_site_id
 _symmetry_equiv_pos_as_xyz
  1  'x, y, z'
loop_
 _atom_site_type_symbol
 _atom_site_label
 _atom_site_symmetry_multiplicity
 _atom_site_fract_x
 _atom_site_fract_y
 _atom_site_fract_z
 _atom_site_occupancy
 _atom_site_pbe_bader_charge
 _atom_site_pbe_bader_spin_density
 _atom_site_pbe_cm5_charge
 _atom_site_pbe_ddec_charge
 _atom_site_pbe_ddec_spin_density
 _atom_site_pbe_ddec_sum_bond_order
 _atom_site_pbe_magmom
Nd  Nd0  1  0.75112662  0.99584044  0.51838463  1  2.121471  0  1.716385  1.586267  0  2.688633  0
Nd  Nd1  1  0.24887327  0.00415416  0.48161368  1  2.121511  0  1.716386  1.586139  0  2.688764  0
H  H2  1  0.62716071  0.51163254  0.37616421  1  0.103219  0  0.102684  0.115906  0  1.017774  0
H  H3  1  0.37281117  0.48838807  0.62382792  1  0.102832  0  0.102722  0.115924  0  1.017739  0
H  H4  1  0.43710704  0.68500184  0.28796549  1  0.038166  0  0.092317  0.08723  0  1.050343  0
H  H5  1  0.56284574  0.31500476  0.71203471  1  0.038064  0  0.09221  0.087027  0  1.050359  0
H  H6  1  0.22192689  0.62540724  0.26699192  1  0.067794  0  0.092176  0.089748  0  1.051693  0
H  H7  1  0.77803944  0.37456635  0.73302830  1  0.067892  0  0.092147  0.089759  0  1.051512  0
H  H8  1  0.18894509  0.38682177  0.32824853  1  0.087023  0  0.102964  0.106087  0  1.045607  0
H  H9  1  0.81104226  0.61315483  0.67177257  1  0.087817  0  0.103047  0.10605  0  1.045576  0
H  H10  1  0.70073622  0.22481964  0.20771514  1  0.09844  0  0.112245  0.122414  0  0.993348  0
H  H11  1  0.29925847  0.77518797  0.79228732  1  0.098453  0  0.112267  0.122403  0  0.993379  0
H  H12  1  0.76219499  0.34081895  0.01217677  1  0.047188  0  0.100976  0.101518  0  0.993181  0
H  H13  1  0.23780927  0.65917865  0.98782597  1  0.047141  0  0.100996  0.101561  0  0.993102  0
H  H14  1  0.57482509  0.15021685  0.63940714  1  0.426391  0  0.299307  0.277284  0  0.980259  0
H  H15  1  0.42518567  0.84978275  0.36058991  1  0.426423  0  0.299277  0.27729  0  0.980209  0
H  H16  1  0.52800737  0.01731582  0.72372415  1  0.478419  0  0.301002  0.296394  0  0.975226  0
H  H17  1  0.47199913  0.98268578  0.27627269  1  0.47828  0  0.30093  0.296359  0  0.975227  0
H  H18  1  0.99128592  0.37977781  0.95738540  1  0.079702  0  0.095425  0.092918  0  1.035704  0
H  H19  1  0.00871551  0.62022480  0.04262021  1  0.079613  0  0.095415  0.092883  0  1.035661  0
H  H20  1  0.94242456  0.15294561  0.60413975  1  0.426465  0  0.304296  0.292751  0  0.97326  0
H  H21  1  0.05758085  0.84705099  0.39586081  1  0.426514  0  0.304302  0.292768  0  0.973182  0
H  H22  1  0.79104835  0.24096913  0.57914534  1  0.445036  0  0.303468  0.29144  0  0.948859  0
H  H23  1  0.20895487  0.75903447  0.42084651  1  0.444591  0  0.3035  0.291433  0  0.94893  0
H  H24  1  0.17017319  0.30660742  0.09497254  1  0.074809  0  0.108104  0.118522  0  0.98607  0
H  H25  1  0.82982276  0.69340418  0.90503274  1  0.074707  0  0.108115  0.118547  0  0.986038  0
H  H26  1  0.66670485  0.75070615  0.11783956  1  0.081888  0  0.106027  0.115115  0  0.994296  0
H  H27  1  0.33331726  0.24928445  0.88215425  1  0.081327  0  0.106033  0.115129  0  0.994202  0
H  H28  1  0.80724705  0.52329379  0.15797635  1  0.074531  0  0.095683  0.093936  0  1.037858  0
H  H29  1  0.19278024  0.47670081  0.84201607  1  0.074335  0  0.095676  0.09401  0  1.037747  0
H  H30  1  0.96211889  0.44021564  0.31102280  1  0.053098  0  0.096026  0.096311  0  1.034151  0
H  H31  1  0.03790397  0.55978196  0.68896759  1  0.052522  0  0.095934  0.096211  0  1.034131  0
H  H32  1  0.98488835  0.57992057  0.43272949  1  0.072521  0  0.100657  0.108174  0  1.027199  0
H  H33  1  0.01512789  0.42007003  0.56726710  1  0.072644  0  0.100666  0.108267  0  1.027123  0
H  H34  1  0.56369748  0.98793524  0.91031717  1  0.063426  0  0.101952  0.109546  0  1.012353  0
H  H35  1  0.43630448  0.01206436  0.08967972  1  0.06332  0  0.101972  0.109569  0  1.012334  0
H  H36  1  0.71150053  0.00696194  0.05011367  1  0.077879  0  0.094232  0.089896  0  1.059446  0
H  H37  1  0.28850621  0.99303266  0.94988415  1  0.077853  0  0.094228  0.089878  0  1.05942  0
H  H38  1  0.92208101  0.09353406  0.98705082  1  0.08655  0  0.097881  0.098885  0  1.034088  0
H  H39  1  0.07791812  0.90647054  0.01294658  1  0.086479  0  0.097881  0.098875  0  1.034095  0
H  H40  1  0.98752813  0.15864620  0.78765426  1  0.104652  0  0.101267  0.110564  0  1.031951  0
H  H41  1  0.01247342  0.84136140  0.21234456  1  0.104584  0  0.101262  0.110536  0  1.031922  0
C  C42  1  0.51445855  0.35070871  0.39908177  1  0.450589  0  0.094316  0.150371  0  4.035278  0
C  C43  1  0.48552538  0.64929890  0.60091831  1  0.45013  0  0.094259  0.15047  0  4.034865  0
C  C44  1  0.53278480  0.48469604  0.36631345  1  -0.086326  0  -0.090077  -0.147693  0  3.97746  0
C  C45  1  0.46718910  0.51531857  0.63368714  1  -0.086699  0  -0.090024  -0.1477  0  3.977402  0
C  C46  1  0.42576193  0.58029567  0.31875357  1  -0.018817  0  -0.103491  -0.098449  0  4.032106  0
C  C47  1  0.57421168  0.41971493  0.68125042  1  -0.018137  0  -0.103429  -0.098257  0  4.032146  0
C  C48  1  0.30239796  0.54598011  0.30559959  1  -0.014087  0  -0.104618  -0.099177  0  4.036969  0
C  C49  1  0.69757677  0.45401849  0.69440738  1  -0.01362  0  -0.104648  -0.099315  0  4.037068  0
C  C50  1  0.28274908  0.41431843  0.33880546  1  -0.08286  0  -0.090892  -0.154696  0  3.98688  0
C  C51  1  0.71722812  0.58567717  0.66120997  1  -0.083403  0  -0.090971  -0.15455  0  3.987023  0
C  C52  1  0.39121234  0.31594002  0.38512846  1  0.377415  0  0.096964  0.141396  0  4.029825  0
C  C53  1  0.60878213  0.68405758  0.61487734  1  0.377237  0  0.097062  0.141362  0  4.030012  0
C  C54  1  0.90248559  0.20144812  0.26102118  1  0.372769  0  0.097915  0.140301  0  4.024099  0
C  C55  1  0.09750927  0.79855848  0.73898310  1  0.373116  0  0.097817  0.140276  0  4.024131  0
C  C56  1  0.80139037  0.24351884  0.18354527  1  -0.057245  0  -0.082733  -0.148377  0  3.965332  0
C  C57  1  0.19860594  0.75649076  0.81645027  1  -0.057225  0  -0.082669  -0.148256  0  3.965537  0
C  C58  1  0.83687895  0.30771373  0.07541995  1  -0.014017  0  -0.093802  -0.091614  0  4.033191  0
C  C59  1  0.16312190  0.69229788  0.92457712  1  -0.0141  0  -0.093884  -0.091782  0  4.033316  0
C  C60  1  0.96863184  0.33007796  0.04375358  1  -0.051206  0  -0.094799  -0.090841  0  4.032753  0
C  C61  1  0.03137201  0.66992764  0.95625030  1  -0.051138  0  -0.094784  -0.090749  0  4.032631  0
C  C62  1  0.06895741  0.28975173  0.11946395  1  -0.004093  0  -0.087138  -0.150786  0  3.972376  0
C  C63  1  0.93103952  0.71025988  0.88054127  1  -0.003892  0  -0.087166  -0.150837  0  3.972278  0
C  C64  1  0.03446677  0.22483164  0.22952885  1  0.396082  0  0.096816  0.143611  0  4.042716  0
C  C65  1  0.96552942  0.77517296  0.77047191  1  0.396041  0  0.096821  0.143497  0  4.042679  0
C  C66  1  0.74461946  0.79166556  0.25619433  1  0.358483  0  0.084447  0.109327  0  4.0488  0
C  C67  1  0.25539154  0.20832704  0.74380449  1  0.358323  0  0.084394  0.109255  0  4.048595  0
C  C68  1  0.73443257  0.71388289  0.18630562  1  -0.026099  0  -0.087855  -0.148704  0  3.981435  0
C  C69  1  0.26557987  0.28611271  0.81369075  1  -0.026047  0  -0.087804  -0.148543  0  3.981109  0
C  C70  1  0.81346855  0.58815986  0.20858801  1  -0.052817  0  -0.097813  -0.093308  0  4.03308  0
C  C71  1  0.18654844  0.41183774  0.79140123  1  -0.051798  0  -0.097797  -0.093598  0  4.033132  0
C  C72  1  0.90240450  0.53982540  0.29727492  1  -0.088194  0  -0.099688  -0.094443  0  4.023732  0
C  C73  1  0.09761157  0.46016620  0.70271669  1  -0.08827  0  -0.09956  -0.094005  0  4.023468  0
C  C74  1  0.91459974  0.61571354  0.36616272  1  -0.036787  0  -0.095834  -0.166073  0  4.00175  0
C  C75  1  0.08541622  0.38427306  0.63383411  1  -0.036573  0  -0.095803  -0.166249  0  4.001654  0
C  C76  1  0.83355319  0.74254287  0.34540782  1  0.425523  0  0.089543  0.145355  0  4.081134  0
C  C77  1  0.16645546  0.25744072  0.65459818  1  0.425969  0  0.089501  0.145185  0  4.081259  0
C  C78  1  0.69175775  0.06528219  0.77210493  1  0.226539  0  0.079186  0.187402  0  4.02277  0
C  C79  1  0.30824288  0.93471941  0.22789706  1  0.226675  0  0.079116  0.187263  0  4.022912  0
C  C80  1  0.65685756  0.02549010  0.88470947  1  -0.015054  0  -0.100772  -0.184352  0  3.995262  0
C  C81  1  0.34314750  0.97450850  0.11529139  1  -0.015104  0  -0.100725  -0.184292  0  3.995165  0
C  C82  1  0.73968354  0.03532884  0.96236067  1  -0.018631  0  -0.100015  -0.087286  0  4.047728  0
C  C83  1  0.26031692  0.96467376  0.03764029  1  -0.018592  0  -0.10008  -0.087347  0  4.047746  0
C  C84  1  0.85823387  0.08354928  0.92716705  1  -0.048388  0  -0.098301  -0.085764  0  4.033374  0
C  C85  1  0.14176889  0.91645132  0.07283189  1  -0.048371  0  -0.098281  -0.085742  0  4.033455  0
C  C86  1  0.89468314  0.12134081  0.81489759  1  -0.10381  0  -0.09513  -0.164694  0  3.968517  0
C  C87  1  0.10531840  0.87866680  0.18510123  1  -0.103917  0  -0.095072  -0.164607  0  3.96852  0
C  C88  1  0.81151429  0.11339359  0.73678429  1  0.352209  0  0.07622  0.178412  0  3.996439  0
C  C89  1  0.18848806  0.88661501  0.26321343  1  0.352457  0  0.076147  0.178401  0  3.996651  0
N  N90  1  0.59812910  0.23336302  0.44554733  1  -0.747229  0  -0.299938  -0.331725  0  3.349893  0
N  N91  1  0.40187014  0.76664659  0.55444564  1  -0.747727  0  -0.299903  -0.331739  0  3.34969  0
N  N92  1  0.52915101  0.13534871  0.45754172  1  -0.22345  0  -0.217899  -0.126475  0  3.596177  0
N  N93  1  0.47086021  0.86465389  0.54245217  1  -0.223467  0  -0.217945  -0.126437  0  3.596162  0
N  N94  1  0.40556028  0.17911590  0.42321520  1  -0.692123  0  -0.297609  -0.299758  0  3.42474  0
N  N95  1  0.59444502  0.82087570  0.57679057  1  -0.691678  0  -0.297652  -0.299815  0  3.425147  0
N  N96  1  0.90191246  0.13451348  0.37205826  1  -0.718029  0  -0.300476  -0.313297  0  3.445986  0
N  N97  1  0.09808604  0.86548913  0.62794363  1  -0.718208  0  -0.30043  -0.313239  0  3.44583  0
N  N98  1  0.02468723  0.12075464  0.40468042  1  -0.224439  0  -0.219911  -0.138151  0  3.5942  0
N  N99  1  0.97531018  0.87924296  0.59532045  1  -0.224347  0  -0.219914  -0.138181  0  3.594053  0
N  N100  1  0.10763908  0.17248105  0.32297680  1  -0.722902  0  -0.310479  -0.320836  0  3.361267  0
N  N101  1  0.89235924  0.82752255  0.67702642  1  -0.723081  0  -0.310465  -0.320716  0  3.361201  0
N  N102  1  0.68053893  0.91730756  0.25682538  1  -0.63475  0  -0.21443  -0.233876  0  3.232895  0
N  N103  1  0.31947277  0.08268104  0.74317204  1  -0.634382  0  -0.214376  -0.233879  0  3.232306  0
N  N104  1  0.72905622  0.94158633  0.34043253  1  -0.224707  0  -0.208762  -0.127175  0  3.535946  0
N  N105  1  0.27095139  0.05840327  0.65956414  1  -0.224854  0  -0.208869  -0.127097  0  3.535874  0
N  N106  1  0.82130459  0.84060219  0.39596651  1  -0.756574  0  -0.335259  -0.370307  0  3.411594  0
N  N107  1  0.17870382  0.15938841  0.60402985  1  -0.756848  0  -0.335249  -0.370323  0  3.411612  0
N  N108  1  0.61133255  0.05662378  0.68940459  1  -1.227705  0  -0.662139  -0.669358  0  3.394859  0
N  N109  1  0.38867315  0.94337683  0.31059335  1  -1.227772  0  -0.661949  -0.669227  0  3.39468  0
N  N110  1  0.84323841  0.14913455  0.61999564  1  -1.177997  0  -0.650595  -0.659836  0  3.347283  0
N  N111  1  0.15676798  0.85086205  0.38000169  1  -1.177543  0  -0.650659  -0.659879  0  3.347341  0
