# generated using pymatgen
data_UPH3C2O7
_symmetry_space_group_name_H-M   'P 1'
_cell_length_a   6.70148384
_cell_length_b   7.13675482
_cell_length_c   14.28878389
_cell_angle_alpha   90.00004609
_cell_angle_beta   104.01175995
_cell_angle_gamma   89.99982558
_symmetry_Int_Tables_number   1
_chemical_formula_structural   UPH3C2O7
_chemical_formula_sum   'U4 P4 H12 C8 O28'
_cell_volume   663.05400704
_cell_formula_units_Z   4
loop_
 _symmetry_equiv_pos_site_id
 _symmetry_equiv_pos_as_xyz
  1  'x, y, z'
loop_
 _atom_site_type_symbol
 _atom_site_label
 _atom_site_symmetry_multiplicity
 _atom_site_fract_x
 _atom_site_fract_y
 _atom_site_fract_z
 _atom_site_occupancy
 _atom_site_hle17_bader_spin_density
 _atom_site_hle17_ddec_charge
 _atom_site_hle17_ddec_spin_density
 _atom_site_hle17_ddec_sum_bond_order
 _atom_site_hle17_magmom
 _atom_site_hse06_10hf_bader_spin_density
 _atom_site_hse06_10hf_ddec_charge
 _atom_site_hse06_10hf_ddec_spin_density
 _atom_site_hse06_10hf_ddec_sum_bond_order
 _atom_site_hse06_10hf_magmom
 _atom_site_hse06_bader_spin_density
 _atom_site_hse06_ddec_charge
 _atom_site_hse06_ddec_spin_density
 _atom_site_hse06_ddec_sum_bond_order
 _atom_site_hse06_magmom
 _atom_site_pbe_bader_spin_density
 _atom_site_pbe_cm5_charge
 _atom_site_pbe_ddec_charge
 _atom_site_pbe_ddec_spin_density
 _atom_site_pbe_ddec_sum_bond_order
 _atom_site_pbe_magmom
U  U0  1  0.90624511  0.32889061  0.26227256  1  0  2.603135  0  4.036615  0  0  2.672754  0  4.659836  0  0  2.774681  0  4.627222  0  0  2.257965  2.598796  0  4.685092  0
U  U1  1  0.59375355  0.82888439  0.23772437  1  0  2.603408  0  4.036889  0  0  2.672896  0  4.660097  0  0  2.774741  0  4.627576  0  0  2.258226  2.598949  0  4.685353  0
U  U2  1  0.09375849  0.67110768  0.73772844  1  0  2.603329  0  4.037085  0  0  2.672817  0  4.660423  0  0  2.774726  0  4.627791  0  0  2.258246  2.598885  0  4.685655  0
U  U3  1  0.40623930  0.17110969  0.76227120  1  0  2.603283  0  4.036875  0  0  2.672892  0  4.660026  0  0  2.77481  0  4.627465  0  0  2.258157  2.598965  0  4.685284  0
P  P4  1  0.08439249  0.83061280  0.28996454  1  0  1.617695  0  4.685277  0  0  1.490027  0  5.188923  0  0  1.547919  0  5.143262  0  0  0.38743  1.448825  0  5.219344  0
P  P5  1  0.41560902  0.33060774  0.21003719  1  0  1.617695  0  4.685394  0  0  1.490005  0  5.189026  0  0  1.547901  0  5.143365  0  0  0.387462  1.448796  0  5.219489  0
P  P6  1  0.91560495  0.16938548  0.71003716  1  0  1.617726  0  4.685208  0  0  1.490044  0  5.188848  0  0  1.547964  0  5.143183  0  0  0.387438  1.44884  0  5.219304  0
P  P7  1  0.58439610  0.66938774  0.78996469  1  0  1.617763  0  4.685314  0  0  1.490085  0  5.188965  0  0  1.547985  0  5.143301  0  0  0.387464  1.448885  0  5.219412  0
H  H8  1  0.56517779  0.62589873  0.55487581  1  0  0.410182  0  0.874363  0  0  0.37597  0  0.955646  0  0  0.388882  0  0.941978  0  0  0.318766  0.366966  0  0.965087  0
H  H9  1  0.93481723  0.12588257  0.94512881  1  0  0.410148  0  0.874363  0  0  0.375931  0  0.955651  0  0  0.388847  0  0.941982  0  0  0.318732  0.366931  0  0.965091  0
H  H10  1  0.43481655  0.37410516  0.44512972  1  0  0.410167  0  0.874421  0  0  0.375983  0  0.955668  0  0  0.388895  0  0.942  0  0  0.318742  0.366991  0  0.965086  0
H  H11  1  0.06519561  0.87411991  0.05486975  1  0  0.410325  0  0.874075  0  0  0.376076  0  0.955457  0  0  0.388991  0  0.941786  0  0  0.318756  0.367068  0  0.964917  0
H  H12  1  0.27843580  0.00187597  0.42889034  1  0  0.20342  0  0.915736  0  0  0.20778  0  0.977358  0  0  0.212559  0  0.974439  0  0  0.136049  0.204557  0  0.979335  0
H  H13  1  0.22157446  0.50186647  0.07110798  1  0  0.20344  0  0.915739  0  0  0.207828  0  0.977294  0  0  0.212626  0  0.974337  0  0  0.136058  0.204595  0  0.979302  0
H  H14  1  0.72156472  0.99811951  0.57111030  1  0  0.203449  0  0.915709  0  0  0.207796  0  0.977313  0  0  0.212598  0  0.974374  0  0  0.136052  0.204565  0  0.979315  0
H  H15  1  0.77843220  0.49814022  0.92889477  1  0  0.203425  0  0.915671  0  0  0.207821  0  0.977259  0  0  0.212617  0  0.974306  0  0  0.136063  0.204584  0  0.979268  0
H  H16  1  0.06612124  0.87747452  0.45341962  1  0  0.205896  0  0.899315  0  0  0.218941  0  0.946457  0  0  0.222751  0  0.944652  0  0  0.142419  0.216465  0  0.947705  0
H  H17  1  0.43389088  0.37745528  0.04658475  1  0  0.205931  0  0.899266  0  0  0.21897  0  0.946408  0  0  0.222784  0  0.944597  0  0  0.142396  0.216493  0  0.94765  0
H  H18  1  0.93388082  0.12253217  0.54657980  1  0  0.205929  0  0.899311  0  0  0.218983  0  0.9464  0  0  0.222807  0  0.944597  0  0  0.142421  0.216501  0  0.947653  0
H  H19  1  0.56612192  0.62255141  0.95342081  1  0  0.206039  0  0.899196  0  0  0.219082  0  0.946347  0  0  0.222899  0  0.944532  0  0  0.142476  0.21661  0  0.947576  0
C  C20  1  0.19344724  0.86886677  0.41728278  1  0  -0.629853  0  3.585064  0  0  -0.646131  0  3.816211  0  0  -0.661731  0  3.814993  0  0  -0.141584  -0.635292  0  3.816564  0
C  C21  1  0.30656337  0.36885772  0.08272141  1  0  -0.62996  0  3.585019  0  0  -0.64619  0  3.816186  0  0  -0.661817  0  3.815002  0  0  -0.141542  -0.635349  0  3.816548  0
C  C22  1  0.80655020  0.13113431  0.58271751  1  0  -0.629971  0  3.585158  0  0  -0.646126  0  3.816177  0  0  -0.661817  0  3.815072  0  0  -0.141553  -0.635277  0  3.816536  0
C  C23  1  0.69344022  0.63114756  0.91727959  1  0  -0.62997  0  3.585151  0  0  -0.64627  0  3.816327  0  0  -0.661902  0  3.815173  0  0  -0.141583  -0.635419  0  3.816683  0
C  C24  1  0.32966805  0.70720629  0.45959659  1  0  0.796402  0  3.716929  0  0  0.742091  0  4.018799  0  0  0.776887  0  4.008811  0  0  0.26806  0.718659  0  4.024709  0
C  C25  1  0.17034461  0.20719058  0.04040703  1  0  0.796536  0  3.71724  0  0  0.742054  0  4.019316  0  0  0.77688  0  4.009302  0  0  0.267996  0.718611  0  4.02523  0
C  C26  1  0.67033704  0.29279340  0.54041158  1  0  0.796512  0  3.71677  0  0  0.742086  0  4.018747  0  0  0.776918  0  4.00874  0  0  0.268052  0.718638  0  4.024674  0
C  C27  1  0.82965287  0.79280349  0.95958557  1  0  0.796285  0  3.717259  0  0  0.741884  0  4.019279  0  0  0.776699  0  4.009272  0  0  0.267897  0.718443  0  4.02518  0
O  O28  1  0.85358851  0.35668898  0.13336172  1  0  -0.676302  0  1.530836  0  0  -0.687887  0  1.807238  0  0  -0.710534  0  1.796938  0  0  -0.744658  -0.674051  0  1.815342  0
O  O29  1  0.64641164  0.85668271  0.36662701  1  0  -0.676388  0  1.530986  0  0  -0.687897  0  1.807369  0  0  -0.710525  0  1.797079  0  0  -0.744827  -0.674061  0  1.815472  0
O  O30  1  0.14641821  0.64331350  0.86662984  1  0  -0.67632  0  1.531067  0  0  -0.687874  0  1.807492  0  0  -0.710517  0  1.797192  0  0  -0.744805  -0.674039  0  1.81559  0
O  O31  1  0.35357662  0.14331557  0.63336454  1  0  -0.676327  0  1.530895  0  0  -0.687943  0  1.807371  0  0  -0.710601  0  1.797079  0  0  -0.74478  -0.674115  0  1.81548  0
O  O32  1  0.94306661  0.29324274  0.38999354  1  0  -0.67218  0  1.510086  0  0  -0.686575  0  1.781994  0  0  -0.708665  0  1.770589  0  0  -0.747732  -0.67299  0  1.790911  0
O  O33  1  0.55693367  0.79322393  0.11000916  1  0  -0.672297  0  1.51021  0  0  -0.686644  0  1.782131  0  0  -0.708725  0  1.770739  0  0  -0.747807  -0.673056  0  1.791052  0
O  O34  1  0.05693387  0.70675273  0.61001410  1  0  -0.672237  0  1.510403  0  0  -0.686553  0  1.782284  0  0  -0.70862  0  1.770842  0  0  -0.747812  -0.672966  0  1.791206  0
O  O35  1  0.44305456  0.20676034  0.88998798  1  0  -0.672251  0  1.510298  0  0  -0.686588  0  1.782157  0  0  -0.708685  0  1.770752  0  0  -0.747762  -0.673003  0  1.791072  0
O  O36  1  0.25507925  0.80535596  0.23742283  1  0  -0.845027  0  1.989834  0  0  -0.814604  0  2.284449  0  0  -0.849987  0  2.267593  0  0  -0.425485  -0.788291  0  2.295097  0
O  O37  1  0.24492544  0.30534862  0.26257644  1  0  -0.844961  0  1.989779  0  0  -0.814538  0  2.284387  0  0  -0.849936  0  2.267535  0  0  -0.425472  -0.788223  0  2.295046  0
O  O38  1  0.74491052  0.19463671  0.76257448  1  0  -0.84495  0  1.989772  0  0  -0.814581  0  2.284441  0  0  -0.84997  0  2.267578  0  0  -0.425439  -0.788268  0  2.295101  0
O  O39  1  0.75507970  0.69463565  0.73742474  1  0  -0.845027  0  1.989916  0  0  -0.814579  0  2.284524  0  0  -0.849976  0  2.267668  0  0  -0.425436  -0.788264  0  2.295175  0
O  O40  1  0.93751124  0.99652593  0.25010105  1  0  -0.943929  0  2.040854  0  0  -0.927117  0  2.353587  0  0  -0.964154  0  2.339277  0  0  -0.446446  -0.898668  0  2.361325  0
O  O41  1  0.56248225  0.49652610  0.24989890  1  0  -0.943932  0  2.040915  0  0  -0.92711  0  2.353635  0  0  -0.964169  0  2.339392  0  0  -0.446485  -0.89867  0  2.361408  0
O  O42  1  0.06248621  0.00347095  0.74989785  1  0  -0.943931  0  2.040904  0  0  -0.927127  0  2.35366  0  0  -0.96418  0  2.339372  0  0  -0.44647  -0.898686  0  2.361421  0
O  O43  1  0.43751364  0.50347218  0.75010401  1  0  -0.944013  0  2.040948  0  0  -0.927176  0  2.353661  0  0  -0.964219  0  2.339359  0  0  -0.446537  -0.898737  0  2.361425  0
O  O44  1  0.93311016  0.66153476  0.27427102  1  0  -0.957408  0  2.08317  0  0  -0.941145  0  2.400272  0  0  -0.977989  0  2.384948  0  0  -0.458744  -0.913108  0  2.409452  0
O  O45  1  0.56689362  0.16153209  0.22572990  1  0  -0.95744  0  2.083207  0  0  -0.941168  0  2.40029  0  0  -0.978013  0  2.384973  0  0  -0.458771  -0.913113  0  2.409453  0
O  O46  1  0.06688573  0.33846773  0.72573190  1  0  -0.957473  0  2.083125  0  0  -0.94123  0  2.400252  0  0  -0.978083  0  2.384932  0  0  -0.458797  -0.913187  0  2.409428  0
O  O47  1  0.43311153  0.83846900  0.77426708  1  0  -0.95748  0  2.083126  0  0  -0.941226  0  2.400234  0  0  -0.978079  0  2.384921  0  0  -0.458784  -0.913186  0  2.409411  0
O  O48  1  0.29975204  0.54971176  0.42128460  1  0  -0.589862  0  2.03512  0  0  -0.542697  0  2.267039  0  0  -0.565988  0  2.257662  0  0  -0.253327  -0.526412  0  2.272804  0
O  O49  1  0.20026115  0.04970021  0.07871409  1  0  -0.589952  0  2.035556  0  0  -0.542709  0  2.267559  0  0  -0.565985  0  2.258124  0  0  -0.253274  -0.526415  0  2.273327  0
O  O50  1  0.70023769  0.45029773  0.57871971  1  0  -0.589894  0  2.035306  0  0  -0.542614  0  2.267193  0  0  -0.565907  0  2.257792  0  0  -0.253279  -0.526321  0  2.27297  0
O  O51  1  0.79975323  0.95030508  0.92128395  1  0  -0.58974  0  2.035551  0  0  -0.542493  0  2.267446  0  0  -0.565772  0  2.258039  0  0  -0.253232  -0.526211  0  2.273208  0
O  O52  1  0.47598387  0.74479042  0.53643681  1  0  -0.522204  0  2.076842  0  0  -0.461492  0  2.288928  0  0  -0.484681  0  2.274484  0  0  -0.292751  -0.445556  0  2.298536  0
O  O53  1  0.02401982  0.24477823  0.96356774  1  0  -0.522282  0  2.076787  0  0  -0.461472  0  2.288865  0  0  -0.484682  0  2.274426  0  0  -0.292731  -0.445529  0  2.298445  0
O  O54  1  0.52399974  0.25521487  0.46355980  1  0  -0.52227  0  2.076573  0  0  -0.461543  0  2.288664  0  0  -0.484729  0  2.274194  0  0  -0.292752  -0.445607  0  2.298251  0
O  O55  1  0.97599300  0.75522846  0.03643502  1  0  -0.52229  0  2.076363  0  0  -0.461495  0  2.288401  0  0  -0.48473  0  2.274016  0  0  -0.292666  -0.445553  0  2.297975  0
