# generated using pymatgen
data_Zn4H6C21N3Cl3O13
_symmetry_space_group_name_H-M   'P 1'
_cell_length_a   15.51128543
_cell_length_b   16.25219865
_cell_length_c   16.58303945
_cell_angle_alpha   90.35856117
_cell_angle_beta   117.45434107
_cell_angle_gamma   119.26261886
_symmetry_Int_Tables_number   1
_chemical_formula_structural   Zn4H6C21N3Cl3O13
_chemical_formula_sum   'Zn8 H12 C42 N6 Cl6 O26'
_cell_volume   3088.00541574
_cell_formula_units_Z   2
loop_
 _symmetry_equiv_pos_site_id
 _symmetry_equiv_pos_as_xyz
  1  'x, y, z'
loop_
 _atom_site_type_symbol
 _atom_site_label
 _atom_site_symmetry_multiplicity
 _atom_site_fract_x
 _atom_site_fract_y
 _atom_site_fract_z
 _atom_site_occupancy
 _atom_site_pbe_bader_charge
 _atom_site_pbe_bader_spin_density
 _atom_site_pbe_cm5_charge
 _atom_site_pbe_ddec_charge
 _atom_site_pbe_ddec_spin_density
 _atom_site_pbe_ddec_sum_bond_order
 _atom_site_pbe_magmom
Zn  Zn0  1  0.13743358  0.15908122  0.11067387  1  1.318571  0  0.681885  0.973604  0  2.337704  0
Zn  Zn1  1  0.93203354  0.98091479  0.91461962  1  1.32109  0  0.685901  0.975893  0  2.357469  0
Zn  Zn2  1  0.91962252  0.97437305  0.10277929  1  1.303726  0  0.675467  0.968241  0  2.314019  0
Zn  Zn3  1  0.10292183  0.94565076  0.08562769  1  1.31868  0  0.684603  0.977192  0  2.3224  0
Zn  Zn4  1  0.93920254  0.36276023  0.51849803  1  1.307652  0  0.677172  0.965815  0  2.354416  0
Zn  Zn5  1  0.10499059  0.56672820  0.68398816  1  1.325974  0  0.68724  0.980969  0  2.351996  0
Zn  Zn6  1  0.90652985  0.54142488  0.48019190  1  1.31948  0  0.683072  0.974006  0  2.338316  0
Zn  Zn7  1  0.12959764  0.55323932  0.50129830  1  1.315625  0  0.678891  0.973172  0  2.304005  0
H  H8  1  0.84162355  0.39774590  0.75713583  1  0.096323  0  0.111543  0.135072  0  0.990785  0
H  H9  1  0.88480714  0.24378830  0.96922548  1  0.094392  0  0.115311  0.140447  0  0.981519  0
H  H10  1  0.26089933  0.32486330  0.62542679  1  0.0806  0  0.117274  0.144385  0  0.971362  0
H  H11  1  0.24220687  0.13448562  0.42606724  1  0.112103  0  0.119623  0.146823  0  0.966532  0
H  H12  1  0.74355896  0.28039208  0.19403464  1  0.117915  0  0.117045  0.142008  0  0.976872  0
H  H13  1  0.36885500  0.09218434  0.00480592  1  0.09915  0  0.120068  0.146141  0  0.968662  0
H  H14  1  0.32048041  0.87846668  0.66744372  1  0.129575  0  0.120624  0.147688  0  0.966489  0
H  H15  1  0.68162694  0.07456057  0.89579159  1  0.118085  0  0.107512  0.130098  0  1.005838  0
H  H16  1  0.71545090  0.48327902  0.61666292  1  0.128053  0  0.118187  0.145285  0  0.974872  0
H  H17  1  0.74087668  0.65996271  0.83256446  1  0.094795  0  0.117144  0.142874  0  0.975909  0
H  H18  1  0.82999542  0.46292866  0.19288069  1  0.086854  0  0.110224  0.131193  0  1.004207  0
H  H19  1  0.78324978  0.65022742  0.01640403  1  0.122215  0  0.113972  0.136841  0  0.989422  0
C  C20  1  0.85084428  0.32027661  0.86357136  1  -0.031319  0  0.029496  0.203622  0  4.069727  0
C  C21  1  0.87209631  0.35320023  0.79333306  1  0.073557  0  -0.086866  -0.217017  0  3.909952  0
C  C22  1  0.93615001  0.32882230  0.77280901  1  0.566658  0  0.126798  0.151772  0  3.980317  0
C  C23  1  0.95422705  0.24395048  0.88156047  1  0.557737  0  0.124241  0.148391  0  3.980899  0
C  C24  1  0.89511814  0.26665307  0.91099923  1  0.05564  0  -0.088703  -0.22634  0  3.926008  0
C  C25  1  0.99865283  0.18268883  0.92955631  1  1.598775  0  0.239837  0.598815  0  4.135067  0
C  C26  1  0.97153098  0.37263472  0.70478736  1  1.616267  0  0.242028  0.603195  0  4.135195  0
C  C27  1  0.26259397  0.22891285  0.53539292  1  0.000398  0  0.030037  0.203257  0  4.071175  0
C  C28  1  0.23057106  0.29023349  0.55323491  1  0.062964  0  -0.089495  -0.22851  0  3.924972  0
C  C29  1  0.15656948  0.30435360  0.47455606  1  0.580055  0  0.125722  0.15557  0  3.977521  0
C  C30  1  0.14607117  0.20355056  0.36935295  1  0.567058  0  0.126525  0.155491  0  3.977747  0
C  C31  1  0.21969308  0.18369058  0.44190542  1  0.045447  0  -0.086219  -0.224763  0  3.9146  0
C  C32  1  0.09698693  0.15517058  0.26694519  1  1.598393  0  0.242034  0.60271  0  4.141969  0
C  C33  1  0.11405513  0.36568701  0.48969193  1  1.588961  0  0.242534  0.603105  0  4.135956  0
C  C34  1  0.55800303  0.18743048  0.08837558  1  0.013688  0  0.030316  0.202171  0  4.068859  0
C  C35  1  0.65560964  0.25114987  0.17786150  1  0.002113  0  -0.087739  -0.227312  0  3.928924  0
C  C36  1  0.63619687  0.27509816  0.24629992  1  0.586302  0  0.123933  0.148415  0  3.98373  0
C  C37  1  0.43874053  0.17569322  0.14657619  1  0.588525  0  0.124296  0.146667  0  3.980426  0
C  C38  1  0.44664336  0.14583052  0.07240400  1  0.038198  0  -0.082891  -0.21394  0  3.905531  0
C  C39  1  0.31982839  0.13101036  0.13272175  1  1.5919  0  0.243139  0.603063  0  4.133013  0
C  C40  1  0.73986180  0.34146820  0.34485381  1  1.606705  0  0.23808  0.596853  0  4.148864  0
C  C41  1  0.50019070  0.98699722  0.77950972  1  0.03955  0  0.030911  0.202774  0  4.064587  0
C  C42  1  0.40373663  0.89175279  0.72256540  1  -0.008737  0  -0.084483  -0.221264  0  3.908449  0
C  C43  1  0.41781007  0.81372229  0.73981092  1  0.598072  0  0.127043  0.154188  0  3.979269  0
C  C44  1  0.61019255  0.91751590  0.85548224  1  0.536829  0  0.124496  0.156627  0  3.969742  0
C  C45  1  0.60540709  0.00107687  0.84939667  1  0.030215  0  -0.090872  -0.22646  0  3.923699  0
C  C46  1  0.72640499  0.93089428  0.91994060  1  1.587116  0  0.236178  0.595158  0  4.139015  0
C  C47  1  0.31154390  0.70953518  0.68558499  1  1.599257  0  0.243845  0.60483  0  4.129508  0
C  C48  1  0.71531882  0.56000503  0.72430039  1  0.040882  0  0.03049  0.201139  0  4.07212  0
C  C49  1  0.76395391  0.54904966  0.67552947  1  0.046201  0  -0.086151  -0.221693  0  3.918874  0
C  C50  1  0.87782325  0.62585647  0.70493958  1  0.52548  0  0.121019  0.141093  0  3.983456  0
C  C51  1  0.88971875  0.72070326  0.81613303  1  0.580328  0  0.127674  0.156387  0  3.968706  0
C  C52  1  0.77813830  0.64789668  0.79553471  1  0.004956  0  -0.084196  -0.221053  0  3.907921  0
C  C53  1  0.95515576  0.81941572  0.88764420  1  1.603577  0  0.242316  0.603365  0  4.133018  0
C  C54  1  0.93398029  0.61238548  0.65664385  1  1.567994  0  0.236095  0.588313  0  4.144048  0
C  C55  1  0.79494588  0.54554372  0.09418915  1  0.013362  0  0.030896  0.200378  0  4.066037  0
C  C56  1  0.85337447  0.53540048  0.18314298  1  0.075628  0  -0.086446  -0.217281  0  3.913967  0
C  C57  1  0.94075610  0.62175657  0.26012275  1  0.573617  0  0.126659  0.151385  0  3.972165  0
C  C58  1  0.92107503  0.72051187  0.16588516  1  0.57567  0  0.125846  0.150202  0  3.969997  0
C  C59  1  0.82779968  0.63964645  0.08458024  1  -0.00903  0  -0.085015  -0.21646  0  3.915521  0
C  C60  1  0.96303989  0.82240822  0.15399277  1  1.586299  0  0.238568  0.597418  0  4.127918  0
C  C61  1  0.99276683  0.61035978  0.35841121  1  1.586305  0  0.238299  0.597777  0  4.135827  0
N  N62  1  0.97427727  0.27289392  0.81310197  1  -1.153522  0  -0.309161  -0.292645  0  3.227531  0
N  N63  1  0.11478489  0.26315183  0.38381779  1  -1.160147  0  -0.31344  -0.305892  0  3.229665  0
N  N64  1  0.53058593  0.24130014  0.23149099  1  -1.164212  0  -0.309681  -0.292905  0  3.232075  0
N  N65  1  0.51868299  0.82472736  0.80304311  1  -1.155312  0  -0.311345  -0.299305  0  3.231009  0
N  N66  1  0.94154607  0.71041890  0.77460258  1  -1.146785  0  -0.308302  -0.289745  0  3.230327  0
N  N67  1  0.97669445  0.71337663  0.25299593  1  -1.151633  0  -0.308284  -0.289266  0  3.223636  0
Cl  Cl68  1  0.77426259  0.34875082  0.89392112  1  -0.184205  0  -0.009166  -0.093931  0  1.541545  0
Cl  Cl69  1  0.35342317  0.20755309  0.62871170  1  -0.194739  0  -0.010622  -0.086646  0  1.490473  0
Cl  Cl70  1  0.57453965  0.15894838  0.99844251  1  -0.189998  0  -0.005489  -0.089499  0  1.526241  0
Cl  Cl71  1  0.49001973  0.08719341  0.76264553  1  -0.18835  0  -0.003449  -0.076146  0  1.540285  0
Cl  Cl72  1  0.57843783  0.46595395  0.69594182  1  -0.19111  0  -0.003074  -0.084612  0  1.487773  0
Cl  Cl73  1  0.68086473  0.44225203  0.99707956  1  -0.19222  0  0.000438  -0.070602  0  1.490818  0
O  O74  1  0.02397372  0.01567530  0.05356412  1  -1.227467  0  -0.576438  -1.049857  0  2.551062  0
O  O75  1  0.96028618  0.10112056  0.87639076  1  -1.16008  0  -0.306148  -0.526944  0  2.30266  0
O  O76  1  0.06802610  0.21817082  0.01959373  1  -1.153075  0  -0.304564  -0.528778  0  2.299435  0
O  O77  1  0.06266812  0.46005038  0.74248891  1  -1.169727  0  -0.306429  -0.533079  0  2.300879  0
O  O78  1  0.90729033  0.32060639  0.61811344  1  -1.155889  0  -0.300958  -0.517509  0  2.283684  0
O  O79  1  0.00130818  0.07071008  0.22656850  1  -1.156044  0  -0.303485  -0.527097  0  2.298648  0
O  O80  1  0.15822334  0.20332895  0.23268373  1  -1.161067  0  -0.302132  -0.522029  0  2.298656  0
O  O81  1  0.15851317  0.45184537  0.48058192  1  -1.156054  0  -0.302124  -0.523719  0  2.293178  0
O  O82  1  0.03722002  0.32314851  0.51128737  1  -1.142383  0  -0.305833  -0.528599  0  2.304055  0
O  O83  1  0.26182773  0.03726910  0.11578590  1  -1.154557  0  -0.307722  -0.534204  0  2.305382  0
O  O84  1  0.28945730  0.18941852  0.13810097  1  -1.156321  0  -0.299099  -0.518594  0  2.312436  0
O  O85  1  0.76078192  0.42597435  0.37118765  1  -1.158634  0  -0.303719  -0.525998  0  2.302823  0
O  O86  1  0.79720330  0.30493644  0.39085677  1  -1.166567  0  -0.30696  -0.530242  0  2.306047  0
O  O87  1  0.77590850  0.96652222  0.00933477  1  -1.148895  0  -0.306432  -0.525488  0  2.264831  0
O  O88  1  0.76577695  0.90760466  0.87802473  1  -1.166676  0  -0.310726  -0.540394  0  2.303668  0
O  O89  1  0.27243780  0.67942653  0.59779124  1  -1.164148  0  -0.301094  -0.525553  0  2.289363  0
O  O90  1  0.26963352  0.66379174  0.73362242  1  -1.156992  0  -0.30613  -0.525978  0  2.300469  0
O  O91  1  0.01647643  0.82839292  0.97480071  1  -1.152016  0  -0.300654  -0.526276  0  2.286628  0
O  O92  1  0.93826108  0.88337047  0.85237843  1  -1.154152  0  -0.307577  -0.527151  0  2.293999  0
O  O93  1  0.86912171  0.57798638  0.56580619  1  -1.133137  0  -0.307853  -0.528783  0  2.310544  0
O  O94  1  0.03674572  0.63293211  0.70905768  1  -1.159316  0  -0.304803  -0.528309  0  2.313543  0
O  O95  1  0.88688250  0.84385587  0.12002903  1  -1.148252  0  -0.305543  -0.52829  0  2.277419  0
O  O96  1  0.06808866  0.87584915  0.17477526  1  -1.162063  0  -0.31296  -0.535742  0  2.275133  0
O  O97  1  0.05465326  0.57485967  0.37684232  1  -1.144717  0  -0.302521  -0.521384  0  2.273055  0
O  O98  1  0.96505503  0.63276944  0.41240478  1  -1.164111  0  -0.313651  -0.5392  0  2.277784  0
O  O99  1  0.02124466  0.50713490  0.54662387  1  -1.227885  0  -0.575901  -1.049391  0  2.54672  0
