# generated using pymatgen
data_Zn5H20C26(N9O5)2
_symmetry_space_group_name_H-M   'P 1'
_cell_length_a   12.59051409
_cell_length_b   14.62571250
_cell_length_c   20.31773284
_cell_angle_alpha   90.00008193
_cell_angle_beta   90.00007814
_cell_angle_gamma   89.99994634
_symmetry_Int_Tables_number   1
_chemical_formula_structural   Zn5H20C26(N9O5)2
_chemical_formula_sum   'Zn10 H40 C52 N36 O20'
_cell_volume   3741.41377725
_cell_formula_units_Z   2
loop_
 _symmetry_equiv_pos_site_id
 _symmetry_equiv_pos_as_xyz
  1  'x, y, z'
loop_
 _atom_site_type_symbol
 _atom_site_label
 _atom_site_symmetry_multiplicity
 _atom_site_fract_x
 _atom_site_fract_y
 _atom_site_fract_z
 _atom_site_occupancy
 _atom_site_pbe_bader_charge
 _atom_site_pbe_bader_spin_density
 _atom_site_pbe_cm5_charge
 _atom_site_pbe_ddec_charge
 _atom_site_pbe_ddec_spin_density
 _atom_site_pbe_ddec_sum_bond_order
 _atom_site_pbe_magmom
Zn  Zn0  1  0.70379976  0.33906513  0.23192399  1  1.219929  0  0.694938  0.667877  0  2.477938  0
Zn  Zn1  1  0.29620221  0.33906378  0.76807616  1  1.219844  0  0.69497  0.667988  0  2.477861  0
Zn  Zn2  1  0.20379542  0.66093619  0.26807758  1  1.219917  0  0.694924  0.667876  0  2.477974  0
Zn  Zn3  1  0.79620144  0.66093640  0.73192142  1  1.219894  0  0.694961  0.667928  0  2.477833  0
Zn  Zn4  1  0.53492910  0.18314873  0.26278801  1  1.211422  0  0.732934  0.707327  0  2.47699  0
Zn  Zn5  1  0.46506669  0.18314581  0.73721542  1  1.211367  0  0.732895  0.707274  0  2.476857  0
Zn  Zn6  1  0.03492532  0.81684863  0.23721588  1  1.211466  0  0.732928  0.707257  0  2.476974  0
Zn  Zn7  1  0.96506582  0.81685424  0.76278181  1  1.211239  0  0.732925  0.707178  0  2.47704  0
Zn  Zn8  1  0.50000129  0.99257298  0.00000073  1  1.275467  0  0.667359  0.774131  0  2.352381  0
Zn  Zn9  1  0.00000133  0.00742509  0.49999821  1  1.275465  0  0.66742  0.774086  0  2.352616  0
H  H10  1  0.16833350  0.94494068  0.12168195  1  0.078334  0  0.114702  0.106421  0  1.002399  0
H  H11  1  0.83166624  0.94494458  0.87831489  1  0.07851  0  0.114745  0.106467  0  1.002291  0
H  H12  1  0.66833369  0.05506135  0.37832747  1  0.078313  0  0.114645  0.106248  0  1.002548  0
H  H13  1  0.33166779  0.05506925  0.62167140  1  0.078262  0  0.114626  0.106268  0  1.0026  0
H  H14  1  0.54896565  0.51491305  0.24147676  1  0.165578  0  0.128874  0.1339  0  0.992084  0
H  H15  1  0.45103772  0.51491223  0.75852407  1  0.165604  0  0.128901  0.133963  0  0.992085  0
H  H16  1  0.04896625  0.48508840  0.25852764  1  0.165548  0  0.128897  0.133951  0  0.992062  0
H  H17  1  0.95104351  0.48508919  0.74147020  1  0.165662  0  0.128912  0.134017  0  0.992014  0
H  H18  1  0.39684221  0.73481549  0.17390381  1  0.131511  0  0.13373  0.133635  0  0.969837  0
H  H19  1  0.60315537  0.73480853  0.82610511  1  0.13146  0  0.133767  0.13366  0  0.969783  0
H  H20  1  0.89683968  0.26518772  0.32610335  1  0.131647  0  0.133781  0.133699  0  0.969838  0
H  H21  1  0.10315681  0.26519865  0.67388836  1  0.131576  0  0.133814  0.133727  0  0.969827  0
H  H22  1  0.46102182  0.03938812  0.14778787  1  0.115371  0  0.122925  0.072624  0  1.028092  0
H  H23  1  0.53898047  0.03938674  0.85221640  1  0.115272  0  0.122944  0.072626  0  1.027921  0
H  H24  1  0.96099478  0.96059316  0.35222328  1  0.115242  0  0.1229  0.072602  0  1.027982  0
H  H25  1  0.03899620  0.96060408  0.64777702  1  0.115195  0  0.122935  0.072612  0  1.02801  0
H  H26  1  0.78283074  0.17010172  0.93276739  1  0.456002  0  0.320585  0.318169  0  0.917838  0
H  H27  1  0.21716824  0.17010930  0.06723357  1  0.455937  0  0.320564  0.318125  0  0.918056  0
H  H28  1  0.28283373  0.82988959  0.56723264  1  0.455919  0  0.320565  0.318064  0  0.918106  0
H  H29  1  0.71716454  0.82988928  0.43276753  1  0.455909  0  0.320521  0.31807  0  0.918081  0
H  H30  1  0.69739347  0.07775892  0.95190035  1  0.513511  0  0.293313  0.316564  0  1.014068  0
H  H31  1  0.30261196  0.07776981  0.04810199  1  0.513684  0  0.293319  0.316592  0  1.014147  0
H  H32  1  0.19739235  0.92223040  0.54810010  1  0.513655  0  0.293344  0.316352  0  1.013774  0
H  H33  1  0.80260979  0.92223006  0.45189573  1  0.513634  0  0.293339  0.316621  0  1.014093  0
H  H34  1  0.80806621  0.35799122  0.10198337  1  0.120411  0  0.134494  0.086422  0  0.959283  0
H  H35  1  0.19193018  0.35799294  0.89801188  1  0.120301  0  0.134563  0.086509  0  0.95932  0
H  H36  1  0.30806773  0.64200318  0.39801338  1  0.120257  0  0.134542  0.086512  0  0.959243  0
H  H37  1  0.69193789  0.64200254  0.60198512  1  0.120351  0  0.134447  0.086403  0  0.959171  0
H  H38  1  0.31781959  0.31214838  0.30247794  1  0.109638  0  0.119688  0.107327  0  0.995985  0
H  H39  1  0.68217288  0.31214110  0.69751824  1  0.108317  0  0.119658  0.107286  0  0.996037  0
H  H40  1  0.81780918  0.68785079  0.19752865  1  0.109643  0  0.119725  0.107465  0  0.995912  0
H  H41  1  0.18217494  0.68786738  0.80247333  1  0.108397  0  0.119666  0.107344  0  0.995943  0
H  H42  1  0.39403898  0.03753810  0.26765751  1  0.641657  0  0.353593  0.427798  0  0.844414  0
H  H43  1  0.60595855  0.03753643  0.73234676  1  0.641595  0  0.35364  0.427838  0  0.844338  0
H  H44  1  0.89403471  0.96246648  0.23234521  1  0.641553  0  0.353712  0.427797  0  0.844323  0
H  H45  1  0.10595785  0.96246528  0.76765509  1  0.641602  0  0.353609  0.42777  0  0.844389  0
H  H46  1  0.37555288  0.09646180  0.33077531  1  0.630518  0  0.364731  0.441052  0  0.818618  0
H  H47  1  0.62444300  0.09645793  0.66922902  1  0.630631  0  0.364794  0.441112  0  0.818524  0
H  H48  1  0.87555171  0.90354143  0.16922790  1  0.630562  0  0.364744  0.441031  0  0.818626  0
H  H49  1  0.12443536  0.90354034  0.83077382  1  0.630638  0  0.364751  0.441087  0  0.818581  0
C  C50  1  0.63597879  0.15220914  0.06779532  1  0.469728  0  0.076448  -0.035841  0  3.99205  0
C  C51  1  0.36402259  0.15221490  0.93221054  1  0.469231  0  0.076461  -0.035722  0  3.991797  0
C  C52  1  0.13597142  0.84778061  0.43221211  1  0.469707  0  0.076388  -0.035822  0  3.991847  0
C  C53  1  0.86403239  0.84778181  0.56778857  1  0.468788  0  0.076363  -0.035789  0  3.991915  0
C  C54  1  0.21175116  0.88765869  0.14246772  1  0.4  0  0.002589  -0.032906  0  4.032154  0
C  C55  1  0.78824387  0.88766190  0.85752955  1  0.400041  0  0.002516  -0.032918  0  4.032268  0
C  C56  1  0.71174410  0.11234673  0.35754124  1  0.399682  0  0.002855  -0.032407  0  4.031926  0
C  C57  1  0.28825018  0.11235197  0.64245720  1  0.40013  0  0.002687  -0.032739  0  4.032404  0
C  C58  1  0.50552903  0.45410237  0.25596897  1  0.38624  0  0.031402  0.019355  0  3.908591  0
C  C59  1  0.49447679  0.45410286  0.74403228  1  0.38627  0  0.031266  0.019197  0  3.908846  0
C  C60  1  0.00552715  0.54589706  0.24403440  1  0.385647  0  0.031404  0.019325  0  3.908655  0
C  C61  1  0.99448096  0.54590127  0.75596301  1  0.386315  0  0.031298  0.019066  0  3.908737  0
C  C62  1  0.39932768  0.44329612  0.27561826  1  0.08244  0  -0.044349  -0.139615  0  4.053876  0
C  C63  1  0.60067260  0.44329375  0.72437462  1  0.082207  0  -0.044197  -0.13947  0  4.053931  0
C  C64  1  0.89932621  0.55670231  0.22438792  1  0.083111  0  -0.044301  -0.139478  0  4.053772  0
C  C65  1  0.10068030  0.55671480  0.77561492  1  0.081501  0  -0.044183  -0.139382  0  4.05404  0
C  C66  1  0.63506306  0.19751298  0.12887696  1  0.938291  0  0.204624  0.302965  0  4.079521  0
C  C67  1  0.36493509  0.19751725  0.87112501  1  0.938405  0  0.204651  0.302952  0  4.079409  0
C  C68  1  0.13505958  0.80247951  0.37112603  1  0.938416  0  0.204571  0.302889  0  4.07961  0
C  C69  1  0.86495063  0.80247946  0.62887115  1  0.938536  0  0.204533  0.302944  0  4.079595  0
C  C70  1  0.32912294  0.78030937  0.16917739  1  0.465338  0  0.028781  0.012165  0  3.925899  0
C  C71  1  0.67087776  0.78030715  0.83082666  1  0.465133  0  0.028737  0.012168  0  3.926007  0
C  C72  1  0.82912285  0.21969322  0.33083315  1  0.465131  0  0.028639  0.011942  0  3.925871  0
C  C73  1  0.17087448  0.21970066  0.66916294  1  0.464849  0  0.028645  0.011835  0  3.925814  0
C  C74  1  0.39178901  0.89951986  0.08352226  1  1.520102  0  0.185203  0.573181  0  4.261546  0
C  C75  1  0.60820998  0.89951855  0.91648438  1  1.520604  0  0.185262  0.573217  0  4.261681  0
C  C76  1  0.89178844  0.10048131  0.41648441  1  1.520042  0  0.185316  0.573315  0  4.261607  0
C  C77  1  0.10820902  0.10048248  0.58351107  1  1.520565  0  0.185322  0.573  0  4.261781  0
C  C78  1  0.52184535  0.08640323  0.13073631  1  0.972064  0  0.134216  0.177997  0  4.022389  0
C  C79  1  0.47815610  0.08640603  0.86926801  1  0.971622  0  0.134258  0.178135  0  4.021943  0
C  C80  1  0.02182983  0.91358046  0.36927150  1  0.971944  0  0.134213  0.178025  0  4.022108  0
C  C81  1  0.97816914  0.91358922  0.63072678  1  0.973734  0  0.134177  0.177955  0  4.022023  0
C  C82  1  0.31573897  0.85822212  0.12938460  1  0.020979  0  -0.054536  -0.165583  0  4.100823  0
C  C83  1  0.68426245  0.85821723  0.87062150  1  0.021357  0  -0.054552  -0.165601  0  4.100791  0
C  C84  1  0.81573746  0.14178048  0.37062199  1  0.021568  0  -0.054603  -0.165605  0  4.100488  0
C  C85  1  0.18426313  0.14178783  0.62937205  1  0.021029  0  -0.054529  -0.165393  0  4.100708  0
C  C86  1  0.75918419  0.29766870  0.09269734  1  1.103198  0  0.173651  0.257565  0  4.028327  0
C  C87  1  0.24081068  0.29767177  0.90730228  1  1.10349  0  0.17356  0.257444  0  4.028237  0
C  C88  1  0.25918646  0.70232506  0.40730478  1  1.103992  0  0.173645  0.257542  0  4.028355  0
C  C89  1  0.74081910  0.70232983  0.59269427  1  1.103406  0  0.173727  0.257786  0  4.028229  0
C  C90  1  0.38804305  0.34939370  0.28695067  1  0.394322  0  0.015001  -0.009764  0  4.005272  0
C  C91  1  0.61195414  0.34938856  0.71304752  1  0.395605  0  0.014963  -0.0098  0  4.005381  0
C  C92  1  0.88803828  0.65060610  0.21305254  1  0.394154  0  0.015008  -0.01  0  4.005382  0
C  C93  1  0.11195224  0.65061656  0.78694596  1  0.396033  0  0.014925  -0.009998  0  4.005426  0
C  C94  1  0.70923705  0.18331046  0.01970733  1  1.029684  0  0.239531  0.416858  0  4.130825  0
C  C95  1  0.29076350  0.18331705  0.98029414  1  1.029159  0  0.239615  0.416872  0  4.130929  0
C  C96  1  0.20923697  0.81667992  0.48029475  1  1.028843  0  0.2397  0.416865  0  4.13078  0
C  C97  1  0.79077085  0.81668177  0.51970343  1  1.030011  0  0.2397  0.416917  0  4.130607  0
C  C98  1  0.31580842  0.51303909  0.28107162  1  1.558964  0  0.18641  0.5732  0  4.268403  0
C  C99  1  0.68419813  0.51303185  0.71892477  1  1.559111  0  0.186361  0.573304  0  4.268702  0
C  C100  1  0.81580781  0.48695736  0.21893694  1  1.558778  0  0.186287  0.573121  0  4.268752  0
C  C101  1  0.18420910  0.48698552  0.78107173  1  1.558886  0  0.186372  0.573479  0  4.26829  0
N  N102  1  0.56240605  0.15422764  0.16892764  1  -1.247718  0  -0.379881  -0.405894  0  3.5485  0
N  N103  1  0.43758898  0.15422766  0.83107577  1  -1.246847  0  -0.37993  -0.406018  0  3.548441  0
N  N104  1  0.06239688  0.84576149  0.33107874  1  -1.247119  0  -0.379821  -0.405856  0  3.548629  0
N  N105  1  0.93760535  0.84576762  0.66891996  1  -1.248777  0  -0.379793  -0.405807  0  3.548417  0
N  N106  1  0.48106230  0.30738544  0.27508667  1  -0.842378  0  -0.297309  -0.229871  0  3.657764  0
N  N107  1  0.51893574  0.30738245  0.72491394  1  -0.842323  0  -0.297248  -0.229805  0  3.657686  0
N  N108  1  0.98105671  0.69261428  0.22491466  1  -0.842284  0  -0.297359  -0.229838  0  3.657819  0
N  N109  1  0.01892820  0.69261933  0.77508635  1  -0.84219  0  -0.29723  -0.229703  0  3.65767  0
N  N110  1  0.16745042  0.83143517  0.18694360  1  -0.823504  0  -0.291826  -0.212056  0  3.645351  0
N  N111  1  0.83254308  0.83143825  0.81305263  1  -0.823784  0  -0.291772  -0.212063  0  3.645534  0
N  N112  1  0.66745274  0.16856755  0.31306237  1  -0.823562  0  -0.2919  -0.212327  0  3.645809  0
N  N113  1  0.33254068  0.16857079  0.68693859  1  -0.823352  0  -0.291783  -0.212111  0  3.645454  0
N  N114  1  0.56225666  0.08192200  0.07012474  1  -1.21976  0  -0.350399  -0.309751  0  3.501821  0
N  N115  1  0.43774479  0.08192701  0.92987859  1  -1.219424  0  -0.350378  -0.309784  0  3.50159  0
N  N116  1  0.06224683  0.91806439  0.42988212  1  -1.219868  0  -0.350338  -0.309687  0  3.50153  0
N  N117  1  0.93775531  0.91806827  0.57011616  1  -1.219537  0  -0.350357  -0.309728  0  3.501575  0
N  N118  1  0.55399096  0.37247487  0.25603244  1  -0.808369  0  -0.274531  -0.180403  0  3.567288  0
N  N119  1  0.44601098  0.37247677  0.74397119  1  -0.808294  0  -0.274553  -0.180493  0  3.567465  0
N  N120  1  0.05398819  0.62752520  0.24396950  1  -0.808277  0  -0.274547  -0.180438  0  3.567343  0
N  N121  1  0.94600633  0.62752398  0.75602898  1  -0.808331  0  -0.274541  -0.180369  0  3.56728  0
N  N122  1  0.23975173  0.76488387  0.20315998  1  -0.795502  0  -0.267397  -0.178076  0  3.533522  0
N  N123  1  0.76024422  0.76488424  0.79683914  1  -0.795296  0  -0.267448  -0.178191  0  3.533733  0
N  N124  1  0.73975474  0.23511948  0.29684606  1  -0.795336  0  -0.267419  -0.178017  0  3.533335  0
N  N125  1  0.26024179  0.23512418  0.70315103  1  -0.795395  0  -0.26749  -0.178045  0  3.533299  0
N  N126  1  0.69649341  0.27104922  0.14304298  1  -1.264318  0  -0.349385  -0.366205  0  3.540117  0
N  N127  1  0.30350466  0.27104872  0.85695612  1  -1.264577  0  -0.349395  -0.366224  0  3.539941  0
N  N128  1  0.19649237  0.72894664  0.35695860  1  -1.264375  0  -0.349419  -0.366349  0  3.540175  0
N  N129  1  0.80351475  0.72894599  0.64303851  1  -1.264313  0  -0.349363  -0.366395  0  3.540069  0
N  N130  1  0.72395392  0.14327162  0.96077245  1  -1.275588  0  -0.564417  -0.606628  0  3.321216  0
N  N131  1  0.27604509  0.14327978  0.03922800  1  -1.27561  0  -0.564448  -0.606613  0  3.321629  0
N  N132  1  0.22395364  0.85671836  0.53922950  1  -1.275244  0  -0.56446  -0.60616  0  3.321426  0
N  N133  1  0.77604698  0.85671874  0.46076922  1  -1.27562  0  -0.56441  -0.606543  0  3.321459  0
N  N134  1  0.76843476  0.25819364  0.03405692  1  -1.216921  0  -0.350455  -0.428339  0  3.25793  0
N  N135  1  0.23156332  0.25819957  0.96594314  1  -1.216544  0  -0.350521  -0.42837  0  3.257959  0
N  N136  1  0.26843553  0.74179669  0.46594373  1  -1.2173  0  -0.350541  -0.428371  0  3.258095  0
N  N137  1  0.73157316  0.74179930  0.53405438  1  -1.217104  0  -0.350543  -0.428497  0  3.257994  0
O  O138  1  0.35643534  0.96528142  0.04582614  1  -1.189026  0  -0.346974  -0.587778  0  2.271691  0
O  O139  1  0.64356755  0.96527742  0.95418106  1  -1.189072  0  -0.347005  -0.587731  0  2.271657  0
O  O140  1  0.85643333  0.03471978  0.45417803  1  -1.18909  0  -0.347014  -0.587798  0  2.27185  0
O  O141  1  0.14357215  0.03472631  0.54581590  1  -1.18924  0  -0.347032  -0.587504  0  2.271467  0
O  O142  1  0.34087484  0.59562033  0.26214289  1  -1.159669  0  -0.352365  -0.552606  0  2.234057  0
O  O143  1  0.65912288  0.59561179  0.73784916  1  -1.159526  0  -0.352335  -0.552659  0  2.234062  0
O  O144  1  0.84087992  0.40437472  0.23785290  1  -1.159698  0  -0.352246  -0.552537  0  2.234362  0
O  O145  1  0.15914660  0.40439193  0.76215618  1  -1.159826  0  -0.352369  -0.55277  0  2.23381  0
O  O146  1  0.22485903  0.49309413  0.30214676  1  -1.177349  0  -0.339579  -0.56241  0  2.083197  0
O  O147  1  0.77513801  0.49308268  0.69784617  1  -1.177544  0  -0.339587  -0.562437  0  2.083359  0
O  O148  1  0.72485676  0.50690717  0.19787059  1  -1.177243  0  -0.339583  -0.562386  0  2.083343  0
O  O149  1  0.27516092  0.50694829  0.80212925  1  -1.177098  0  -0.339574  -0.56252  0  2.083434  0
O  O150  1  0.48741737  0.87489948  0.08128877  1  -1.154359  0  -0.332034  -0.535316  0  2.076635  0
O  O151  1  0.51258642  0.87490440  0.91871981  1  -1.15487  0  -0.331984  -0.535293  0  2.076953  0
O  O152  1  0.98741916  0.12509819  0.41871995  1  -1.154375  0  -0.332066  -0.535423  0  2.076672  0
O  O153  1  0.01258304  0.12509943  0.58127555  1  -1.15439  0  -0.332067  -0.535346  0  2.076932  0
O  O154  1  0.42808287  0.08063551  0.29749749  1  -1.198663  0  -0.530648  -0.700455  0  2.045975  0
O  O155  1  0.57191461  0.08063448  0.70250633  1  -1.198705  0  -0.530743  -0.700536  0  2.045844  0
O  O156  1  0.92807938  0.91936563  0.20250625  1  -1.198616  0  -0.530775  -0.700417  0  2.045895  0
O  O157  1  0.07190926  0.91936794  0.79749401  1  -1.1987  0  -0.530701  -0.70045  0  2.045929  0
