# generated using pymatgen
data_ZnH14C24N4(ClO2)2
_symmetry_space_group_name_H-M   'P 1'
_cell_length_a   7.72021491
_cell_length_b   12.28406158
_cell_length_c   12.73425080
_cell_angle_alpha   104.93774095
_cell_angle_beta   91.09994785
_cell_angle_gamma   88.58858960
_symmetry_Int_Tables_number   1
_chemical_formula_structural   ZnH14C24N4(ClO2)2
_chemical_formula_sum   'Zn2 H28 C48 N8 Cl4 O8'
_cell_volume   1166.39198101
_cell_formula_units_Z   2
loop_
 _symmetry_equiv_pos_site_id
 _symmetry_equiv_pos_as_xyz
  1  'x, y, z'
loop_
 _atom_site_type_symbol
 _atom_site_label
 _atom_site_symmetry_multiplicity
 _atom_site_fract_x
 _atom_site_fract_y
 _atom_site_fract_z
 _atom_site_occupancy
 _atom_site_hle17_bader_spin_density
 _atom_site_hle17_ddec_charge
 _atom_site_hle17_ddec_spin_density
 _atom_site_hle17_ddec_sum_bond_order
 _atom_site_hle17_magmom
 _atom_site_hse06_10hf_bader_spin_density
 _atom_site_hse06_10hf_ddec_charge
 _atom_site_hse06_10hf_ddec_spin_density
 _atom_site_hse06_10hf_ddec_sum_bond_order
 _atom_site_hse06_10hf_magmom
 _atom_site_hse06_bader_spin_density
 _atom_site_hse06_ddec_charge
 _atom_site_hse06_ddec_spin_density
 _atom_site_hse06_ddec_sum_bond_order
 _atom_site_hse06_magmom
 _atom_site_pbe_bader_spin_density
 _atom_site_pbe_cm5_charge
 _atom_site_pbe_ddec_charge
 _atom_site_pbe_ddec_spin_density
 _atom_site_pbe_ddec_sum_bond_order
 _atom_site_pbe_magmom
Zn  Zn0  1  0.38927907  0.95973125  0.29228903  1  0  0.972669  0  1.847196  0  0  0.77795  0  2.301033  0  0  0.827655  0  2.249952  0  0  0.688795  0.743238  0  2.336006  0
Zn  Zn1  1  0.61071776  0.04027073  0.70771542  1  0  0.972754  0  1.847097  0  0  0.778052  0  2.300934  0  0  0.827757  0  2.249834  0  0  0.688875  0.743347  0  2.335908  0
H  H2  1  0.99402939  0.94314102  0.29158901  1  0  0.091525  0  0.928936  0  0  0.096135  0  0.999576  0  0  0.099643  0  0.99579  0  0  0.118361  0.093587  0  1.0023  0
H  H3  1  0.00597008  0.05685262  0.70840388  1  0  0.091555  0  0.928978  0  0  0.096195  0  0.999585  0  0  0.099692  0  0.995829  0  0  0.118377  0.093659  0  1.002304  0
H  H4  1  0.33916258  0.10271580  0.13775114  1  0  0.122694  0  0.964375  0  0  0.127524  0  1.029631  0  0  0.1317  0  1.024809  0  0  0.124323  0.12437  0  1.033339  0
H  H5  1  0.66084464  0.89727945  0.86224225  1  0  0.122661  0  0.964406  0  0  0.127473  0  1.029695  0  0  0.131652  0  1.024864  0  0  0.12429  0.124308  0  1.033421  0
H  H6  1  0.78742614  0.14240355  0.08422094  1  0  0.117265  0  0.964027  0  0  0.125065  0  1.031115  0  0  0.128134  0  1.028768  0  0  0.110488  0.122763  0  1.032855  0
H  H7  1  0.21258107  0.85759421  0.91577388  1  0  0.117301  0  0.963849  0  0  0.125076  0  1.030992  0  0  0.128143  0  1.028648  0  0  0.11047  0.122804  0  1.03269  0
H  H8  1  0.38642279  0.41304598  0.44342744  1  0  0.083614  0  0.947083  0  0  0.085158  0  1.02257  0  0  0.089186  0  1.01821  0  0  0.109321  0.082247  0  1.025705  0
H  H9  1  0.61355594  0.58695030  0.55657376  1  0  0.083564  0  0.946961  0  0  0.085079  0  1.022508  0  0  0.089106  0  1.018149  0  0  0.109266  0.082166  0  1.025643  0
H  H10  1  0.20628842  0.53099650  0.75928561  1  0  0.082253  0  0.931667  0  0  0.09133  0  0.993124  0  0  0.094426  0  0.990527  0  0  0.109339  0.089084  0  0.994992  0
H  H11  1  0.79369927  0.46901320  0.24071603  1  0  0.082352  0  0.931629  0  0  0.091382  0  0.993131  0  0  0.094471  0  0.990541  0  0  0.109303  0.089132  0  0.995004  0
H  H12  1  0.26303184  0.17145122  0.62113830  1  0  0.134033  0  0.943499  0  0  0.141121  0  1.010512  0  0  0.145735  0  1.005476  0  0  0.11188  0.137683  0  1.014267  0
H  H13  1  0.73698574  0.82855707  0.37888685  1  0  0.133809  0  0.943688  0  0  0.14095  0  1.010664  0  0  0.145563  0  1.005631  0  0  0.111823  0.137539  0  1.014383  0
H  H14  1  0.46829353  0.86442703  0.02884292  1  0  0.099554  0  0.950569  0  0  0.103941  0  1.019936  0  0  0.107102  0  1.016596  0  0  0.119364  0.101605  0  1.022366  0
H  H15  1  0.53170067  0.13558089  0.97116146  1  0  0.099598  0  0.95053  0  0  0.103979  0  1.019871  0  0  0.107141  0  1.016526  0  0  0.11939  0.101585  0  1.022383  0
H  H16  1  0.43659167  0.67967326  0.88761627  1  0  0.116348  0  0.926889  0  0  0.132021  0  0.974325  0  0  0.135002  0  0.974016  0  0  0.114534  0.129853  0  0.97474  0
H  H17  1  0.56341548  0.32033373  0.11238408  1  0  0.11635  0  0.926852  0  0  0.132016  0  0.974305  0  0  0.134994  0  0.973988  0  0  0.114528  0.12985  0  0.974711  0
H  H18  1  0.33217424  0.51200395  0.94606871  1  0  0.087932  0  0.976057  0  0  0.095172  0  1.046307  0  0  0.098012  0  1.044653  0  0  0.096258  0.093035  0  1.047616  0
H  H19  1  0.66784330  0.48799958  0.05393007  1  0  0.087951  0  0.976135  0  0  0.095193  0  1.046373  0  0  0.098047  0  1.044704  0  0  0.096287  0.09306  0  1.047674  0
H  H20  1  0.24464498  0.43020492  0.10034153  1  0  0.088529  0  0.989053  0  0  0.093882  0  1.061435  0  0  0.096802  0  1.060513  0  0  0.090206  0.091787  0  1.062153  0
H  H21  1  0.75535054  0.56979715  0.89965664  1  0  0.088511  0  0.988876  0  0  0.093866  0  1.061279  0  0  0.096787  0  1.060356  0  0  0.09022  0.091773  0  1.061994  0
H  H22  1  0.18285620  0.45867787  0.29512453  1  0  0.106538  0  0.930965  0  0  0.121006  0  0.983433  0  0  0.123822  0  0.982466  0  0  0.110826  0.118909  0  0.984274  0
H  H23  1  0.81713936  0.54131830  0.70487133  1  0  0.106533  0  0.930853  0  0  0.120981  0  0.983352  0  0  0.123798  0  0.982382  0  0  0.110805  0.118888  0  0.984192  0
H  H24  1  0.15657546  0.59194519  0.48437584  1  0  0.102797  0  0.953842  0  0  0.110811  0  1.018181  0  0  0.11406  0  1.015635  0  0  0.108417  0.108422  0  1.020059  0
H  H25  1  0.84342012  0.40804764  0.51561758  1  0  0.102835  0  0.953812  0  0  0.110839  0  1.018164  0  0  0.114087  0  1.015619  0  0  0.108413  0.108452  0  1.020036  0
H  H26  1  0.17910716  0.78807377  0.60202270  1  0  0.111852  0  0.936749  0  0  0.123997  0  0.98912  0  0  0.126616  0  0.989589  0  0  0.11229  0.122119  0  0.988977  0
H  H27  1  0.82087936  0.21191997  0.39797243  1  0  0.111837  0  0.936742  0  0  0.124024  0  0.989052  0  0  0.126645  0  0.989519  0  0  0.112311  0.122147  0  0.98891  0
H  H28  1  0.27405470  0.94164567  0.52033307  1  0  0.103597  0  0.944323  0  0  0.108962  0  1.010691  0  0  0.112745  0  1.006411  0  0  0.122813  0.106148  0  1.013791  0
H  H29  1  0.72594605  0.05835291  0.47966975  1  0  0.103636  0  0.944268  0  0  0.10903  0  1.010589  0  0  0.112812  0  1.006305  0  0  0.12284  0.10622  0  1.013689  0
C  C30  1  0.68478956  0.00988603  0.20534233  1  0  0.637905  0  3.944274  0  0  0.583857  0  4.243014  0  0  0.619171  0  4.235344  0  0  0.200541  0.560074  0  4.2473  0
C  C31  1  0.31519682  0.99011720  0.79463641  1  0  0.637526  0  3.944553  0  0  0.58336  0  4.243454  0  0  0.618676  0  4.235798  0  0  0.200311  0.559586  0  4.247715  0
C  C32  1  0.86853503  0.04015387  0.19071780  1  0  -0.09146  0  3.760189  0  0  -0.065875  0  4.002695  0  0  -0.077788  0  4.024993  0  0  -0.011654  -0.058597  0  3.988059  0
C  C33  1  0.13146961  0.95983807  0.80927156  1  0  -0.091504  0  3.759963  0  0  -0.065849  0  4.002471  0  0  -0.077759  0  4.024767  0  0  -0.011659  -0.058555  0  3.987818  0
C  C34  1  0.01122444  0.99782092  0.23753210  1  0  0.116033  0  3.661143  0  0  0.065908  0  3.923644  0  0  0.076148  0  3.938064  0  0  0.051008  0.059047  0  3.914385  0
C  C35  1  0.98876849  0.00217789  0.76245734  1  0  0.115846  0  3.660922  0  0  0.065656  0  3.923463  0  0  0.075888  0  3.937884  0  0  0.05087  0.058737  0  3.914297  0
C  C36  1  0.20407479  0.08811332  0.15150710  1  0  0.089244  0  3.643335  0  0  0.045344  0  3.891405  0  0  0.053961  0  3.905466  0  0  0.051313  0.039797  0  3.882084  0
C  C37  1  0.79592206  0.91188204  0.84848542  1  0  0.089376  0  3.643367  0  0  0.045464  0  3.89144  0  0  0.054084  0  3.905503  0  0  0.05133  0.039927  0  3.882128  0
C  C38  1  0.06670495  0.13508601  0.10448344  1  0  0.083561  0  3.808172  0  0  0.101412  0  4.075047  0  0  0.098692  0  4.096829  0  0  0.014744  0.102598  0  4.060568  0
C  C39  1  0.93330357  0.86490756  0.89550796  1  0  0.08339  0  3.808498  0  0  0.101256  0  4.075367  0  0  0.098531  0  4.097155  0  0  0.014755  0.10243  0  4.060904  0
C  C40  1  0.89743270  0.11031477  0.12250143  1  0  -0.078961  0  3.706488  0  0  -0.118132  0  3.950863  0  0  -0.113577  0  3.968075  0  0  -0.068843  -0.120597  0  3.939283  0
C  C41  1  0.10256152  0.88968405  0.87748568  1  0  -0.078837  0  3.706643  0  0  -0.118  0  3.95102  0  0  -0.113447  0  3.968239  0  0  -0.068756  -0.120481  0  3.939393  0
C  C42  1  0.37006223  0.18816781  0.41957363  1  0  0.626527  0  3.970046  0  0  0.579218  0  4.263103  0  0  0.612823  0  4.258157  0  0  0.190993  0.556586  0  4.26542  0
C  C43  1  0.62993337  0.81182906  0.58043497  1  0  0.626482  0  3.970007  0  0  0.579102  0  4.263193  0  0  0.612706  0  4.258251  0  0  0.190923  0.556479  0  4.265497  0
C  C44  1  0.32639996  0.28130186  0.51939306  1  0  -0.088001  0  3.735878  0  0  -0.06049  0  3.967319  0  0  -0.0715  0  3.991726  0  0  -0.014014  -0.053686  0  3.951146  0
C  C45  1  0.67360336  0.71870083  0.48061713  1  0  -0.088151  0  3.7357  0  0  -0.060577  0  3.967115  0  0  -0.071591  0  3.991522  0  0  -0.013976  -0.053772  0  3.950946  0
C  C46  1  0.33897044  0.39418060  0.51693228  1  0  0.097328  0  3.703298  0  0  0.062179  0  3.962341  0  0  0.068718  0  3.978964  0  0  0.043491  0.058042  0  3.951019  0
C  C47  1  0.66101477  0.60581643  0.48307154  1  0  0.097323  0  3.703181  0  0  0.062185  0  3.962226  0  0  0.068726  0  3.97885  0  0  0.043543  0.058045  0  3.950909  0
C  C48  1  0.24219413  0.45934354  0.69193266  1  0  0.042484  0  3.759681  0  0  0.007991  0  4.022882  0  0  0.014093  0  4.03784  0  0  0.030245  0.004273  0  4.012432  0
C  C49  1  0.75779877  0.54066356  0.30807071  1  0  0.042117  0  3.759529  0  0  0.00763  0  4.022805  0  0  0.013738  0  4.037753  0  0  0.030243  0.003917  0  4.012355  0
C  C50  1  0.22924851  0.34914171  0.70182792  1  0  0.07746  0  3.809518  0  0  0.092731  0  4.080231  0  0  0.090903  0  4.10337  0  0  0.007214  0.093465  0  4.064661  0
C  C51  1  0.77076379  0.65087352  0.29818640  1  0  0.077676  0  3.809666  0  0  0.092943  0  4.080376  0  0  0.09112  0  4.103506  0  0  0.007286  0.093675  0  4.064805  0
C  C52  1  0.27122587  0.25804449  0.61502224  1  0  -0.085748  0  3.684391  0  0  -0.12686  0  3.936397  0  0  -0.123522  0  3.953481  0  0  -0.075131  -0.128553  0  3.924826  0
C  C53  1  0.72878654  0.74195888  0.38499451  1  0  -0.085418  0  3.684709  0  0  -0.126582  0  3.936759  0  0  -0.123243  0  3.953844  0  0  -0.075054  -0.128301  0  3.925165  0
C  C54  1  0.42272454  0.78951934  0.05019574  1  0  0.139596  0  3.686868  0  0  0.102468  0  3.955592  0  0  0.11076  0  3.970743  0  0  0.053051  0.097091  0  3.94532  0
C  C55  1  0.57727487  0.21048431  0.94980838  1  0  0.13955  0  3.68673  0  0  0.102456  0  3.955421  0  0  0.110748  0  3.970572  0  0  0.053034  0.097113  0  3.945168  0
C  C56  1  0.40463874  0.68576108  0.97203073  1  0  -0.128865  0  3.742836  0  0  -0.14573  0  4.004808  0  0  -0.152462  0  4.024849  0  0  -0.087465  -0.141373  0  3.991256  0
C  C57  1  0.59536193  0.31424599  0.02796878  1  0  -0.128797  0  3.742893  0  0  -0.145666  0  4.004857  0  0  -0.15239  0  4.024897  0  0  -0.087439  -0.141303  0  3.991283  0
C  C58  1  0.34779851  0.59360539  0.00427976  1  0  -0.053191  0  3.70962  0  0  -0.077488  0  3.960036  0  0  -0.075162  0  3.978088  0  0  -0.070202  -0.078678  0  3.947682  0
C  C59  1  0.65220739  0.40639570  0.99572063  1  0  -0.053279  0  3.709837  0  0  -0.077595  0  3.960227  0  0  -0.075282  0  3.978273  0  0  -0.070273  -0.078784  0  3.947866  0
C  C60  1  0.31013098  0.60479574  0.11477804  1  0  0.024938  0  3.798434  0  0  0.040399  0  4.029114  0  0  0.037966  0  4.053218  0  0  -0.007894  0.041858  0  4.012832  0
C  C61  1  0.68987490  0.39520874  0.88522243  1  0  0.024782  0  3.798387  0  0  0.040346  0  4.02898  0  0  0.037911  0  4.053089  0  0  -0.007984  0.041806  0  4.0127  0
C  C62  1  0.32896676  0.71323830  0.18700673  1  0  0.127233  0  3.76732  0  0  0.119682  0  4.007027  0  0  0.123813  0  4.028737  0  0  0.114546  0.116926  0  3.992374  0
C  C63  1  0.67104173  0.28676192  0.81299345  1  0  0.127254  0  3.767291  0  0  0.119646  0  4.007065  0  0  0.12378  0  4.028776  0  0  0.114579  0.116889  0  3.99242  0
C  C64  1  0.25652992  0.51337882  0.15633599  1  0  -0.107924  0  3.762915  0  0  -0.129765  0  4.018157  0  0  -0.133028  0  4.040986  0  0  -0.090475  -0.127444  0  4.002643  0
C  C65  1  0.74347594  0.48662239  0.84365421  1  0  -0.107653  0  3.762945  0  0  -0.129529  0  4.018155  0  0  -0.132791  0  4.040982  0  0  -0.090344  -0.127208  0  4.002641  0
C  C66  1  0.22148817  0.52930033  0.26414404  1  0  -0.09502  0  3.738648  0  0  -0.118067  0  3.992597  0  0  -0.120975  0  4.015399  0  0  -0.082259  -0.116003  0  3.977117  0
C  C67  1  0.77850999  0.47069828  0.73585797  1  0  -0.095153  0  3.739026  0  0  -0.118176  0  3.992997  0  0  -0.121084  0  4.0158  0  0  -0.082307  -0.11611  0  3.977505  0
C  C68  1  0.23303216  0.63855285  0.33859445  1  0  0.024094  0  3.796013  0  0  0.03837  0  4.031635  0  0  0.035006  0  4.057743  0  0  -0.002129  0.040445  0  4.014047  0
C  C69  1  0.76697113  0.36144914  0.66140300  1  0  0.024223  0  3.795766  0  0  0.038461  0  4.031459  0  0  0.035098  0  4.057565  0  0  -0.002068  0.040538  0  4.013874  0
C  C70  1  0.28635688  0.73080273  0.29998618  1  0  0.125847  0  3.759733  0  0  0.117377  0  3.99794  0  0  0.121526  0  4.020884  0  0  0.114354  0.114626  0  3.982441  0
C  C71  1  0.71365165  0.26919412  0.70001314  1  0  0.125849  0  3.759486  0  0  0.117361  0  3.997794  0  0  0.121508  0  4.020736  0  0  0.114312  0.114612  0  3.982299  0
C  C72  1  0.19324467  0.66056653  0.45004099  1  0  -0.033399  0  3.666233  0  0  -0.059499  0  3.918267  0  0  -0.056772  0  3.936188  0  0  -0.05554  -0.061049  0  3.906109  0
C  C73  1  0.80674833  0.33942711  0.54995732  1  0  -0.033475  0  3.66655  0  0  -0.059565  0  3.918604  0  0  -0.05684  0  3.936526  0  0  -0.055576  -0.061112  0  3.906433  0
C  C74  1  0.20619424  0.76894684  0.51560402  1  0  -0.095595  0  3.698365  0  0  -0.108921  0  3.951386  0  0  -0.116028  0  3.97221  0  0  -0.072604  -0.104479  0  3.937516  0
C  C75  1  0.79379871  0.23105436  0.48439783  1  0  -0.095554  0  3.698658  0  0  -0.108904  0  3.951638  0  0  -0.11601  0  3.97246  0  0  -0.072597  -0.104461  0  3.937774  0
C  C76  1  0.25953134  0.85564284  0.47066343  1  0  0.162831  0  3.635307  0  0  0.128125  0  3.888379  0  0  0.137718  0  3.902663  0  0  0.066371  0.121854  0  3.878771  0
C  C77  1  0.74047074  0.14435070  0.52933574  1  0  0.162821  0  3.635178  0  0  0.128102  0  3.88823  0  0  0.1377  0  3.902503  0  0  0.066379  0.121822  0  3.878635  0
N  N78  1  0.17464651  0.02028988  0.21654729  1  0  -0.29301  0  3.307277  0  0  -0.208494  0  3.578808  0  0  -0.227861  0  3.594321  0  0  -0.31568  -0.1955  0  3.568174  0
N  N79  1  0.82535812  0.97970538  0.78344764  1  0  -0.292922  0  3.307331  0  0  -0.208368  0  3.578827  0  0  -0.227732  0  3.594341  0  0  -0.315631  -0.195358  0  3.56818  0
N  N80  1  0.29702748  0.48165873  0.60062104  1  0  -0.296747  0  3.093784  0  0  -0.257931  0  3.365722  0  0  -0.269632  0  3.380285  0  0  -0.321832  -0.249798  0  3.355396  0
N  N81  1  0.70295121  0.51834263  0.39937912  1  0  -0.296644  0  3.093764  0  0  -0.257801  0  3.365658  0  0  -0.269504  0  3.380223  0  0  -0.321905  -0.249672  0  3.355333  0
N  N82  1  0.38492025  0.80260421  0.15429267  1  0  -0.340566  0  3.255377  0  0  -0.276511  0  3.523106  0  0  -0.293712  0  3.540164  0  0  -0.310835  -0.264875  0  3.511458  0
N  N83  1  0.61508307  0.19739606  0.84570825  1  0  -0.340597  0  3.25527  0  0  -0.27657  0  3.523068  0  0  -0.293775  0  3.540129  0  0  -0.310849  -0.264928  0  3.511408  0
N  N84  1  0.29900901  0.83667476  0.36579807  1  0  -0.342668  0  3.263775  0  0  -0.266701  0  3.535074  0  0  -0.285729  0  3.550002  0  0  -0.317813  -0.253922  0  3.524896  0
N  N85  1  0.70099824  0.16332122  0.63420493  1  0  -0.342772  0  3.26375  0  0  -0.266779  0  3.535026  0  0  -0.285813  0  3.549966  0  0  -0.31781  -0.253997  0  3.524852  0
Cl  Cl86  1  0.10977152  0.22156356  0.02099857  1  0  -0.080896  0  1.407113  0  0  -0.060441  0  1.640316  0  0  -0.065117  0  1.63811  0  0  0.015035  -0.057124  0  1.642073  0
Cl  Cl87  1  0.89023313  0.77842838  0.97899079  1  0  -0.080854  0  1.407155  0  0  -0.06041  0  1.640369  0  0  -0.065082  0  1.638164  0  0  0.015041  -0.057094  0  1.642133  0
Cl  Cl88  1  0.15644863  0.32618012  0.82213815  1  0  -0.095871  0  1.41291  0  0  -0.076467  0  1.657639  0  0  -0.080834  0  1.656346  0  0  0.002909  -0.073354  0  1.658731  0
Cl  Cl89  1  0.84357015  0.67383668  0.17788057  1  0  -0.095877  0  1.412966  0  0  -0.076478  0  1.657704  0  0  -0.08085  0  1.656412  0  0  0.002906  -0.073373  0  1.658797  0
O  O90  1  0.65296549  0.97129772  0.28791575  1  0  -0.630312  0  2.023589  0  0  -0.561353  0  2.289613  0  0  -0.590337  0  2.275801  0  0  -0.320966  -0.540917  0  2.298179  0
O  O91  1  0.34703007  0.02869683  0.71207419  1  0  -0.630083  0  2.024318  0  0  -0.561075  0  2.290397  0  0  -0.590039  0  2.276549  0  0  -0.32083  -0.54065  0  2.298966  0
O  O92  1  0.57526894  0.02392070  0.13596753  1  0  -0.599005  0  1.962107  0  0  -0.549803  0  2.193508  0  0  -0.573869  0  2.183622  0  0  -0.307563  -0.53282  0  2.19966  0
O  O93  1  0.42474209  0.97608381  0.86402593  1  0  -0.598894  0  1.961449  0  0  -0.549668  0  2.192929  0  0  -0.573724  0  2.183  0  0  -0.307497  -0.532671  0  2.19907  0
O  O94  1  0.35308837  0.08722941  0.43070142  1  0  -0.647958  0  2.03217  0  0  -0.57912  0  2.294768  0  0  -0.609482  0  2.283804  0  0  -0.335311  -0.557627  0  2.301314  0
O  O95  1  0.64691114  0.91276569  0.56931070  1  0  -0.647937  0  2.032159  0  0  -0.579097  0  2.29479  0  0  -0.609455  0  2.283818  0  0  -0.335359  -0.557615  0  2.301343  0
O  O96  1  0.41666896  0.21431469  0.33603591  1  0  -0.611108  0  1.889038  0  0  -0.571504  0  2.102783  0  0  -0.594579  0  2.095886  0  0  -0.334836  -0.555151  0  2.106789  0
O  O97  1  0.58331501  0.78567809  0.66397151  1  0  -0.611038  0  1.889042  0  0  -0.571395  0  2.102815  0  0  -0.594475  0  2.095924  0  0  -0.334781  -0.555043  0  2.106814  0
