# generated using pymatgen
data_MnZn2H20C22NO11
_symmetry_space_group_name_H-M   'P 1'
_cell_length_a   10.34983914
_cell_length_b   11.77660575
_cell_length_c   20.55179007
_cell_angle_alpha   89.99997731
_cell_angle_beta   89.99997857
_cell_angle_gamma   90.00003931
_symmetry_Int_Tables_number   1
_chemical_formula_structural   MnZn2H20C22NO11
_chemical_formula_sum   'Mn4 Zn8 H80 C88 N4 O44'
_cell_volume   2504.97497230
_cell_formula_units_Z   4
loop_
 _symmetry_equiv_pos_site_id
 _symmetry_equiv_pos_as_xyz
  1  'x, y, z'
loop_
 _atom_site_type_symbol
 _atom_site_label
 _atom_site_symmetry_multiplicity
 _atom_site_fract_x
 _atom_site_fract_y
 _atom_site_fract_z
 _atom_site_occupancy
 _atom_site_pbe_bader_charge
 _atom_site_pbe_bader_spin_density
 _atom_site_pbe_cm5_charge
 _atom_site_pbe_ddec_charge
 _atom_site_pbe_ddec_spin_density
 _atom_site_pbe_ddec_sum_bond_order
 _atom_site_pbe_magmom
Mn  Mn0  1  0.73265686  0.45386009  0.31136448  1  0.928506  0  0.468675  -0.059254  0  5.460462  0
Mn  Mn1  1  0.76734227  0.54613949  0.81136520  1  0.928517  0  0.468696  -0.059256  0  5.460464  0
Mn  Mn2  1  0.26734166  0.95386060  0.18863502  1  0.928469  0  0.468682  -0.059306  0  5.460508  0
Mn  Mn3  1  0.23265845  0.04614046  0.68863536  1  0.928523  0  0.468654  -0.059331  0  5.460469  0
Zn  Zn4  1  0.44938203  0.42509036  0.01097949  1  1.363299  0  0.686918  0.974636  0  2.284516  0
Zn  Zn5  1  0.05061821  0.57490997  0.51097926  1  1.363298  0  0.686925  0.974657  0  2.284499  0
Zn  Zn6  1  0.55061840  0.92509083  0.48902051  1  1.363297  0  0.686928  0.974668  0  2.284483  0
Zn  Zn7  1  0.94938157  0.07490948  0.98902081  1  1.3633  0  0.686933  0.974658  0  2.284504  0
Zn  Zn8  1  0.13877233  0.32228645  0.00856514  1  1.342903  0  0.678396  0.949403  0  2.273781  0
Zn  Zn9  1  0.36122791  0.67771303  0.50856483  1  1.342902  0  0.678405  0.949434  0  2.273784  0
Zn  Zn10  1  0.86122802  0.82228711  0.49143488  1  1.342896  0  0.678403  0.949431  0  2.273742  0
Zn  Zn11  1  0.63877195  0.17771320  0.99143473  1  1.342901  0  0.67839  0.949401  0  2.273794  0
H  H12  1  0.23702458  0.01611218  0.98372207  1  0.078617  0  0.103112  0.059717  0  1.003418  0
H  H13  1  0.26297627  0.98388782  0.48372172  1  0.07862  0  0.103114  0.059718  0  1.003416  0
H  H14  1  0.76297612  0.51611226  0.51627753  1  0.078613  0  0.103112  0.05971  0  1.003418  0
H  H15  1  0.73702516  0.48388667  0.01627826  1  0.078637  0  0.103133  0.059732  0  1.003391  0
H  H16  1  0.14288984  0.04242623  0.87517727  1  0.049904  0  0.092373  0.137702  0  1.005725  0
H  H17  1  0.35711013  0.95757385  0.37517691  1  0.049903  0  0.092376  0.137707  0  1.005717  0
H  H18  1  0.85710895  0.54242544  0.62482232  1  0.04992  0  0.09237  0.137666  0  1.005673  0
H  H19  1  0.64289032  0.45757342  0.12482259  1  0.049915  0  0.092377  0.137721  0  1.005732  0
H  H20  1  0.31330312  0.06727724  0.87033194  1  0.021178  0  0.090445  0.126769  0  1.020749  0
H  H21  1  0.18669685  0.93272284  0.37033209  1  0.021179  0  0.090446  0.12677  0  1.020749  0
H  H22  1  0.68669569  0.56727720  0.62966765  1  0.021167  0  0.090436  0.126754  0  1.020748  0
H  H23  1  0.81330358  0.43272336  0.12966790  1  0.021174  0  0.090442  0.126776  0  1.02073  0
H  H24  1  0.20359035  0.18378871  0.87062388  1  0.076356  0  0.088521  0.130032  0  1.01457  0
H  H25  1  0.29640962  0.81621137  0.37062404  1  0.07636  0  0.088523  0.130039  0  1.014561  0
H  H26  1  0.79640855  0.68378873  0.62937519  1  0.076378  0  0.088539  0.130046  0  1.01456  0
H  H27  1  0.70359072  0.31621182  0.12937646  1  0.076357  0  0.088529  0.130032  0  1.01459  0
H  H28  1  0.11884344  0.32921536  0.21774546  1  0.114043  0  0.104985  0.114899  0  1.015966  0
H  H29  1  0.38115664  0.67078483  0.71774564  1  0.114043  0  0.104991  0.114891  0  1.015974  0
H  H30  1  0.88115691  0.82921533  0.28225455  1  0.114049  0  0.104989  0.114914  0  1.015956  0
H  H31  1  0.61884418  0.17078427  0.78225441  1  0.114062  0  0.104996  0.114909  0  1.015979  0
H  H32  1  0.10939303  0.37888668  0.33571134  1  0.061361  0  0.098577  0.090559  0  1.043861  0
H  H33  1  0.39060794  0.62111258  0.83571152  1  0.061681  0  0.098591  0.090557  0  1.043823  0
H  H34  1  0.89060833  0.87888758  0.16428818  1  0.06168  0  0.098596  0.090554  0  1.043804  0
H  H35  1  0.60939285  0.12111295  0.66428854  1  0.061366  0  0.098577  0.090545  0  1.043877  0
H  H36  1  0.38204473  0.64873702  0.30427995  1  0.09746  0  0.103451  0.100334  0  1.038678  0
H  H37  1  0.11795530  0.35126311  0.80427977  1  0.09748  0  0.10345  0.100338  0  1.038685  0
H  H38  1  0.61795548  0.14873737  0.19572010  1  0.09746  0  0.10345  0.100338  0  1.038682  0
H  H39  1  0.88204470  0.85126228  0.69572024  1  0.097456  0  0.103445  0.100351  0  1.03865  0
H  H40  1  0.39089706  0.59833460  0.18581485  1  0.07041  0  0.105075  0.106425  0  1.006068  0
H  H41  1  0.10910305  0.40166647  0.68581514  1  0.070441  0  0.105077  0.106436  0  1.006069  0
H  H42  1  0.60910311  0.09833401  0.31418522  1  0.070417  0  0.105078  0.106422  0  1.006073  0
H  H43  1  0.89089602  0.90166556  0.81418534  1  0.070413  0  0.105074  0.106418  0  1.006081  0
H  H44  1  0.48661134  0.65589934  0.93205494  1  0.094472  0  0.120161  0.041551  0  1.03001  0
H  H45  1  0.01338762  0.34410070  0.43205527  1  0.094487  0  0.120164  0.041543  0  1.030031  0
H  H46  1  0.51338754  0.15589887  0.56794462  1  0.094497  0  0.120169  0.041546  0  1.030021  0
H  H47  1  0.98661177  0.84410088  0.06794523  1  0.094474  0  0.120167  0.04155  0  1.030013  0
H  H48  1  0.59857193  0.85626470  0.07857986  1  0.088871  0  0.105811  0.123485  0  0.998579  0
H  H49  1  0.90142738  0.14373504  0.57857967  1  0.088872  0  0.105798  0.123467  0  0.998628  0
H  H50  1  0.40142844  0.35626477  0.42142015  1  0.088866  0  0.105799  0.123466  0  0.998594  0
H  H51  1  0.09857246  0.64373528  0.92142038  1  0.088877  0  0.105785  0.123429  0  0.998621  0
H  H52  1  0.74838296  0.83184856  0.03772064  1  0.065467  0  0.103846  0.117249  0  1.012109  0
H  H53  1  0.75161735  0.16815121  0.53772047  1  0.065467  0  0.10384  0.117253  0  1.012166  0
H  H54  1  0.25161836  0.33184935  0.46227938  1  0.065481  0  0.103839  0.117247  0  1.012135  0
H  H55  1  0.24838251  0.66815152  0.96227958  1  0.065482  0  0.103849  0.117265  0  1.012159  0
H  H56  1  0.66677583  0.71635174  0.07734008  1  0.087866  0  0.112515  0.134767  0  0.989197  0
H  H57  1  0.83322348  0.28364715  0.57733987  1  0.087879  0  0.112519  0.134777  0  0.989192  0
H  H58  1  0.33322443  0.21635262  0.42265996  1  0.08788  0  0.112518  0.134763  0  0.989196  0
H  H59  1  0.16677550  0.78364828  0.92265967  1  0.087862  0  0.112509  0.134768  0  0.989185  0
H  H60  1  0.67305104  0.88480661  0.92613133  1  0.068258  0  0.102879  0.121982  0  1.005944  0
H  H61  1  0.82694897  0.11519289  0.42613116  1  0.068255  0  0.102866  0.121972  0  1.00594  0
H  H62  1  0.32694898  0.38480687  0.57386916  1  0.068257  0  0.102865  0.121978  0  1.005943  0
H  H63  1  0.17305121  0.61519342  0.07386842  1  0.068257  0  0.102888  0.121989  0  1.005948  0
H  H64  1  0.52323519  0.93159678  0.96062614  1  0.125814  0  0.105235  0.134261  0  1.025367  0
H  H65  1  0.97676576  0.06840355  0.46062596  1  0.125814  0  0.105229  0.134266  0  1.025351  0
H  H66  1  0.47676583  0.43159715  0.53937385  1  0.12581  0  0.105226  0.134274  0  1.025342  0
H  H67  1  0.02323535  0.56840316  0.03937363  1  0.125812  0  0.105234  0.134262  0  1.025363  0
H  H68  1  0.52459172  0.82576240  0.89809243  1  0.075014  0  0.105521  0.116028  0  1.010548  0
H  H69  1  0.97540832  0.17423797  0.39809270  1  0.075008  0  0.1055  0.116006  0  1.010582  0
H  H70  1  0.47540826  0.32576188  0.60190758  1  0.075007  0  0.105504  0.116019  0  1.010558  0
H  H71  1  0.02459288  0.67423754  0.10190735  1  0.075021  0  0.105524  0.116037  0  1.010567  0
H  H72  1  0.60477477  0.61156172  0.22438957  1  0.120443  0  0.117358  0.127386  0  0.996462  0
H  H73  1  0.89522443  0.38843877  0.72438981  1  0.120454  0  0.11737  0.127411  0  0.996422  0
H  H74  1  0.39522444  0.11156103  0.27561049  1  0.120453  0  0.117366  0.127402  0  0.996433  0
H  H75  1  0.10477560  0.88843912  0.77561019  1  0.120459  0  0.117372  0.127408  0  0.99642  0
H  H76  1  0.85452744  0.56096658  0.19913044  1  0.113252  0  0.116211  0.129783  0  0.9956  0
H  H77  1  0.64547275  0.43903393  0.69913072  1  0.113262  0  0.116206  0.129771  0  0.995622  0
H  H78  1  0.14547270  0.06096657  0.30086963  1  0.11326  0  0.116219  0.129793  0  0.995584  0
H  H79  1  0.35452732  0.93903271  0.80086976  1  0.113256  0  0.116215  0.129785  0  0.995592  0
H  H80  1  0.98468594  0.56371525  0.31321246  1  0.147482  0  0.111711  0.127864  0  1.022751  0
H  H81  1  0.51531416  0.43628518  0.81321276  1  0.147481  0  0.111713  0.127874  0  1.022755  0
H  H82  1  0.01531420  0.06371524  0.18678761  1  0.147484  0  0.111715  0.127876  0  1.022743  0
H  H83  1  0.48468591  0.93628497  0.68678771  1  0.147474  0  0.11171  0.127866  0  1.022768  0
H  H84  1  0.81865533  0.61799057  0.40807817  1  0.127634  0  0.11234  0.128791  0  1.037693  0
H  H85  1  0.68134470  0.38200894  0.90807846  1  0.127625  0  0.112333  0.128781  0  1.037699  0
H  H86  1  0.18134486  0.11799073  0.09192140  1  0.127629  0  0.112333  0.128781  0  1.037682  0
H  H87  1  0.31865532  0.88200955  0.59192154  1  0.127625  0  0.112343  0.128768  0  1.037721  0
H  H88  1  0.58108162  0.64689782  0.35411598  1  0.135773  0  0.118799  0.138815  0  0.987532  0
H  H89  1  0.91891749  0.35310257  0.85411623  1  0.135772  0  0.118795  0.138819  0  0.987527  0
H  H90  1  0.41891763  0.14689724  0.14588407  1  0.135782  0  0.1188  0.138818  0  0.987525  0
H  H91  1  0.08108251  0.85310300  0.64588378  1  0.135776  0  0.1188  0.138825  0  0.987515  0
C  C92  1  0.35105057  0.16628792  0.98511316  1  1.57178  0  0.223068  0.595606  0  4.080798  0
C  C93  1  0.14894932  0.83371294  0.48511384  1  1.571758  0  0.223077  0.595629  0  4.080765  0
C  C94  1  0.64894929  0.66628793  0.51488640  1  1.571655  0  0.223095  0.595676  0  4.080718  0
C  C95  1  0.85105103  0.33371186  0.01488666  1  1.571788  0  0.223015  0.595525  0  4.080773  0
C  C96  1  0.22797617  0.10326209  0.96485704  1  0.455363  0  -0.022018  0.129688  0  3.953072  0
C  C97  1  0.27202373  0.89673793  0.46485670  1  0.455357  0  -0.02202  0.129677  0  3.953086  0
C  C98  1  0.77202363  0.60326216  0.53514254  1  0.455485  0  -0.022009  0.129694  0  3.953088  0
C  C99  1  0.72797667  0.39673676  0.03514330  1  0.455357  0  -0.022049  0.129711  0  3.953043  0
C  C100  1  0.22184953  0.09870477  0.89042119  1  -0.07791  0  -0.248764  -0.420106  0  3.907631  0
C  C101  1  0.27815042  0.90129530  0.39042134  1  -0.077913  0  -0.248776  -0.420121  0  3.907631  0
C  C102  1  0.77814930  0.59870479  0.60957839  1  -0.078042  0  -0.248772  -0.42007  0  3.907562  0
C  C103  1  0.72184998  0.40129492  0.10957866  1  -0.077919  0  -0.24877  -0.420136  0  3.907655  0
C  C104  1  0.26462356  0.42914576  0.12475792  1  1.56673  0  0.222014  0.597212  0  4.183297  0
C  C105  1  0.23537563  0.57085449  0.62475814  1  1.56673  0  0.221999  0.597173  0  4.183342  0
C  C106  1  0.73537687  0.92914557  0.37524208  1  1.56673  0  0.222008  0.597202  0  4.18329  0
C  C107  1  0.76462415  0.07085396  0.87524241  1  1.566741  0  0.222026  0.597226  0  4.183253  0
C  C108  1  0.25653839  0.46036865  0.19521017  1  -0.044604  0  -0.011847  -0.025398  0  3.956134  0
C  C109  1  0.24346074  0.53963240  0.69521040  1  -0.044601  0  -0.01185  -0.025384  0  3.956178  0
C  C110  1  0.74346109  0.96036852  0.30478982  1  -0.044341  0  -0.011836  -0.025324  0  3.956015  0
C  C111  1  0.75653901  0.03963106  0.80478967  1  -0.044593  0  -0.011832  -0.025323  0  3.956038  0
C  C112  1  0.17637286  0.39872946  0.23716517  1  -0.034718  0  -0.080534  -0.082367  0  3.941291  0
C  C113  1  0.32362721  0.60127071  0.73716537  1  -0.034713  0  -0.08053  -0.082343  0  3.941312  0
C  C114  1  0.82362755  0.89873025  0.26283435  1  -0.034959  0  -0.080569  -0.082478  0  3.941302  0
C  C115  1  0.67637355  0.10127021  0.76283469  1  -0.034719  0  -0.080548  -0.082423  0  3.941333  0
C  C116  1  0.17151576  0.42654645  0.30286066  1  -0.001447  0  -0.086354  -0.09972  0  3.987576  0
C  C117  1  0.32848426  0.57345283  0.80286087  1  -0.001767  0  -0.086385  -0.099749  0  3.987555  0
C  C118  1  0.82848466  0.92654729  0.19713933  1  -0.001772  0  -0.086345  -0.099632  0  3.987479  0
C  C119  1  0.67151649  0.07345321  0.69713920  1  -0.001445  0  -0.086357  -0.099683  0  3.987626  0
C  C120  1  0.24592854  0.51635502  0.32739768  1  -0.004536  0  -0.015361  -0.035357  0  3.969554  0
C  C121  1  0.25407146  0.48364509  0.82739792  1  -0.004551  0  -0.015363  -0.035328  0  3.969554  0
C  C122  1  0.75407157  0.01635547  0.17260241  1  -0.004552  0  -0.015378  -0.035383  0  3.969562  0
C  C123  1  0.74592960  0.98364505  0.67260254  1  -0.004553  0  -0.015354  -0.035376  0  3.96964  0
C  C124  1  0.32572016  0.57815640  0.28522567  1  -0.101424  0  -0.083957  -0.099995  0  3.979238  0
C  C125  1  0.17427988  0.42184459  0.78522594  1  -0.10144  0  -0.083953  -0.100012  0  3.979259  0
C  C126  1  0.67428000  0.07815593  0.21477392  1  -0.101407  0  -0.083972  -0.100044  0  3.979268  0
C  C127  1  0.82572017  0.92184372  0.71477405  1  -0.101411  0  -0.083957  -0.100018  0  3.979271  0
C  C128  1  0.33055889  0.55049056  0.21952385  1  0.018685  0  -0.082481  -0.092321  0  3.975348  0
C  C129  1  0.16944119  0.44950963  0.71952412  1  0.018668  0  -0.082474  -0.092333  0  3.975373  0
C  C130  1  0.66944124  0.05049088  0.28047574  1  0.018658  0  -0.082466  -0.092291  0  3.975308  0
C  C131  1  0.83055888  0.94950871  0.78047587  1  0.018655  0  -0.082477  -0.092317  0  3.97534  0
C  C132  1  0.23673418  0.54868604  0.39765579  1  1.567403  0  0.22249  0.598076  0  4.182638  0
C  C133  1  0.26326480  0.45131317  0.89765604  1  1.567407  0  0.222434  0.59796  0  4.182582  0
C  C134  1  0.76326498  0.04868655  0.10234429  1  1.567494  0  0.222429  0.597976  0  4.182551  0
C  C135  1  0.73673430  0.95131402  0.60234443  1  1.567389  0  0.222498  0.598074  0  4.182628  0
C  C136  1  0.53447680  0.66655266  0.97961381  1  1.37698  0  0.175263  0.292385  0  4.11172  0
C  C137  1  0.96552221  0.33344765  0.47961357  1  1.37696  0  0.17525  0.292378  0  4.111733  0
C  C138  1  0.46552208  0.16655220  0.52038624  1  1.376953  0  0.175263  0.292415  0  4.111715  0
C  C139  1  0.03447718  0.83344728  0.02038596  1  1.376973  0  0.17527  0.29241  0  4.111724  0
C  C140  1  0.65389548  0.79481069  0.04955757  1  0.238743  0  -0.133211  -0.270552  0  3.88086  0
C  C141  1  0.84610481  0.20518907  0.54955738  1  0.238736  0  -0.133189  -0.270551  0  3.880984  0
C  C142  1  0.34610581  0.29481070  0.45044293  1  0.238408  0  -0.133168  -0.270489  0  3.880894  0
C  C143  1  0.15389410  0.70519018  0.95044266  1  0.238408  0  -0.133167  -0.2705  0  3.880909  0
C  C144  1  0.57570652  0.85809515  0.94100012  1  0.216406  0  -0.134357  -0.282906  0  3.886674  0
C  C145  1  0.92429445  0.14190519  0.44099992  1  0.21654  0  -0.1343  -0.282869  0  3.886644  0
C  C146  1  0.42429445  0.35809463  0.55899989  1  0.21655  0  -0.134309  -0.282902  0  3.886653  0
C  C147  1  0.07570672  0.64190482  0.05899965  1  0.216553  0  -0.134366  -0.282926  0  3.88672  0
C  C148  1  0.68193441  0.60621978  0.25995824  1  -0.206113  0  -0.114653  -0.076858  0  3.914888  0
C  C149  1  0.81806476  0.39378068  0.75995850  1  -0.206106  0  -0.114672  -0.076886  0  3.914914  0
C  C150  1  0.31806480  0.10621907  0.24004182  1  -0.206114  0  -0.11468  -0.076892  0  3.914939  0
C  C151  1  0.18193527  0.89378110  0.74004150  1  -0.206131  0  -0.114667  -0.076863  0  3.914889  0
C  C152  1  0.81340505  0.57897598  0.24651172  1  -0.092902  0  -0.122864  -0.101887  0  3.907625  0
C  C153  1  0.68659510  0.42102449  0.74651199  1  -0.092958  0  -0.122832  -0.101816  0  3.907641  0
C  C154  1  0.18659511  0.07897604  0.25348787  1  -0.092908  0  -0.122855  -0.101859  0  3.907659  0
C  C155  1  0.31340495  0.92102413  0.75348800  1  -0.092907  0  -0.122849  -0.101852  0  3.907644  0
C  C156  1  0.88255779  0.58088146  0.30680719  1  -0.201194  0  -0.11746  -0.078522  0  3.882411  0
C  C157  1  0.61744231  0.41911897  0.80680747  1  -0.201141  0  -0.117468  -0.078558  0  3.882431  0
C  C158  1  0.11744237  0.08088151  0.19319288  1  -0.201185  0  -0.117475  -0.078568  0  3.882435  0
C  C159  1  0.38255870  0.91911870  0.69319300  1  -0.201184  0  -0.117483  -0.078573  0  3.882448  0
C  C160  1  0.79388781  0.60925546  0.35697217  1  -0.132071  0  -0.117493  -0.071567  0  3.874323  0
C  C161  1  0.70611226  0.39074408  0.85697244  1  -0.132082  0  -0.117492  -0.071551  0  3.874308  0
C  C162  1  0.20611141  0.10925645  0.14302790  1  -0.13207  0  -0.117469  -0.071504  0  3.874216  0
C  C163  1  0.29388874  0.89074464  0.64302756  1  -0.132064  0  -0.117469  -0.071473  0  3.874241  0
C  C164  1  0.66911101  0.62508597  0.32830314  1  -0.115161  0  -0.121454  -0.095093  0  3.870208  0
C  C165  1  0.83088908  0.37491359  0.82830340  1  -0.115167  0  -0.121472  -0.095131  0  3.870217  0
C  C166  1  0.33088919  0.12508617  0.17169692  1  -0.115158  0  -0.121464  -0.095115  0  3.870142  0
C  C167  1  0.16911093  0.87491490  0.67169661  1  -0.115146  0  -0.121489  -0.095161  0  3.870186  0
C  C168  1  0.60278526  0.37888600  0.27500417  1  0.863623  0  0.021178  0.119032  0  3.779656  0
C  C169  1  0.89721487  0.62111275  0.77500484  1  0.863627  0  0.021161  0.119048  0  3.779665  0
C  C170  1  0.39721320  0.87888741  0.22499535  1  0.863618  0  0.02114  0.119061  0  3.779612  0
C  C171  1  0.10278592  0.12111278  0.72499668  1  0.863608  0  0.021164  0.119045  0  3.77967  0
C  C172  1  0.83897345  0.34055583  0.29286294  1  0.833995  0  0.013261  0.103653  0  3.79532  0
C  C173  1  0.66102666  0.65944461  0.79286364  1  0.834072  0  0.013271  0.103646  0  3.795329  0
C  C174  1  0.16102594  0.84055626  0.20713610  1  0.833972  0  0.013284  0.103668  0  3.795313  0
C  C175  1  0.33897512  0.15944563  0.70713787  1  0.834039  0  0.013269  0.103625  0  3.7954  0
C  C176  1  0.69207164  0.39533130  0.38795101  1  0.849731  0  0.015541  0.111924  0  3.780047  0
C  C177  1  0.80792744  0.60466907  0.88795170  1  0.849741  0  0.015566  0.111927  0  3.780055  0
C  C178  1  0.30792683  0.89533274  0.11204899  1  0.849716  0  0.01562  0.112008  0  3.779982  0
C  C179  1  0.19207140  0.10466923  0.61204933  1  0.849725  0  0.015542  0.111977  0  3.780097  0
N  N180  1  0.58560710  0.76873407  0.98958422  1  -1.196763  0  -0.279105  0.036383  0  3.751894  0
N  N181  1  0.91439286  0.23126538  0.48958400  1  -1.196894  0  -0.279131  0.036361  0  3.751853  0
N  N182  1  0.41439380  0.26873443  0.51041630  1  -1.196572  0  -0.279151  0.03631  0  3.751921  0
N  N183  1  0.08560644  0.73126591  0.01041603  1  -1.196584  0  -0.279126  0.036361  0  3.751936  0
O  O184  1  0.33878894  0.26883393  0.00472264  1  -1.194885  0  -0.31003  -0.579778  0  2.473273  0
O  O185  1  0.16121130  0.73116556  0.50472285  1  -1.19488  0  -0.310037  -0.579804  0  2.47326  0
O  O186  1  0.66121136  0.76883446  0.49527690  1  -1.194889  0  -0.310042  -0.579833  0  2.473269  0
O  O187  1  0.83878860  0.23116499  0.99527767  1  -1.194893  0  -0.309971  -0.579744  0  2.473278  0
O  O188  1  0.45673625  0.11362167  0.98002358  1  -1.169309  0  -0.301692  -0.523172  0  2.345636  0
O  O189  1  0.04326364  0.88637834  0.48002329  1  -1.169287  0  -0.301691  -0.523174  0  2.345612  0
O  O190  1  0.54326260  0.61362161  0.51997648  1  -1.16918  0  -0.301714  -0.523213  0  2.345606  0
O  O191  1  0.95673772  0.38637732  0.01997671  1  -1.169311  0  -0.301695  -0.523137  0  2.345573  0
O  O192  1  0.11614932  0.15602428  0.99166493  1  -1.150125  0  -0.395664  -0.625524  0  2.444384  0
O  O193  1  0.38385056  0.84397572  0.49166507  1  -1.150116  0  -0.395671  -0.625544  0  2.444398  0
O  O194  1  0.88385052  0.65602358  0.50833464  1  -1.150124  0  -0.395676  -0.625554  0  2.444406  0
O  O195  1  0.61614980  0.34397536  0.00833494  1  -1.15012  0  -0.395683  -0.625568  0  2.44441  0
O  O196  1  0.36414590  0.46489209  0.09439169  1  -1.176271  0  -0.319825  -0.572063  0  2.393754  0
O  O197  1  0.13585427  0.53510818  0.59439195  1  -1.176269  0  -0.31982  -0.572049  0  2.393775  0
O  O198  1  0.63585455  0.96489182  0.40560829  1  -1.176263  0  -0.319837  -0.572076  0  2.393752  0
O  O199  1  0.86414548  0.03510769  0.90560813  1  -1.17628  0  -0.319849  -0.572095  0  2.393772  0
O  O200  1  0.17146557  0.37215648  0.10111425  1  -1.172245  0  -0.309235  -0.54139  0  2.34765  0
O  O201  1  0.32853460  0.62784463  0.60111396  1  -1.17223  0  -0.309216  -0.541366  0  2.347634  0
O  O202  1  0.82853481  0.87215634  0.39888576  1  -1.172233  0  -0.309223  -0.541399  0  2.347646  0
O  O203  1  0.67146523  0.12784403  0.89888610  1  -1.172245  0  -0.309215  -0.541396  0  2.347633  0
O  O204  1  0.12964264  0.52616423  0.42589568  1  -1.188113  0  -0.316775  -0.57454  0  2.371993  0
O  O205  1  0.37035632  0.47383581  0.92589590  1  -1.188089  0  -0.316766  -0.5745  0  2.371962  0
O  O206  1  0.87035651  0.02616397  0.07410441  1  -1.188186  0  -0.316769  -0.574501  0  2.371956  0
O  O207  1  0.62964184  0.97383577  0.57410457  1  -1.188093  0  -0.316781  -0.574539  0  2.371977  0
O  O208  1  0.33567099  0.59474178  0.42316012  1  -1.18375  0  -0.311443  -0.555669  0  2.347742  0
O  O209  1  0.16432797  0.40525827  0.92316040  1  -1.183781  0  -0.311391  -0.555594  0  2.347672  0
O  O210  1  0.66432821  0.09474139  0.07683946  1  -1.183769  0  -0.311377  -0.555588  0  2.347639  0
O  O211  1  0.83567110  0.90525834  0.57683960  1  -1.18375  0  -0.311451  -0.555673  0  2.347733  0
O  O212  1  0.53948687  0.58663863  0.02001371  1  -1.165983  0  -0.299012  -0.457078  0  2.404351  0
O  O213  1  0.96051248  0.41336115  0.52001393  1  -1.165981  0  -0.298999  -0.45705  0  2.404362  0
O  O214  1  0.46051233  0.08663869  0.47998587  1  -1.165998  0  -0.299011  -0.457076  0  2.404357  0
O  O215  1  0.03948660  0.91336132  0.97998606  1  -1.165991  0  -0.299017  -0.457091  0  2.404349  0
O  O216  1  0.51812983  0.32670711  0.25189379  1  -1.137248  0  -0.166138  -0.161642  0  2.427865  0
O  O217  1  0.98186935  0.67329336  0.75189395  1  -1.137243  0  -0.166144  -0.161665  0  2.427847  0
O  O218  1  0.48186859  0.82670601  0.24810672  1  -1.137221  0  -0.166127  -0.16168  0  2.427816  0
O  O219  1  0.01813051  0.17329246  0.74810708  1  -1.13724  0  -0.166133  -0.161651  0  2.427858  0
O  O220  1  0.90870301  0.26491946  0.28071168  1  -1.133683  0  -0.174942  -0.171611  0  2.423167  0
O  O221  1  0.59129711  0.73508013  0.78071190  1  -1.133755  0  -0.174931  -0.171582  0  2.423202  0
O  O222  1  0.09129729  0.76491900  0.21928835  1  -1.13366  0  -0.174938  -0.171594  0  2.423176  0
O  O223  1  0.40870473  0.23508119  0.71928959  1  -1.133757  0  -0.174913  -0.171555  0  2.423276  0
O  O224  1  0.66371174  0.35719975  0.43868480  1  -1.133386  0  -0.169069  -0.162036  0  2.427752  0
O  O225  1  0.83628633  0.64279889  0.93868596  1  -1.133414  0  -0.169096  -0.162048  0  2.427793  0
O  O226  1  0.33628670  0.85720123  0.06131375  1  -1.13338  0  -0.169145  -0.162114  0  2.427706  0
O  O227  1  0.16371157  0.14279907  0.56131555  1  -1.133375  0  -0.169059  -0.162047  0  2.427806  0
