# generated using pymatgen
data_Zn2H5C14I3(NO4)2
_symmetry_space_group_name_H-M   'P 1'
_cell_length_a   9.98383422
_cell_length_b   11.12056441
_cell_length_c   11.89511758
_cell_angle_alpha   85.05221569
_cell_angle_beta   87.05211648
_cell_angle_gamma   90.59906907
_symmetry_Int_Tables_number   1
_chemical_formula_structural   Zn2H5C14I3(NO4)2
_chemical_formula_sum   'Zn2 H5 C14 I3 N2 O8'
_cell_volume   1313.85635158
_cell_formula_units_Z   1
loop_
 _symmetry_equiv_pos_site_id
 _symmetry_equiv_pos_as_xyz
  1  'x, y, z'
loop_
 _atom_site_type_symbol
 _atom_site_label
 _atom_site_symmetry_multiplicity
 _atom_site_fract_x
 _atom_site_fract_y
 _atom_site_fract_z
 _atom_site_occupancy
 _atom_site_pbe_bader_charge
 _atom_site_pbe_bader_spin_density
 _atom_site_pbe_cm5_charge
 _atom_site_pbe_ddec_charge
 _atom_site_pbe_ddec_spin_density
 _atom_site_pbe_ddec_sum_bond_order
 _atom_site_pbe_magmom
Zn  Zn0  1  0.35877756  0.49098865  0.50066895  1  1.299918  0  0.664906  0.879157  0  2.37946  0
Zn  Zn1  1  0.64033952  0.50894666  0.48523294  1  1.299768  0  0.668091  0.85202  0  2.405892  0
H  H2  1  0.44038115  0.08559429  0.56765896  1  0.092412  0  0.116041  0.147199  0  0.973066  0
H  H3  1  0.67964386  0.88099255  0.45197560  1  0.146891  0  0.093649  0.096899  0  1.041614  0
H  H4  1  0.37277563  0.90899913  0.45950820  1  0.110873  0  0.106684  0.125048  0  0.990332  0
H  H5  1  0.10887930  0.53653502  0.56210818  1  0.447905  0  0.302726  0.29526  0  0.935337  0
H  H6  1  0.85969836  0.34000174  0.48020668  1  0.202716  0  0.132379  0.12785  0  0.998405  0
C  C7  1  0.47261815  0.73250157  0.47283184  1  1.555635  0  0.210808  0.644174  0  4.159023  0
C  C8  1  0.50598373  0.50009450  0.83293992  1  0.076078  0  -0.016214  -0.143212  0  3.862707  0
C  C9  1  0.50556107  0.49773449  0.93602764  1  -0.168541  0  -0.018884  0.01684  0  4.255293  0
C  C10  1  0.50612141  0.49576038  0.04964696  1  -0.345681  0  -0.018907  0.018132  0  4.252137  0
C  C11  1  0.50738818  0.49484969  0.15256713  1  0.163248  0  -0.017737  -0.144749  0  3.866188  0
C  C12  1  0.59732026  0.06208248  0.44987751  1  -0.281344  0  -0.037215  0.101205  0  3.920085  0
C  C13  1  0.51764942  0.13206999  0.51092447  1  -0.002134  0  -0.098679  -0.266445  0  3.870555  0
C  C14  1  0.58612435  0.93118527  0.45535031  1  0.057937  0  -0.083364  -0.057492  0  4.003099  0
C  C15  1  0.47064999  0.86659477  0.46243309  1  -0.12805  0  -0.090178  -0.210323  0  3.858005  0
C  C16  1  0.06810067  0.41149027  0.46526520  1  0.553451  0  0.130044  0.25093  0  3.914995  0
C  C17  1  0.92038390  0.42392437  0.47508894  1  0.646388  0  0.086784  0.074634  0  3.857215  0
C  C18  1  0.50632247  0.50201548  0.71127216  1  1.678809  0  0.220514  0.661877  0  4.245458  0
C  C19  1  0.51657676  0.26550298  0.50951343  1  1.601567  0  0.207533  0.650258  0  4.164816  0
C  C20  1  0.51113260  0.49635612  0.27363068  1  1.717386  0  0.218162  0.658644  0  4.248523  0
I  I21  1  0.75331269  0.13010243  0.33376205  1  0.113834  0  0.060676  -0.051393  0  1.475709  0
I  I22  1  0.12744017  0.28061537  0.35726651  1  0.266141  0  0.192271  0.105873  0  1.413852  0
I  I23  1  0.93743071  0.69286078  0.45759062  1  0.379483  0  0.281826  0.184103  0  1.362901  0
N  N24  1  0.15276414  0.47402750  0.51319050  1  -1.188695  0  -0.447841  -0.42898  0  3.272917  0
N  N25  1  0.85148986  0.52091378  0.47397602  1  -1.078435  0  -0.321123  -0.196799  0  3.197901  0
O  O26  1  0.36028501  0.67703318  0.47139965  1  -1.156345  0  -0.324897  -0.555094  0  2.254848  0
O  O27  1  0.58677947  0.68307809  0.48316051  1  -1.17713  0  -0.32499  -0.567576  0  2.3767  0
O  O28  1  0.39271318  0.51326391  0.66774407  1  -1.142905  0  -0.313605  -0.53704  0  2.240798  0
O  O29  1  0.62023163  0.49206316  0.65970410  1  -1.131326  0  -0.315327  -0.537804  0  2.241392  0
O  O30  1  0.40228378  0.31038665  0.53191998  1  -1.154991  0  -0.321063  -0.557739  0  2.296234  0
O  O31  1  0.62629687  0.32456571  0.48755220  1  -1.169364  0  -0.31525  -0.546737  0  2.36467  0
O  O32  1  0.39981832  0.47728515  0.33028964  1  -1.150418  0  -0.315924  -0.559352  0  2.315855  0
O  O33  1  0.62508811  0.51645478  0.31199562  1  -1.135077  0  -0.3119  -0.52937  0  2.246614  0
