# generated using pymatgen
data_ZnSiH16C24(N2F5)2
_symmetry_space_group_name_H-M   'P 1'
_cell_length_a   7.76356767
_cell_length_b   13.82451690
_cell_length_c   13.82443115
_cell_angle_alpha   89.64733369
_cell_angle_beta   86.05351657
_cell_angle_gamma   86.05301132
_symmetry_Int_Tables_number   1
_chemical_formula_structural   ZnSiH16C24(N2F5)2
_chemical_formula_sum   'Zn1 Si1 H16 C24 N4 F10'
_cell_volume   1476.71199386
_cell_formula_units_Z   1
loop_
 _symmetry_equiv_pos_site_id
 _symmetry_equiv_pos_as_xyz
  1  'x, y, z'
loop_
 _atom_site_type_symbol
 _atom_site_label
 _atom_site_symmetry_multiplicity
 _atom_site_fract_x
 _atom_site_fract_y
 _atom_site_fract_z
 _atom_site_occupancy
 _atom_site_pbe_bader_charge
 _atom_site_pbe_bader_spin_density
 _atom_site_pbe_cm5_charge
 _atom_site_pbe_ddec_charge
 _atom_site_pbe_ddec_spin_density
 _atom_site_pbe_ddec_sum_bond_order
 _atom_site_pbe_magmom
Zn  Zn0  1  0.49998044  0.50000090  0.49999883  1  1.385692  0  0.705951  0.735761  0  2.34287  0
Si  Si1  1  0.99999160  0.49999758  0.49999809  1  3.162697  0  0.260425  1.720625  0  3.946234  0
H  H2  1  0.25285864  0.50007624  0.33687321  1  0.164997  0  0.117315  0.102146  0  1.04363  0
H  H3  1  0.25824235  0.50001639  0.15917267  1  0.140249  0  0.10812  0.121448  0  1.0184  0
H  H4  1  0.81745815  0.49998861  0.15436257  1  0.093635  0  0.110377  0.121369  0  0.997745  0
H  H5  1  0.78840093  0.50001596  0.33371926  1  0.191428  0  0.118188  0.103595  0  1.037005  0
H  H6  1  0.18250796  0.50001246  0.84563708  1  0.093318  0  0.110377  0.121387  0  0.99759  0
H  H7  1  0.74172601  0.49997670  0.84082838  1  0.139757  0  0.10807  0.1214  0  1.018316  0
H  H8  1  0.74712047  0.49992410  0.66312524  1  0.16449  0  0.117354  0.102147  0  1.043696  0
H  H9  1  0.21157903  0.49998800  0.66628203  1  0.191362  0  0.118212  0.103591  0  1.037027  0
H  H10  1  0.25286326  0.33687237  0.50007614  1  0.165041  0  0.117316  0.102094  0  1.043673  0
H  H11  1  0.25825377  0.15917523  0.50001831  1  0.140293  0  0.108094  0.121448  0  1.018323  0
H  H12  1  0.81746482  0.15436147  0.49998729  1  0.093534  0  0.110389  0.121398  0  0.997785  0
H  H13  1  0.78840650  0.33371528  0.50001333  1  0.191419  0  0.118165  0.103539  0  1.037044  0
H  H14  1  0.18250554  0.84563671  0.50000787  1  0.093227  0  0.110342  0.121352  0  0.997575  0
H  H15  1  0.74172412  0.84083526  0.49998085  1  0.140009  0  0.10806  0.121338  0  1.018354  0
H  H16  1  0.74712237  0.66312723  0.49992857  1  0.165168  0  0.117337  0.102121  0  1.043702  0
H  H17  1  0.21158209  0.66628143  0.49998405  1  0.1914  0  0.118201  0.103571  0  1.036899  0
C  C18  1  0.37578870  0.50003849  0.29394877  1  0.464928  0  0.051798  0.103647  0  3.909667  0
C  C19  1  0.37979680  0.50001114  0.19339862  1  -0.018764  0  -0.082  -0.160085  0  3.922598  0
C  C20  1  0.54016559  0.49999146  0.13907333  1  0.050098  0  -0.000979  0.064168  0  4.061195  0
C  C21  1  0.68944479  0.49999411  0.19156976  1  -0.088079  0  -0.081633  -0.161591  0  3.924303  0
C  C22  1  0.67405123  0.50002401  0.29224857  1  0.50224  0  0.053489  0.106169  0  3.907098  0
C  C23  1  0.56020786  0.49998403  0.03358144  1  0.427614  0  0.095751  0.112437  0  4.010778  0
C  C24  1  0.43978753  0.50000978  0.96641860  1  0.520973  0  0.095783  0.112522  0  4.010561  0
C  C25  1  0.31052675  0.50000479  0.80843042  1  -0.087808  0  -0.081816  -0.161857  0  3.924162  0
C  C26  1  0.45980768  0.50000381  0.86092463  1  0.049519  0  -0.000741  0.064538  0  4.060552  0
C  C27  1  0.62017492  0.49998630  0.80659866  1  -0.017613  0  -0.082014  -0.160202  0  3.922491  0
C  C28  1  0.62419059  0.49996041  0.70604823  1  0.465566  0  0.051856  0.103729  0  3.909655  0
C  C29  1  0.32592872  0.49997995  0.70775416  1  0.502406  0  0.053421  0.106073  0  3.907053  0
C  C30  1  0.37579545  0.29394939  0.50003788  1  0.464967  0  0.051837  0.103769  0  3.909783  0
C  C31  1  0.37980688  0.19340182  0.50001411  1  -0.018481  0  -0.081987  -0.160138  0  3.922462  0
C  C32  1  0.54017266  0.13907180  0.49999232  1  0.049964  0  -0.000912  0.064312  0  4.060786  0
C  C33  1  0.68945119  0.19156792  0.49999170  1  -0.088146  0  -0.081688  -0.161722  0  3.924374  0
C  C34  1  0.67405626  0.29224502  0.50002042  1  0.502305  0  0.053509  0.10625  0  3.906978  0
C  C35  1  0.56020978  0.03357967  0.49998709  1  0.427636  0  0.095744  0.112445  0  4.010606  0
C  C36  1  0.43978767  0.96641849  0.50001140  1  0.520664  0  0.095867  0.112679  0  4.010639  0
C  C37  1  0.31052536  0.80843242  0.50000467  1  -0.088117  0  -0.081751  -0.161799  0  3.923945  0
C  C38  1  0.45980809  0.86092564  0.50000752  1  0.050312  0  -0.000793  0.064496  0  4.060635  0
C  C39  1  0.62017296  0.80660286  0.49999224  1  -0.01839  0  -0.081968  -0.160116  0  3.922435  0
C  C40  1  0.62419389  0.70605167  0.49996307  1  0.464914  0  0.051853  0.103769  0  3.909626  0
C  C41  1  0.32593328  0.70775459  0.49997619  1  0.502546  0  0.053453  0.106175  0  3.90676  0
N  N42  1  0.51970051  0.50004694  0.34325709  1  -1.249622  0  -0.315072  -0.226093  0  3.50358  0
N  N43  1  0.48027188  0.49995558  0.65674449  1  -1.249882  0  -0.315082  -0.22596  0  3.50313  0
N  N44  1  0.51970843  0.34325800  0.50004492  1  -1.249712  0  -0.315119  -0.226182  0  3.503483  0
N  N45  1  0.48027677  0.65674523  0.49995762  1  -1.249883  0  -0.315094  -0.2261  0  3.503207  0
F  F46  1  0.22657234  0.50040011  0.50040209  1  -0.822839  0  -0.192934  -0.4966  0  1.34882  0
F  F47  1  0.77340904  0.49959225  0.49959414  1  -0.822994  0  -0.192987  -0.496683  0  1.348593  0
F  F48  1  0.99999508  0.58727362  0.41272095  1  -0.826263  0  -0.241465  -0.540056  0  1.08589  0
F  F49  1  0.99999431  0.41272371  0.58727570  1  -0.826272  0  -0.241487  -0.540077  0  1.085896  0
F  F50  1  0.02182654  0.41285135  0.41285324  1  -0.824842  0  -0.241532  -0.539808  0  1.086077  0
F  F51  1  0.97817007  0.58714319  0.58714458  1  -0.824806  0  -0.241524  -0.539787  0  1.086013  0
F  F52  1  0.72878969  0.49993024  0.99758483  1  -0.6255  0  -0.078992  -0.113093  0  1.39335  0
F  F53  1  0.27120964  0.50006284  0.00241941  1  -0.625523  0  -0.079008  -0.113152  0  1.393323  0
F  F54  1  0.72879342  0.99758354  0.49993808  1  -0.625584  0  -0.078998  -0.113158  0  1.393236  0
F  F55  1  0.27121109  0.00242041  0.50005723  1  -0.625249  0  -0.079074  -0.113253  0  1.393382  0
