# generated using pymatgen
data_ZnH11C10(NO2)2
_symmetry_space_group_name_H-M   'P 1'
_cell_length_a   10.90345043
_cell_length_b   17.17431335
_cell_length_c   17.30930182
_cell_angle_alpha   120.39148808
_cell_angle_beta   91.95065102
_cell_angle_gamma   88.42547323
_symmetry_Int_Tables_number   1
_chemical_formula_structural   ZnH11C10(NO2)2
_chemical_formula_sum   'Zn6 H66 C60 N12 O24'
_cell_volume   2794.11476157
_cell_formula_units_Z   6
loop_
 _symmetry_equiv_pos_site_id
 _symmetry_equiv_pos_as_xyz
  1  'x, y, z'
loop_
 _atom_site_type_symbol
 _atom_site_label
 _atom_site_symmetry_multiplicity
 _atom_site_fract_x
 _atom_site_fract_y
 _atom_site_fract_z
 _atom_site_occupancy
 _atom_site_pbe_bader_charge
 _atom_site_pbe_bader_spin_density
 _atom_site_pbe_cm5_charge
 _atom_site_pbe_ddec_charge
 _atom_site_pbe_ddec_spin_density
 _atom_site_pbe_ddec_sum_bond_order
 _atom_site_pbe_magmom
Zn  Zn0  1  0.85470432  0.53959106  0.07389317  1  1.259341  0  0.695335  0.771972  0  2.380071  0
Zn  Zn1  1  0.66237602  0.07456588  0.54343031  1  1.252299  0  0.693774  0.773615  0  2.346535  0
Zn  Zn2  1  0.49561457  0.54426676  0.47485175  1  1.254734  0  0.695403  0.773639  0  2.340109  0
Zn  Zn3  1  0.33780971  0.46490843  0.92712037  1  1.254099  0  0.699716  0.7776  0  2.377309  0
Zn  Zn4  1  0.22971071  0.92483668  0.46667041  1  1.207435  0  0.681948  0.73838  0  2.415178  0
Zn  Zn5  1  0.06879151  0.46699152  0.53680731  1  1.205383  0  0.681744  0.733427  0  2.42814  0
H  H6  1  0.58285177  0.23582799  0.69938165  1  0.12343  0  0.120904  0.101677  0  1.004712  0
H  H7  1  0.40877714  0.70632016  0.48203185  1  0.164016  0  0.124173  0.108122  0  1.008134  0
H  H8  1  0.24130026  0.47718536  0.77286426  1  0.149933  0  0.12333  0.105645  0  0.999331  0
H  H9  1  0.11814420  0.75308027  0.31120196  1  0.099792  0  0.123393  0.098224  0  0.975728  0
H  H10  1  0.96367050  0.32230436  0.56282187  1  0.112573  0  0.122094  0.096571  0  0.978379  0
H  H11  1  0.76413858  0.54793380  0.23572454  1  0.143369  0  0.118919  0.099189  0  1.004182  0
H  H12  1  0.90658797  0.08606367  0.65031332  1  0.137491  0  0.116849  0.097073  0  1.037572  0
H  H13  1  0.74023061  0.64953301  0.57056400  1  0.154279  0  0.119804  0.10334  0  1.039388  0
H  H14  1  0.57600582  0.54769994  0.91151844  1  0.170843  0  0.123808  0.108904  0  1.020899  0
H  H15  1  0.42289643  0.91037870  0.35068035  1  0.136855  0  0.119073  0.101676  0  1.026858  0
H  H16  1  0.25947597  0.33852117  0.42671459  1  0.16226  0  0.120033  0.1042  0  1.02416  0
H  H17  1  0.08269193  0.44263608  0.09176448  1  0.139212  0  0.121907  0.107102  0  1.016309  0
H  H18  1  0.81207477  0.34293954  0.98502465  1  0.046766  0  0.11473  0.107903  0  0.952753  0
H  H19  1  0.64580143  0.98682877  0.64176770  1  0.081202  0  0.119406  0.112076  0  0.951876  0
H  H20  1  0.47184719  0.64173571  0.66204378  1  0.081043  0  0.117051  0.108465  0  0.954644  0
H  H21  1  0.29951552  0.65766680  0.01554567  1  0.065023  0  0.115514  0.109543  0  0.954178  0
H  H22  1  0.13755511  0.01095977  0.35420626  1  0.050139  0  0.101627  0.090494  0  0.967684  0
H  H23  1  0.98123458  0.35513904  0.33776567  1  0.039575  0  0.09986  0.087038  0  0.969736  0
H  H24  1  0.96589247  0.32325826  0.94664689  1  0.10969  0  0.109119  0.10274  0  0.996061  0
H  H25  1  0.79878507  0.94349575  0.61566644  1  0.119974  0  0.114097  0.114041  0  1.002539  0
H  H26  1  0.62634470  0.61533245  0.67863228  1  0.128617  0  0.113832  0.113311  0  0.995103  0
H  H27  1  0.45689484  0.67694505  0.05076357  1  0.092243  0  0.108969  0.102944  0  0.987053  0
H  H28  1  0.29293196  0.04397730  0.37835241  1  0.048322  0  0.093351  0.08023  0  1.011962  0
H  H29  1  0.13412164  0.38063346  0.32746792  1  0.043974  0  0.093911  0.080529  0  1.013594  0
H  H30  1  0.97722129  0.38640448  0.83611081  1  0.057824  0  0.105498  0.070013  0  0.973261  0
H  H31  1  0.72957339  0.80834832  0.42877339  1  0.080246  0  0.122378  0.073559  0  0.965059  0
H  H32  1  0.56197871  0.42568987  0.62048374  1  0.092842  0  0.122578  0.073647  0  0.969485  0
H  H33  1  0.48073286  0.61319800  0.16609605  1  0.057756  0  0.104625  0.066534  0  0.981064  0
H  H34  1  0.29195537  0.16789355  0.55634120  1  0.044138  0  0.102733  0.069114  0  0.977612  0
H  H35  1  0.12828559  0.55803065  0.38773743  1  0.058119  0  0.105593  0.074363  0  0.970998  0
H  H36  1  0.98821517  0.19055553  0.80405414  1  0.113538  0  0.11403  0.126255  0  0.989226  0
H  H37  1  0.82289971  0.79986358  0.61353107  1  0.077699  0  0.116029  0.129494  0  0.984982  0
H  H38  1  0.65472490  0.60178252  0.81345558  1  0.104474  0  0.11566  0.130524  0  0.986164  0
H  H39  1  0.48323344  0.81257106  0.19096422  1  0.087183  0  0.113685  0.125218  0  0.991092  0
H  H40  1  0.31546956  0.17605019  0.36850664  1  0.097791  0  0.112519  0.124199  0  0.990519  0
H  H41  1  0.15649422  0.38515976  0.19239478  1  0.1011  0  0.112564  0.126114  0  0.987892  0
H  H42  1  0.65384934  0.34761848  0.85577037  1  0.184797  0  0.11397  0.145811  0  1.031211  0
H  H43  1  0.47824159  0.86095165  0.52433268  1  0.152289  0  0.112857  0.140897  0  1.02914  0
H  H44  1  0.30733977  0.52807517  0.66804754  1  0.134551  0  0.110698  0.138417  0  1.02675  0
H  H45  1  0.16558323  0.64999316  0.14857139  1  0.19909  0  0.115621  0.147055  0  1.019553  0
H  H46  1  0.00703663  0.15974967  0.50880929  1  0.127141  0  0.110054  0.128153  0  1.033075  0
H  H47  1  0.82776188  0.49841234  0.34400206  1  0.118989  0  0.105575  0.122844  0  1.042018  0
H  H48  1  0.80275853  0.47333499  0.81959726  1  0.037332  0  0.085148  0.118904  0  1.01545  0
H  H49  1  0.63278518  0.82482898  0.30519925  1  0.074264  0  0.108143  0.154165  0  0.989566  0
H  H50  1  0.46999077  0.30383519  0.47790176  1  0.076775  0  0.109071  0.156266  0  0.982915  0
H  H51  1  0.31939583  0.51697025  0.17324183  1  0.057057  0  0.090172  0.127837  0  1.001944  0
H  H52  1  0.13120168  0.17526127  0.65604010  1  0.047892  0  0.086684  0.122996  0  1.010778  0
H  H53  1  0.96163140  0.65849928  0.47919446  1  0.029662  0  0.084966  0.119697  0  1.014668  0
H  H54  1  0.94570156  0.52437665  0.82383604  1  0.051712  0  0.087651  0.12552  0  1.024252  0
H  H55  1  0.79068074  0.84280566  0.31032468  1  0.102481  0  0.107555  0.159671  0  0.993393  0
H  H56  1  0.62833342  0.30773758  0.46601195  1  0.067417  0  0.105443  0.154418  0  0.995022  0
H  H57  1  0.46845578  0.46955857  0.16979187  1  0.039157  0  0.089828  0.128418  0  1.014178  0
H  H58  1  0.27918170  0.17925362  0.70514499  1  0.04452  0  0.087818  0.127394  0  1.026244  0
H  H59  1  0.10726054  0.70782246  0.52707252  1  0.05023  0  0.085318  0.121419  0  1.034081  0
H  H60  1  0.84879442  0.57286522  0.91965140  1  0.053874  0  0.09043  0.132944  0  1.024076  0
H  H61  1  0.68463459  0.93823123  0.35444765  1  0.098056  0  0.100477  0.15114  0  1.029291  0
H  H62  1  0.52156171  0.35439143  0.41680500  1  0.095316  0  0.100519  0.150734  0  1.032673  0
H  H63  1  0.36955914  0.42229878  0.07174615  1  0.084752  0  0.091818  0.133526  0  1.022598  0
H  H64  1  0.19150792  0.07756237  0.65496113  1  0.025557  0  0.084624  0.119195  0  1.018888  0
H  H65  1  0.01995713  0.65713487  0.57576172  1  0.013289  0  0.085278  0.120241  0  1.01667  0
H  H66  1  0.75992786  0.78233212  0.14381469  1  0.013626  0  0.090646  -0.003582  0  0.979026  0
H  H67  1  0.61045765  0.13965147  0.36474808  1  0.032079  0  0.099593  0.010644  0  0.967676  0
H  H68  1  0.44666224  0.36923436  0.22934146  1  0.045191  0  0.104727  0.017494  0  0.965507  0
H  H69  1  0.26559599  0.22214214  0.85678821  1  0.031966  0  0.096265  0.003286  0  0.977921  0
H  H70  1  0.08612423  0.85933348  0.62531687  1  0.058473  0  0.101103  0.009115  0  0.97304  0
H  H71  1  0.91859842  0.61998346  0.76426209  1  0.088338  0  0.103975  0.014792  0  0.968588  0
C  C72  1  0.67296598  0.22944771  0.72493991  1  0.460036  0  0.043871  0.091616  0  3.931387  0
C  C73  1  0.49999504  0.72981095  0.51095910  1  0.396342  0  0.048893  0.097506  0  3.918648  0
C  C74  1  0.33253447  0.50413442  0.77825484  1  0.41944  0  0.050222  0.098022  0  3.929934  0
C  C75  1  0.19865046  0.76327498  0.28188695  1  0.494804  0  0.049203  0.094625  0  3.944386  0
C  C76  1  0.04047217  0.28721082  0.51937016  1  0.377019  0  0.046332  0.093504  0  3.956797  0
C  C77  1  0.85131890  0.51304979  0.22981892  1  0.416812  0  0.04157  0.085426  0  3.955796  0
C  C78  1  0.85286064  0.14463688  0.69714199  1  0.450445  0  0.042676  0.089312  0  3.945807  0
C  C79  1  0.68468743  0.69741534  0.56031752  1  0.479961  0  0.050794  0.098077  0  3.918176  0
C  C80  1  0.51933064  0.54393723  0.85661286  1  0.443387  0  0.056954  0.106212  0  3.900143  0
C  C81  1  0.36914040  0.85147139  0.30424497  1  0.414784  0  0.045501  0.090086  0  3.934975  0
C  C82  1  0.20594669  0.29636722  0.44332448  1  0.469084  0  0.046852  0.089322  0  3.930385  0
C  C83  1  0.02857680  0.45318900  0.14827046  1  0.4301  0  0.050845  0.095843  0  3.91566  0
C  C84  1  0.87259685  0.34462236  0.93627189  1  0.302103  0  -0.061134  -0.105204  0  4.000836  0
C  C85  1  0.70290076  0.93269683  0.59053308  1  0.241039  0  -0.060365  -0.106332  0  3.904454  0
C  C86  1  0.53174772  0.58983631  0.66338389  1  0.201325  0  -0.06076  -0.103579  0  3.903473  0
C  C87  1  0.36755244  0.65632714  0.06340238  1  0.296836  0  -0.060951  -0.106731  0  3.992853  0
C  C88  1  0.20052366  0.05824363  0.40796872  1  0.310992  0  -0.07865  -0.093666  0  4.034726  0
C  C89  1  0.04006584  0.40969570  0.34465418  1  0.332934  0  -0.07886  -0.091426  0  4.030119  0
C  C90  1  0.94746505  0.45023483  0.89464639  1  0.359316  0  0.001755  0.044444  0  3.931127  0
C  C91  1  0.71198740  0.87382811  0.43324443  1  0.670474  0  0.103331  0.237979  0  3.866633  0
C  C92  1  0.54584955  0.43157381  0.56061943  1  0.633456  0  0.104744  0.241141  0  3.863269  0
C  C93  1  0.45259551  0.55027133  0.10556963  1  0.393114  0  0.009664  0.057469  0  3.93035  0
C  C94  1  0.27272731  0.10665714  0.55904716  1  0.307213  0  -0.016008  0.04295  0  3.951802  0
C  C95  1  0.10764423  0.56088623  0.45101410  1  0.335707  0  -0.014097  0.042481  0  3.947489  0
C  C96  1  0.89778562  0.20318203  0.78336603  1  -0.050128  0  -0.08403  -0.189438  0  3.949843  0
C  C97  1  0.73017990  0.78220423  0.58501864  1  -0.046652  0  -0.079867  -0.183123  0  3.937528  0
C  C98  1  0.56254896  0.57430960  0.80156549  1  -0.005252  0  -0.079862  -0.184883  0  3.935802  0
C  C99  1  0.40164345  0.79715264  0.21528508  1  0.021573  0  -0.084002  -0.192334  0  3.957336  0
C  C100  1  0.23562593  0.20581995  0.41050922  1  -0.102582  0  -0.084114  -0.189022  0  3.947928  0
C  C101  1  0.06875342  0.42110673  0.20456304  1  -0.008507  0  -0.083535  -0.189653  0  3.938987  0
C  C102  1  0.06901939  0.50078921  0.94733101  1  1.618522  0  0.220079  0.589142  0  4.148205  0
C  C103  1  0.95794848  0.97432367  0.44914012  1  2.143661  0  0.361287  0.717298  0  4.166989  0
C  C104  1  0.79204673  0.44823293  0.47491462  1  2.138964  0  0.363193  0.719306  0  4.157883  0
C  C105  1  0.58122335  0.50435951  0.05458744  1  1.668277  0  0.227144  0.583354  0  4.157301  0
C  C106  1  0.39896002  0.06192891  0.55455180  1  1.55623  0  0.217004  0.58938  0  4.093758  0
C  C107  1  0.23309861  0.55713916  0.49319734  1  1.524779  0  0.21647  0.588435  0  4.09624  0
C  C108  1  0.71221754  0.29066179  0.81146822  1  -0.077311  0  -0.079505  -0.170049  0  3.902454  0
C  C109  1  0.53871945  0.81539892  0.53492658  1  0.037159  0  -0.081798  -0.178522  0  3.920578  0
C  C110  1  0.36909533  0.53336451  0.72134356  1  0.001941  0  -0.084805  -0.185576  0  3.931868  0
C  C111  1  0.22498619  0.70652637  0.19234204  1  -0.068548  0  -0.074877  -0.164535  0  3.889721  0
C  C112  1  0.06433100  0.19677223  0.48852030  1  0.099067  0  -0.081241  -0.167322  0  3.924811  0
C  C113  1  0.88640275  0.48380174  0.28863271  1  -0.037855  0  -0.088933  -0.176813  0  3.942453  0
C  C114  1  0.82712384  0.27787352  0.84234754  1  -0.005782  0  0.020041  0.15714  0  3.928148  0
C  C115  1  0.65730743  0.84240836  0.57120821  1  -0.057079  0  0.012402  0.137911  0  3.966121  0
C  C116  1  0.48763102  0.56751823  0.73141761  1  -0.046181  0  0.00784  0.130842  0  3.977506  0
C  C117  1  0.33016513  0.72241147  0.15812402  1  -0.038561  0  0.020482  0.157817  0  3.93065  0
C  C118  1  0.16508539  0.15420085  0.43372816  1  -0.049162  0  0.018014  0.158317  0  3.919842  0
C  C119  1  0.99764982  0.43669602  0.27696879  1  -0.014738  0  0.014121  0.152139  0  3.92983  0
C  C120  1  0.88221318  0.50960145  0.86248014  1  -0.081368  0  -0.242394  -0.401546  0  3.910162  0
C  C121  1  0.70546868  0.87214062  0.34704181  1  -0.088023  0  -0.236015  -0.446559  0  3.951865  0
C  C122  1  0.54198089  0.34559048  0.47427127  1  -0.051395  0  -0.235694  -0.444933  0  3.954745  0
C  C123  1  0.39980509  0.48494531  0.13141945  1  -0.105636  0  -0.239732  -0.401401  0  3.912619  0
C  C124  1  0.21577652  0.13648042  0.64986055  1  -0.074281  0  -0.246011  -0.396278  0  3.918896  0
C  C125  1  0.04570054  0.65231320  0.51259111  1  -0.062673  0  -0.246634  -0.396614  0  3.925718  0
C  C126  1  0.76232172  0.70695819  0.10414770  1  1.593474  0  0.118262  0.467663  0  4.323504  0
C  C127  1  0.60243485  0.10222404  0.40137515  1  1.550968  0  0.122889  0.464681  0  4.307758  0
C  C128  1  0.43934508  0.40436306  0.30348434  1  1.554843  0  0.12777  0.468783  0  4.290545  0
C  C129  1  0.26224985  0.29738200  0.89520240  1  1.575494  0  0.122813  0.466073  0  4.307264  0
C  C130  1  0.08928970  0.89004021  0.58209565  1  1.555361  0  0.129923  0.47407  0  4.300748  0
C  C131  1  0.92374655  0.57930242  0.68993043  1  1.533347  0  0.130676  0.475046  0  4.299144  0
N  N132  1  0.87551950  0.43602477  0.95334566  1  -1.016205  0  -0.368434  -0.290493  0  3.303498  0
N  N133  1  0.69658457  0.94392207  0.51087535  1  -1.189003  0  -0.330899  -0.247849  0  3.474307  0
N  N134  1  0.52941282  0.51057807  0.57086526  1  -1.163922  0  -0.3323  -0.25003  0  3.475992  0
N  N135  1  0.37551162  0.56518088  0.04764929  1  -1.036628  0  -0.369187  -0.288152  0  3.336306  0
N  N136  1  0.19274877  0.04542701  0.48474694  1  -1.044429  0  -0.454439  -0.482838  0  3.3442  0
N  N137  1  0.03115984  0.48610184  0.43588330  1  -1.063083  0  -0.449114  -0.46899  0  3.329405  0
N  N138  1  0.74197571  0.15731920  0.66780507  1  -1.260088  0  -0.334336  -0.246833  0  3.561755  0
N  N139  1  0.57212650  0.67072911  0.52236411  1  -1.258604  0  -0.326016  -0.236674  0  3.534432  0
N  N140  1  0.40711187  0.50790189  0.84402559  1  -1.250763  0  -0.320251  -0.223883  0  3.527683  0
N  N141  1  0.27026116  0.83394670  0.33755286  1  -1.276822  0  -0.33838  -0.238919  0  3.587959  0
N  N142  1  0.11058196  0.33686059  0.49798680  1  -1.271256  0  -0.340647  -0.237742  0  3.596149  0
N  N143  1  0.92150871  0.49884414  0.16092819  1  -1.255552  0  -0.327769  -0.225716  0  3.5553  0
O  O144  1  0.06489992  0.55120466  0.03028239  1  -1.158565  0  -0.296548  -0.526712  0  2.219703  0
O  O145  1  0.90933743  0.04365735  0.49670094  1  -1.097901  0  -0.164818  -0.356608  0  2.36281  0
O  O146  1  0.74246426  0.49786765  0.45574619  1  -1.097826  0  -0.162084  -0.35416  0  2.372676  0
O  O147  1  0.57480535  0.45111733  0.97267385  1  -1.160542  0  -0.283838  -0.509303  0  2.222476  0
O  O148  1  0.40511995  0.97658697  0.52020991  1  -1.178454  0  -0.315503  -0.538242  0  2.289888  0
O  O149  1  0.23988260  0.52228534  0.54291320  1  -1.160446  0  -0.315611  -0.535092  0  2.292198  0
O  O150  1  0.15923474  0.48431749  0.89605204  1  -1.174171  0  -0.317133  -0.548198  0  2.334896  0
O  O151  1  0.99556092  0.90266056  0.39518703  1  -1.105804  0  -0.178051  -0.374157  0  2.273746  0
O  O152  1  0.83299281  0.39265344  0.48955313  1  -1.094435  0  -0.176078  -0.37303  0  2.26592  0
O  O153  1  0.67177007  0.53068082  0.10902206  1  -1.147831  0  -0.296235  -0.520943  0  2.327789  0
O  O154  1  0.49121160  0.11363334  0.58621084  1  -1.192248  0  -0.322485  -0.545057  0  2.375128  0
O  O155  1  0.32434811  0.59038780  0.47633953  1  -1.190835  0  -0.321831  -0.543604  0  2.373905  0
O  O156  1  0.84448601  0.67214305  0.13379357  1  -1.168819  0  -0.354527  -0.524275  0  2.335695  0
O  O157  1  0.68282742  0.12633350  0.46622706  1  -1.157086  0  -0.357768  -0.534274  0  2.33598  0
O  O158  1  0.51951819  0.46762976  0.34575227  1  -1.162328  0  -0.355516  -0.53129  0  2.338369  0
O  O159  1  0.34102157  0.33330267  0.86843178  1  -1.1624  0  -0.350845  -0.520981  0  2.339495  0
O  O160  1  0.18595273  0.86634028  0.53359270  1  -1.173424  0  -0.350095  -0.521027  0  2.353865  0
O  O161  1  0.02257072  0.53056171  0.66268659  1  -1.176262  0  -0.348511  -0.520042  0  2.357231  0
O  O162  1  0.69003327  0.66668236  0.03905880  1  -1.201561  0  -0.344367  -0.540586  0  2.191264  0
O  O163  1  0.52270798  0.04351283  0.37762130  1  -1.176027  0  -0.335145  -0.527751  0  2.20331  0
O  O164  1  0.36048613  0.38087158  0.33768157  1  -1.180214  0  -0.334869  -0.529675  0  2.209511  0
O  O165  1  0.18783684  0.33726217  0.95660117  1  -1.191019  0  -0.337855  -0.531959  0  2.195816  0
O  O166  1  0.00397707  0.94113929  0.58486385  1  -1.19093  0  -0.331487  -0.53691  0  2.238692  0
O  O167  1  0.83809999  0.58463122  0.64309920  1  -1.195678  0  -0.334362  -0.543994  0  2.244214  0
