# generated using pymatgen
data_SnH15C12O2F
_symmetry_space_group_name_H-M   'P 1'
_cell_length_a   9.81763113
_cell_length_b   11.62796359
_cell_length_c   12.29230000
_cell_angle_alpha   96.93671646
_cell_angle_beta   90.00000000
_cell_angle_gamma   90.00000000
_symmetry_Int_Tables_number   1
_chemical_formula_structural   SnH15C12O2F
_chemical_formula_sum   'Sn4 H60 C48 O8 F4'
_cell_volume   1393.00560230
_cell_formula_units_Z   4
loop_
 _symmetry_equiv_pos_site_id
 _symmetry_equiv_pos_as_xyz
  1  'x, y, z'
loop_
 _atom_site_type_symbol
 _atom_site_label
 _atom_site_symmetry_multiplicity
 _atom_site_fract_x
 _atom_site_fract_y
 _atom_site_fract_z
 _atom_site_occupancy
 _atom_site_hle17_bader_spin_density
 _atom_site_hle17_ddec_charge
 _atom_site_hle17_ddec_spin_density
 _atom_site_hle17_ddec_sum_bond_order
 _atom_site_hle17_magmom
 _atom_site_hse06_10hf_bader_spin_density
 _atom_site_hse06_10hf_ddec_charge
 _atom_site_hse06_10hf_ddec_spin_density
 _atom_site_hse06_10hf_ddec_sum_bond_order
 _atom_site_hse06_10hf_magmom
 _atom_site_hse06_bader_spin_density
 _atom_site_hse06_ddec_charge
 _atom_site_hse06_ddec_spin_density
 _atom_site_hse06_ddec_sum_bond_order
 _atom_site_hse06_magmom
 _atom_site_pbe_bader_charge
 _atom_site_pbe_bader_spin_density
 _atom_site_pbe_cm5_charge
 _atom_site_pbe_ddec_charge
 _atom_site_pbe_ddec_spin_density
 _atom_site_pbe_ddec_sum_bond_order
 _atom_site_pbe_magmom
Sn  Sn0  1  0.57434731  0.56464831  0.73725344  1  0  1.359474  0  2.905688  0  0  1.230501  0  3.391971  0  0  1.268806  0  3.376898  0  1.698425  0  0.512748  1.20363  0  3.402223  0
Sn  Sn1  1  0.07434889  0.43534921  0.76274660  1  0  1.359402  0  2.905792  0  0  1.230473  0  3.392048  0  0  1.268792  0  3.37695  0  1.698473  0  0.512727  1.203601  0  3.402301  0
Sn  Sn2  1  0.42565258  0.43535181  0.26274690  1  0  1.359478  0  2.905676  0  0  1.230492  0  3.391988  0  0  1.268806  0  3.376909  0  1.698495  0  0.512756  1.203623  0  3.402241  0
Sn  Sn3  1  0.92565201  0.56465351  0.23725322  1  0  1.359301  0  2.905796  0  0  1.230346  0  3.392087  0  0  1.268655  0  3.377022  0  1.698305  0  0.512717  1.203471  0  3.402342  0
H  H4  1  0.07284446  0.65956422  0.63566176  1  0  0.106827  0  0.976896  0  0  0.118172  0  1.038673  0  0  0.121108  0  1.038748  0  0.067944  0  0.103953  0.11521  0  1.040691  0
H  H5  1  0.57284287  0.34044109  0.86433999  1  0  0.106828  0  0.976935  0  0  0.118187  0  1.038691  0  0  0.121144  0  1.038739  0  0.067812  0  0.103955  0.115226  0  1.040711  0
H  H6  1  0.92715848  0.34043936  0.36433897  1  0  0.106849  0  0.976945  0  0  0.118211  0  1.038694  0  0  0.121152  0  1.038761  0  0.06785  0  0.103973  0.11525  0  1.040712  0
H  H7  1  0.42715294  0.65955729  0.13565365  1  0  0.106832  0  0.976859  0  0  0.118154  0  1.038659  0  0  0.121102  0  1.038726  0  0.067663  0  0.103938  0.115196  0  1.040675  0
H  H8  1  0.86696678  0.86024779  0.66768415  1  0  0.098538  0  0.934783  0  0  0.107371  0  0.998448  0  0  0.110563  0  0.99572  0  0.091171  0  0.106698  0.105119  0  1.000352  0
H  H9  1  0.36697243  0.13975320  0.83232199  1  0  0.098472  0  0.934744  0  0  0.107346  0  0.998381  0  0  0.110526  0  0.995662  0  0.091048  0  0.106664  0.105093  0  1.000285  0
H  H10  1  0.13303209  0.13975320  0.33231955  1  0  0.098468  0  0.934831  0  0  0.107356  0  0.998446  0  0  0.110532  0  0.995733  0  0.091196  0  0.10669  0.105104  0  1.000349  0
H  H11  1  0.63302949  0.86024259  0.16767704  1  0  0.098469  0  0.934744  0  0  0.107339  0  0.998387  0  0  0.110525  0  0.995661  0  0.09084  0  0.106658  0.105086  0  1.000291  0
H  H12  1  0.19319121  0.76154771  0.52054579  1  0  0.094936  0  0.946887  0  0  0.107306  0  1.003601  0  0  0.109774  0  1.002888  0  0.090364  0  0.105761  0.105428  0  1.004347  0
H  H13  1  0.69319879  0.23845154  0.97945689  1  0  0.094923  0  0.946995  0  0  0.107342  0  1.003647  0  0  0.109804  0  1.002921  0  0.090118  0  0.105799  0.105461  0  1.004399  0
H  H14  1  0.80680664  0.23845154  0.47945608  1  0  0.094954  0  0.946873  0  0  0.107342  0  1.00357  0  0  0.109792  0  1.002867  0  0.090222  0  0.105768  0.105462  0  1.004316  0
H  H15  1  0.30680313  0.76154771  0.02054335  1  0  0.094905  0  0.946948  0  0  0.107319  0  1.003611  0  0  0.109778  0  1.002892  0  0.090192  0  0.105783  0.105439  0  1.004358  0
H  H16  1  0.37577700  0.89685833  0.47496788  1  0  0.129576  0  0.948388  0  0  0.134869  0  1.012009  0  0  0.139398  0  1.008866  0  0.109059  0  0.107341  0.131353  0  1.014817  0
H  H17  1  0.87577949  0.10314265  0.02504151  1  0  0.129504  0  0.948365  0  0  0.134859  0  1.011931  0  0  0.139198  0  1.009035  0  0.108949  0  0.107331  0.131343  0  1.014738  0
H  H18  1  0.62422288  0.10314092  0.52503399  1  0  0.129537  0  0.948367  0  0  0.134854  0  1.011973  0  0  0.139212  0  1.009026  0  0.109054  0  0.107329  0.13134  0  1.014779  0
H  H19  1  0.12422243  0.89685747  0.97496046  1  0  0.129611  0  0.948416  0  0  0.134925  0  1.012007  0  0  0.139265  0  1.009108  0  0.108977  0  0.107342  0.131409  0  1.014816  0
H  H20  1  0.16435329  0.18198281  0.65718185  1  0  0.123202  0  0.96789  0  0  0.131338  0  1.032484  0  0  0.134484  0  1.031465  0  0.131006  0  0.110397  0.129051  0  1.033491  0
H  H21  1  0.66436189  0.81801818  0.84282428  1  0  0.123214  0  0.967971  0  0  0.131329  0  1.03257  0  0  0.134474  0  1.031554  0  0.131053  0  0.110377  0.129041  0  1.033579  0
H  H22  1  0.83564354  0.81801904  0.34281462  1  0  0.123272  0  0.967838  0  0  0.131369  0  1.032471  0  0  0.13453  0  1.031416  0  0.130889  0  0.110405  0.129083  0  1.033477  0
H  H23  1  0.33564512  0.18198107  0.15717677  1  0  0.123258  0  0.967915  0  0  0.131366  0  1.032533  0  0  0.134512  0  1.031517  0  0.131168  0  0.1104  0.129079  0  1.033539  0
H  H24  1  0.97745473  0.04794570  0.69941120  1  0  0.095552  0  0.947097  0  0  0.10719  0  1.004881  0  0  0.109701  0  1.004382  0  0.067794  0  0.105258  0.105333  0  1.005342  0
H  H25  1  0.47746141  0.95205181  0.80058966  1  0  0.095493  0  0.947035  0  0  0.107132  0  1.00483  0  0  0.109639  0  1.00434  0  0.067878  0  0.10526  0.105274  0  1.005292  0
H  H26  1  0.02254210  0.95205528  0.30058680  1  0  0.095569  0  0.947103  0  0  0.107203  0  1.004889  0  0  0.109707  0  1.004406  0  0.067776  0  0.105273  0.105344  0  1.005352  0
H  H27  1  0.52254357  0.04794484  0.19941110  1  0  0.095565  0  0.947073  0  0  0.107199  0  1.004852  0  0  0.109708  0  1.00436  0  0.067813  0  0.105262  0.105341  0  1.005314  0
H  H28  1  0.57497577  0.56124447  0.95800300  1  0  0.149209  0  1.009331  0  0  0.168191  0  1.066635  0  0  0.170433  0  1.067991  0  0.029242  0  0.081296  0.166645  0  1.065521  0
H  H29  1  0.07497430  0.43875391  0.54199470  1  0  0.149199  0  1.009322  0  0  0.168188  0  1.06662  0  0  0.170431  0  1.067972  0  0.029222  0  0.081271  0.16664  0  1.065507  0
H  H30  1  0.42502412  0.43875391  0.04199551  1  0  0.149208  0  1.009309  0  0  0.168194  0  1.066617  0  0  0.170437  0  1.06797  0  0.029362  0  0.081277  0.166651  0  1.065498  0
H  H31  1  0.92502355  0.56124707  0.45800167  1  0  0.149215  0  1.009332  0  0  0.168195  0  1.066649  0  0  0.170435  0  1.068009  0  0.029306  0  0.081277  0.166641  0  1.065543  0
H  H32  1  0.71378624  0.64903389  0.92256672  1  0  0.161156  0  0.983018  0  0  0.178809  0  1.040132  0  0  0.182131  0  1.039741  0  0.054984  0  0.086266  0.176093  0  1.041039  0
H  H33  1  0.21378579  0.35096276  0.57743241  1  0  0.161188  0  0.982987  0  0  0.17882  0  1.040116  0  0  0.182142  0  1.039724  0  0.05493  0  0.086263  0.176104  0  1.041024  0
H  H34  1  0.28621161  0.35096362  0.07743170  1  0  0.161159  0  0.983008  0  0  0.178805  0  1.040129  0  0  0.182129  0  1.039734  0  0.054903  0  0.086267  0.17609  0  1.041032  0
H  H35  1  0.78621104  0.64903822  0.42256803  1  0  0.161157  0  0.98299  0  0  0.178801  0  1.040113  0  0  0.182196  0  1.039595  0  0.055033  0  0.086259  0.176085  0  1.041021  0
H  H36  1  0.72871347  0.49571559  0.90122639  1  0  0.139813  0  1.024548  0  0  0.157955  0  1.086326  0  0  0.160701  0  1.086453  0  0.032046  0  0.081177  0.155886  0  1.086657  0
H  H37  1  0.22871301  0.50428280  0.59877375  1  0  0.139717  0  1.024601  0  0  0.157893  0  1.086344  0  0  0.160638  0  1.086471  0  0.031997  0  0.08114  0.155824  0  1.086675  0
H  H38  1  0.27128540  0.50428366  0.09877385  1  0  0.139743  0  1.024505  0  0  0.157934  0  1.086232  0  0  0.160682  0  1.086356  0  0.031958  0  0.081178  0.155865  0  1.086565  0
H  H39  1  0.77128483  0.49571732  0.40122334  1  0  0.139715  0  1.024571  0  0  0.157906  0  1.086306  0  0  0.160645  0  1.086447  0  0.031979  0  0.081151  0.155837  0  1.086637  0
H  H40  1  0.47959736  0.75522258  0.65330429  1  0  0.160478  0  0.981042  0  0  0.177949  0  1.03716  0  0  0.181259  0  1.036718  0  0.067072  0  0.085879  0.175641  0  1.037243  0
H  H41  1  0.97959781  0.24477840  0.84669696  1  0  0.160475  0  0.981031  0  0  0.177951  0  1.03714  0  0  0.181185  0  1.036837  0  0.067068  0  0.085876  0.175643  0  1.037225  0
H  H42  1  0.52040761  0.24477926  0.34669706  1  0  0.160486  0  0.981028  0  0  0.177955  0  1.037147  0  0  0.181181  0  1.036858  0  0.067115  0  0.085874  0.175646  0  1.037231  0
H  H43  1  0.02040920  0.75522432  0.15330205  1  0  0.160453  0  0.980994  0  0  0.177921  0  1.037128  0  0  0.181146  0  1.036838  0  0.06716  0  0.085876  0.17562  0  1.037203  0
H  H44  1  0.40657873  0.75048805  0.78653168  1  0  0.145346  0  0.993091  0  0  0.165494  0  1.048881  0  0  0.167725  0  1.050083  0  0.038499  0  0.082428  0.163933  0  1.047869  0
H  H45  1  0.90657613  0.24951206  0.71347028  1  0  0.145353  0  0.993104  0  0  0.165498  0  1.048899  0  0  0.167736  0  1.050087  0  0.038407  0  0.082426  0.163937  0  1.047885  0
H  H46  1  0.59342523  0.24951380  0.21346885  1  0  0.145328  0  0.993124  0  0  0.165465  0  1.048927  0  0  0.167704  0  1.050114  0  0.038402  0  0.082407  0.163903  0  1.047914  0
H  H47  1  0.09342681  0.75048805  0.28653005  1  0  0.145302  0  0.993138  0  0  0.165442  0  1.048938  0  0  0.167677  0  1.050137  0  0.038403  0  0.082407  0.163881  0  1.047926  0
H  H48  1  0.33998833  0.66003031  0.67163506  1  0  0.141587  0  1.016231  0  0  0.159966  0  1.077321  0  0  0.162178  0  1.07856  0  0.036631  0  0.080325  0.157451  0  1.078343  0
H  H49  1  0.83998674  0.33996894  0.82836681  1  0  0.141594  0  1.016233  0  0  0.159962  0  1.077331  0  0  0.162183  0  1.078551  0  0.036607  0  0.080333  0.157447  0  1.078354  0
H  H50  1  0.66001563  0.33997414  0.32836578  1  0  0.141551  0  1.016236  0  0  0.15992  0  1.077334  0  0  0.162137  0  1.07856  0  0.036533  0  0.080319  0.157404  0  1.078358  0
H  H51  1  0.16001416  0.66002598  0.17163375  1  0  0.141551  0  1.016207  0  0  0.159915  0  1.077323  0  0  0.162133  0  1.078548  0  0.036569  0  0.080318  0.157399  0  1.078347  0
H  H52  1  0.50944774  0.39419472  0.57283462  1  0  0.15941  0  0.979279  0  0  0.179205  0  1.031164  0  0  0.181863  0  1.031999  0  0.063689  0  0.086733  0.177019  0  1.031175  0
H  H53  1  0.00944729  0.60580453  0.92716318  1  0  0.159327  0  0.979395  0  0  0.179158  0  1.031224  0  0  0.18182  0  1.032051  0  0.063568  0  0.086716  0.176972  0  1.031235  0
H  H54  1  0.49055011  0.60580453  0.42716237  1  0  0.159275  0  0.979392  0  0  0.179122  0  1.031201  0  0  0.181832  0  1.031938  0  0.063611  0  0.086698  0.176936  0  1.031212  0
H  H55  1  0.99055158  0.39419905  0.07283674  1  0  0.159236  0  0.979349  0  0  0.179057  0  1.031209  0  0  0.181721  0  1.032036  0  0.063595  0  0.086656  0.176871  0  1.031219  0
H  H56  1  0.65338470  0.35051573  0.64778395  1  0  0.150256  0  0.992392  0  0  0.169355  0  1.048885  0  0  0.171692  0  1.050016  0  0.024876  0  0.084096  0.167514  0  1.048519  0
H  H57  1  0.15338527  0.64948352  0.85221303  1  0  0.150218  0  0.992408  0  0  0.169331  0  1.048892  0  0  0.171669  0  1.050019  0  0.025027  0  0.084084  0.16749  0  1.048525  0
H  H58  1  0.34661314  0.64948266  0.35221212  1  0  0.150197  0  0.992409  0  0  0.169312  0  1.048896  0  0  0.171648  0  1.050038  0  0.024734  0  0.084075  0.167471  0  1.04853  0
H  H59  1  0.84661360  0.35052093  0.14778536  1  0  0.150124  0  0.992435  0  0  0.169218  0  1.048958  0  0  0.171559  0  1.050084  0  0.024812  0  0.084016  0.167377  0  1.048592  0
H  H60  1  0.67629553  0.45070850  0.54995809  1  0  0.151271  0  1.009632  0  0  0.169043  0  1.069015  0  0  0.171609  0  1.069886  0  0.058499  0  0.08319  0.167163  0  1.068494  0
H  H61  1  0.17629609  0.54929075  0.95003890  1  0  0.151306  0  1.009558  0  0  0.169047  0  1.068993  0  0  0.171617  0  1.069854  0  0.058289  0  0.083187  0.167168  0  1.068472  0
H  H62  1  0.32370334  0.54929248  0.45003910  1  0  0.151305  0  1.009582  0  0  0.169048  0  1.069004  0  0  0.171612  0  1.069879  0  0.058279  0  0.083202  0.167168  0  1.068484  0
H  H63  1  0.82370379  0.45070850  0.04995727  1  0  0.151215  0  1.009645  0  0  0.168992  0  1.069032  0  0  0.171561  0  1.069896  0  0.05847  0  0.083184  0.167106  0  1.068518  0
C  C64  1  0.86145832  0.63430183  0.68297129  1  0  0.690257  0  3.892577  0  0  0.641731  0  4.180676  0  0  0.677748  0  4.171632  0  1.51966  0  0.221425  0.617201  0  4.185916  0
C  C65  1  0.36145787  0.36569656  0.81703211  1  0  0.690102  0  3.892787  0  0  0.641687  0  4.180767  0  0  0.677689  0  4.171747  0  1.519829  0  0.221433  0.617158  0  4.186007  0
C  C66  1  0.13854462  0.36569829  0.31703068  1  0  0.690303  0  3.892542  0  0  0.641759  0  4.18066  0  0  0.67778  0  4.171606  0  1.519681  0  0.221457  0.617228  0  4.185903  0
C  C67  1  0.63853896  0.63430009  0.18296540  1  0  0.690219  0  3.892794  0  0  0.641803  0  4.180782  0  0  0.67783  0  4.171723  0  1.520037  0  0.22145  0.617273  0  4.186023  0
C  C68  1  0.97630476  0.70481995  0.65148668  1  0  -0.263289  0  3.710199  0  0  -0.279711  0  3.969685  0  0  -0.292921  0  3.987101  0  0.005091  0  -0.104723  -0.270976  0  3.958773  0
C  C69  1  0.47630635  0.29517930  0.84851600  1  0  -0.263421  0  3.710456  0  0  -0.279906  0  3.969957  0  0  -0.293117  0  3.98735  0  0.005141  0  -0.104818  -0.271176  0  3.959049  0
C  C70  1  0.02369614  0.29518103  0.34851458  1  0  -0.263428  0  3.710162  0  0  -0.279877  0  3.969691  0  0  -0.29308  0  3.98708  0  0.005163  0  -0.104788  -0.271144  0  3.958782  0
C  C71  1  0.52369150  0.70481908  0.15147681  1  0  -0.26345  0  3.710417  0  0  -0.279902  0  3.969928  0  0  -0.293097  0  3.987291  0  0.004945  0  -0.104819  -0.271172  0  3.959018  0
C  C72  1  0.96508719  0.81941818  0.64537190  1  0  -0.012716  0  3.717729  0  0  -0.040758  0  3.97436  0  0  -0.033649  0  3.989839  0  -0.101013  0  -0.066183  -0.045246  0  3.963492  0
C  C73  1  0.46509285  0.18058454  0.85463118  1  0  -0.012526  0  3.717534  0  0  -0.040582  0  3.974154  0  0  -0.033476  0  3.989643  0  -0.100804  0  -0.066052  -0.045069  0  3.963282  0
C  C74  1  0.03491270  0.18058281  0.35462772  1  0  -0.012509  0  3.717531  0  0  -0.040588  0  3.974166  0  0  -0.033479  0  3.989647  0  -0.101013  0  -0.066127  -0.045074  0  3.963298  0
C  C75  1  0.53490704  0.81941471  0.14536744  1  0  -0.012516  0  3.71752  0  0  -0.040554  0  3.974152  0  0  -0.033413  0  3.989573  0  -0.100601  0  -0.066034  -0.045036  0  3.963283  0
C  C76  1  0.07309604  0.89512739  0.61486514  1  0  0.05482  0  3.829386  0  0  0.07171  0  4.06506  0  0  0.068075  0  4.091307  0  0.002797  0  -0.017671  0.073872  0  4.047097  0
C  C77  1  0.57309955  0.10487359  0.88514099  1  0  0.054872  0  3.829438  0  0  0.071737  0  4.06516  0  0  0.068127  0  4.091356  0  0.002294  0  -0.01771  0.073907  0  4.047181  0
C  C78  1  0.92690180  0.10487446  0.38513458  1  0  0.054702  0  3.829458  0  0  0.071584  0  4.065153  0  0  0.067936  0  4.091436  0  0.002582  0  -0.017706  0.073742  0  4.047197  0
C  C79  1  0.42689931  0.89512739  0.11486433  1  0  0.05482  0  3.829366  0  0  0.071629  0  4.065164  0  0  0.068018  0  4.091365  0  0.002547  0  -0.017735  0.073779  0  4.047216  0
C  C80  1  0.18601229  0.85338293  0.55113634  1  0  -0.068358  0  3.718681  0  0  -0.084332  0  3.961886  0  0  -0.085059  0  3.984048  0  -0.045891  0  -0.077528  -0.083631  0  3.946715  0
C  C81  1  0.68601987  0.14661719  0.94887539  1  0  -0.068346  0  3.7186  0  0  -0.08436  0  3.961804  0  0  -0.085033  0  3.983893  0  -0.045179  0  -0.077565  -0.083662  0  3.946628  0
C  C82  1  0.81398353  0.14661719  0.44886400  1  0  -0.068396  0  3.718831  0  0  -0.084386  0  3.962033  0  0  -0.085148  0  3.984214  0  -0.045478  0  -0.077567  -0.083683  0  3.946861  0
C  C83  1  0.31398307  0.85338293  0.05113471  1  0  -0.068309  0  3.718764  0  0  -0.084292  0  3.961972  0  0  -0.084973  0  3.984069  0  -0.045524  0  -0.077547  -0.083585  0  3.9468  0
C  C84  1  0.28831599  0.92799623  0.52453047  1  0  -0.196307  0  3.770827  0  0  -0.221137  0  4.027897  0  0  -0.226819  0  4.047153  0  -0.004438  0  -0.101335  -0.21781  0  4.015936  0
C  C85  1  0.78831746  0.07199609  0.97547386  1  0  -0.196293  0  3.771066  0  0  -0.221155  0  4.028134  0  0  -0.226855  0  4.04752  0  -0.004448  0  -0.101313  -0.217828  0  4.016176  0
C  C86  1  0.71168390  0.07200042  0.47546866  1  0  -0.196235  0  3.770954  0  0  -0.221104  0  4.028016  0  0  -0.226676  0  4.047165  0  -0.004546  0  -0.101293  -0.217777  0  4.016054  0
C  C87  1  0.21168039  0.92799709  0.02452650  1  0  -0.196384  0  3.771014  0  0  -0.221225  0  4.028076  0  0  -0.226923  0  4.047457  0  -0.004212  0  -0.101313  -0.217897  0  4.016113  0
C  C88  1  0.27686720  0.04508333  0.56378241  1  0  0.314873  0  3.782958  0  0  0.30191  0  4.063894  0  0  0.312553  0  4.075752  0  0.384939  0  0.099121  0.293968  0  4.057194  0
C  C89  1  0.77687580  0.95491506  0.93622749  1  0  0.314882  0  3.782946  0  0  0.301902  0  4.063897  0  0  0.312567  0  4.075708  0  0.384563  0  0.099115  0.293958  0  4.057202  0
C  C90  1  0.72312963  0.95491506  0.43621855  1  0  0.314861  0  3.782891  0  0  0.30194  0  4.063765  0  0  0.31304  0  4.074876  0  0.385018  0  0.099132  0.293998  0  4.057067  0
C  C91  1  0.22313224  0.04508419  0.06377681  1  0  0.314919  0  3.783025  0  0  0.301963  0  4.063953  0  0  0.312626  0  4.075756  0  0.384668  0  0.099132  0.294019  0  4.057255  0
C  C92  1  0.16739578  0.09022989  0.62666985  1  0  -0.184862  0  3.76467  0  0  -0.210506  0  4.022356  0  0  -0.216047  0  4.042855  0  0.003109  0  -0.098862  -0.207256  0  4.009263  0
C  C93  1  0.66739216  0.90976589  0.87333650  1  0  -0.184863  0  3.764523  0  0  -0.210448  0  4.022142  0  0  -0.215976  0  4.042631  0  0.004348  0  -0.098841  -0.2072  0  4.00905  0
C  C94  1  0.83260309  0.90976936  0.37332551  1  0  -0.184891  0  3.764493  0  0  -0.21051  0  4.022177  0  0  -0.215927  0  4.042451  0  0.003241  0  -0.098852  -0.207259  0  4.009077  0
C  C95  1  0.33260467  0.09022816  0.12666803  1  0  -0.184873  0  3.764817  0  0  -0.21048  0  4.022478  0  0  -0.216011  0  4.042962  0  0.0039  0  -0.098825  -0.207231  0  4.009383  0
C  C96  1  0.06487003  0.01458046  0.65063137  1  0  -0.075088  0  3.724467  0  0  -0.094114  0  3.970784  0  0  -0.095052  0  3.992948  0  -0.025769  0  -0.07877  -0.093227  0  3.955631  0
C  C97  1  0.56487455  0.98542572  0.84937698  1  0  -0.075089  0  3.724663  0  0  -0.094124  0  3.970971  0  0  -0.095055  0  3.993126  0  -0.026581  0  -0.078762  -0.093235  0  3.955812  0
C  C98  1  0.93512782  0.98542313  0.34936693  1  0  -0.075083  0  3.724513  0  0  -0.094105  0  3.970814  0  0  -0.095123  0  3.993049  0  -0.025743  0  -0.078787  -0.093214  0  3.955661  0
C  C99  1  0.43512737  0.01457959  0.15062802  1  0  -0.075169  0  3.724599  0  0  -0.094167  0  3.970909  0  0  -0.0951  0  3.99306  0  -0.026647  0  -0.07881  -0.093274  0  3.955756  0
C  C100  1  0.65783588  0.56818730  0.89956724  1  0  -0.719418  0  3.526991  0  0  -0.763823  0  3.760439  0  0  -0.777184  0  3.766026  0  -0.438826  0  -0.339503  -0.754233  0  3.756741  0
C  C101  1  0.15783543  0.43181022  0.60043199  1  0  -0.719362  0  3.526992  0  0  -0.763768  0  3.760401  0  0  -0.777124  0  3.765979  0  -0.438707  0  -0.33944  -0.754178  0  3.756703  0
C  C102  1  0.34216197  0.43181108  0.10043046  1  0  -0.719353  0  3.526844  0  0  -0.763791  0  3.760255  0  0  -0.777152  0  3.765833  0  -0.438515  0  -0.339484  -0.754206  0  3.756552  0
C  C103  1  0.84216038  0.56819076  0.39957008  1  0  -0.719285  0  3.526899  0  0  -0.763736  0  3.760302  0  0  -0.777112  0  3.765909  0  -0.438611  0  -0.339439  -0.754139  0  3.756613  0
C  C104  1  0.43308716  0.69918183  0.70853720  1  0  -0.709326  0  3.516528  0  0  -0.747998  0  3.741719  0  0  -0.761781  0  3.748889  0  -0.46884  0  -0.338467  -0.737565  0  3.737244  0
C  C105  1  0.93308354  0.30081829  0.79146477  1  0  -0.709339  0  3.516542  0  0  -0.747993  0  3.741726  0  0  -0.761758  0  3.748852  0  -0.468768  0  -0.338472  -0.737558  0  3.73725  0
C  C106  1  0.56691883  0.30082002  0.29146415  1  0  -0.709274  0  3.516502  0  0  -0.747918  0  3.741723  0  0  -0.761686  0  3.748868  0  -0.468747  0  -0.338437  -0.737483  0  3.737246  0
C  C107  1  0.06691736  0.69918096  0.20853547  1  0  -0.709195  0  3.516495  0  0  -0.747833  0  3.741709  0  0  -0.761597  0  3.748869  0  -0.468832  0  -0.338436  -0.737406  0  3.737223  0
C  C108  1  0.60668810  0.42226578  0.61098301  1  0  -0.706319  0  3.517234  0  0  -0.7467  0  3.743433  0  0  -0.7603  0  3.750541  0  -0.456851  0  -0.334583  -0.737117  0  3.738834  0
C  C109  1  0.10668867  0.57773347  0.88901479  1  0  -0.706218  0  3.517253  0  0  -0.746627  0  3.743441  0  0  -0.760216  0  3.750519  0  -0.456665  0  -0.334544  -0.737044  0  3.738836  0
C  C110  1  0.39330975  0.57773174  0.38901297  1  0  -0.706177  0  3.517272  0  0  -0.746585  0  3.743428  0  0  -0.760173  0  3.750503  0  -0.456596  0  -0.33455  -0.737003  0  3.738825  0
C  C111  1  0.89331020  0.42227185  0.11098533  1  0  -0.705908  0  3.517259  0  0  -0.74632  0  3.743427  0  0  -0.75991  0  3.750497  0  -0.456614  0  -0.334421  -0.73673  0  3.738829  0
O  O112  1  0.74108101  0.67814023  0.68408859  1  0  -0.622457  0  2.012792  0  0  -0.554692  0  2.247309  0  0  -0.580962  0  2.239523  0  -1.183964  0  -0.284677  -0.53617  0  2.252375  0
O  O113  1  0.24107954  0.32186076  0.81591673  1  0  -0.622343  0  2.012757  0  0  -0.554682  0  2.247299  0  0  -0.580958  0  2.239561  0  -1.183986  0  -0.284707  -0.536159  0  2.252367  0
O  O114  1  0.25892193  0.32186076  0.31591185  1  0  -0.622488  0  2.012797  0  0  -0.554737  0  2.247366  0  0  -0.581023  0  2.239619  0  -1.183978  0  -0.284711  -0.536215  0  2.252435  0
O  O115  1  0.75891627  0.67814023  0.18408208  1  0  -0.622365  0  2.01284  0  0  -0.554679  0  2.247343  0  0  -0.580981  0  2.239608  0  -1.183912  0  -0.284689  -0.536156  0  2.25241  0
O  O116  1  0.88216902  0.53209482  0.70733420  1  0  -0.644344  0  2.03377  0  0  -0.568125  0  2.266031  0  0  -0.595581  0  2.260144  0  -1.206245  0  -0.280689  -0.548444  0  2.269236  0
O  O117  1  0.38216551  0.46790270  0.79266422  1  0  -0.644263  0  2.033907  0  0  -0.56806  0  2.266121  0  0  -0.595507  0  2.260245  0  -1.206299  0  -0.280654  -0.548377  0  2.269323  0
O  O118  1  0.11783291  0.46790443  0.29266441  1  0  -0.644328  0  2.033793  0  0  -0.568102  0  2.266079  0  0  -0.595561  0  2.260195  0  -1.206243  0  -0.280688  -0.548419  0  2.269283  0
O  O119  1  0.61783030  0.53209569  0.20733267  1  0  -0.644336  0  2.033913  0  0  -0.56812  0  2.26611  0  0  -0.595584  0  2.260234  0  -1.206248  0  -0.280671  -0.548439  0  2.269316  0
F  F120  1  0.37726005  0.11937435  0.53900837  1  0  -0.224074  0  1.17722  0  0  -0.16615  0  1.325129  0  0  -0.17638  0  1.316111  0  -0.645122  0  -0.101091  -0.15582  0  1.327125  0
F  F121  1  0.87726763  0.88062404  0.96100071  1  0  -0.224034  0  1.177219  0  0  -0.166152  0  1.325182  0  0  -0.176369  0  1.316171  0  -0.645232  0  -0.101081  -0.155814  0  1.327174  0
F  F122  1  0.62273576  0.88062317  0.46098760  1  0  -0.224068  0  1.177178  0  0  -0.166155  0  1.325075  0  0  -0.176822  0  1.316137  0  -0.645165  0  -0.101091  -0.155821  0  1.327067  0
F  F123  1  0.12274142  0.11937781  0.03900145  1  0  -0.22408  0  1.177198  0  0  -0.166191  0  1.325141  0  0  -0.176394  0  1.316115  0  -0.64511  0  -0.101097  -0.155854  0  1.327131  0
