# generated using pymatgen
data_CaH15C5N(ClO2)2
_symmetry_space_group_name_H-M   'P 1'
_cell_length_a   9.92010424
_cell_length_b   10.81300000
_cell_length_c   10.92119696
_cell_angle_alpha   90.00000000
_cell_angle_beta   90.00000000
_cell_angle_gamma   90.00000000
_symmetry_Int_Tables_number   1
_chemical_formula_structural   CaH15C5N(ClO2)2
_chemical_formula_sum   'Ca4 H60 C20 N4 Cl8 O16'
_cell_volume   1171.47406441
_cell_formula_units_Z   4
loop_
 _symmetry_equiv_pos_site_id
 _symmetry_equiv_pos_as_xyz
  1  'x, y, z'
loop_
 _atom_site_type_symbol
 _atom_site_label
 _atom_site_symmetry_multiplicity
 _atom_site_fract_x
 _atom_site_fract_y
 _atom_site_fract_z
 _atom_site_occupancy
 _atom_site_pbe_bader_charge
 _atom_site_pbe_bader_spin_density
 _atom_site_pbe_cm5_charge
 _atom_site_pbe_ddec_charge
 _atom_site_pbe_ddec_spin_density
 _atom_site_pbe_ddec_sum_bond_order
 _atom_site_pbe_magmom
Ca  Ca0  1  0.25000040  0.22592158  0.19021633  1  1.612322  0  0.761827  1.373888  0  1.550738  0
Ca  Ca1  1  0.75000018  0.72592250  0.30978381  1  1.612323  0  0.761828  1.373929  0  1.550635  0
Ca  Ca2  1  0.25000040  0.27407750  0.69021555  1  1.612322  0  0.761828  1.373927  0  1.55064  0
Ca  Ca3  1  0.75000018  0.77407842  0.80978395  1  1.612317  0  0.761833  1.373886  0  1.550752  0
H  H4  1  0.15879470  0.69151114  0.87184400  1  0.093635  0  0.11201  0.133912  0  1.015272  0
H  H5  1  0.84120588  0.19151114  0.62815642  1  0.09363  0  0.112006  0.133908  0  1.015271  0
H  H6  1  0.34120609  0.80848886  0.37184294  1  0.093633  0  0.112008  0.133913  0  1.015255  0
H  H7  1  0.65879449  0.30848886  0.12815628  1  0.093636  0  0.112012  0.133917  0  1.015262  0
H  H8  1  0.84120588  0.30848886  0.12815628  1  0.093632  0  0.112008  0.13391  0  1.015268  0
H  H9  1  0.15879470  0.80848886  0.37184386  1  0.093633  0  0.112008  0.133911  0  1.015274  0
H  H10  1  0.65879449  0.19151114  0.62815734  1  0.093631  0  0.112008  0.133911  0  1.015268  0
H  H11  1  0.34120609  0.69151114  0.87184400  1  0.09364  0  0.112013  0.13392  0  1.015248  0
H  H12  1  0.25000040  0.62928789  0.99891249  1  0.070363  0  0.116117  0.141167  0  0.971856  0
H  H13  1  0.75000018  0.12928789  0.50108793  1  0.070368  0  0.116122  0.141177  0  0.971848  0
H  H14  1  0.25000040  0.87071211  0.49891235  1  0.070365  0  0.116119  0.141173  0  0.971849  0
H  H15  1  0.75000018  0.37071211  0.00108779  1  0.070367  0  0.11612  0.141173  0  0.97185  0
H  H16  1  0.12194630  0.75796079  0.12771860  1  0.106524  0  0.101211  0.128209  0  1.023625  0
H  H17  1  0.87805428  0.25796079  0.37228245  1  0.106524  0  0.101214  0.128211  0  1.023626  0
H  H18  1  0.37805349  0.74203921  0.62771782  1  0.106521  0  0.101208  0.128202  0  1.023636  0
H  H19  1  0.62194609  0.24203921  0.87228168  1  0.106521  0  0.101213  0.128208  0  1.023622  0
H  H20  1  0.87805428  0.24203921  0.87228168  1  0.106521  0  0.101212  0.128209  0  1.023628  0
H  H21  1  0.12194630  0.74204014  0.62771782  1  0.106516  0  0.101199  0.12819  0  1.023621  0
H  H22  1  0.62194709  0.25795986  0.37228154  1  0.106514  0  0.101204  0.128194  0  1.02363  0
H  H23  1  0.37805349  0.75796079  0.12771860  1  0.106518  0  0.101208  0.128201  0  1.023631  0
H  H24  1  0.03798246  0.83337649  0.00467989  1  0.078266  0  0.117742  0.139152  0  0.997362  0
H  H25  1  0.96201711  0.33337649  0.49532116  1  0.078255  0  0.117728  0.139133  0  0.997384  0
H  H26  1  0.46201732  0.66662351  0.50467911  1  0.078257  0  0.117735  0.139144  0  0.997371  0
H  H27  1  0.53798225  0.16662351  0.99532039  1  0.078257  0  0.117738  0.13914  0  0.997366  0
H  H28  1  0.96201711  0.16662351  0.99532039  1  0.078268  0  0.117732  0.139136  0  0.997382  0
H  H29  1  0.03798246  0.66662258  0.50468003  1  0.078267  0  0.11774  0.139152  0  0.997352  0
H  H30  1  0.53798326  0.33337649  0.49532025  1  0.078272  0  0.117737  0.139138  0  0.997377  0
H  H31  1  0.46201732  0.83337649  0.00467989  1  0.078269  0  0.117737  0.139143  0  0.997377  0
H  H32  1  0.12971840  0.92425876  0.11545987  1  0.133819  0  0.108777  0.13561  0  1.038939  0
H  H33  1  0.87028118  0.42425876  0.38454027  1  0.133828  0  0.108788  0.135611  0  1.038945  0
H  H34  1  0.37028139  0.57574124  0.61546001  1  0.133833  0  0.108785  0.135603  0  1.038954  0
H  H35  1  0.62971818  0.07574124  0.88453949  1  0.133825  0  0.108785  0.135618  0  1.038924  0
H  H36  1  0.87028118  0.07574124  0.88453949  1  0.133833  0  0.108783  0.135613  0  1.038944  0
H  H37  1  0.12971840  0.57574216  0.61546001  1  0.133838  0  0.108779  0.13561  0  1.038938  0
H  H38  1  0.62971818  0.42425784  0.38453935  1  0.133837  0  0.108782  0.135611  0  1.038943  0
H  H39  1  0.37028139  0.92425876  0.11546079  1  0.133823  0  0.108781  0.135606  0  1.038945  0
H  H40  1  0.15986727  0.90388236  0.82971949  1  0.123152  0  0.110523  0.123979  0  1.025279  0
H  H41  1  0.84013331  0.40388236  0.67028093  1  0.123128  0  0.110515  0.12397  0  1.025289  0
H  H42  1  0.34013251  0.59611764  0.32971844  1  0.123157  0  0.110501  0.123947  0  1.025338  0
H  H43  1  0.65986706  0.09611764  0.17028170  1  0.123133  0  0.110508  0.12396  0  1.025307  0
H  H44  1  0.84013230  0.09611764  0.17028170  1  0.123134  0  0.110512  0.123955  0  1.025299  0
H  H45  1  0.15986727  0.59611764  0.32971844  1  0.123128  0  0.110514  0.123983  0  1.025301  0
H  H46  1  0.65986706  0.40388236  0.67028184  1  0.123126  0  0.110513  0.123979  0  1.025295  0
H  H47  1  0.34013251  0.90388236  0.82971858  1  0.123154  0  0.11052  0.123976  0  1.025272  0
H  H48  1  0.41437569  0.36732637  0.99654919  1  0.606311  0  0.276778  0.372968  0  0.967519  0
H  H49  1  0.58562288  0.86732637  0.50345123  1  0.606307  0  0.276783  0.372955  0  0.967537  0
H  H50  1  0.08562309  0.13267363  0.49654905  1  0.606309  0  0.276789  0.372958  0  0.967533  0
H  H51  1  0.91437648  0.63267363  0.00345109  1  0.606308  0  0.276773  0.372955  0  0.967538  0
H  H52  1  0.58562389  0.63267363  0.00345109  1  0.606307  0  0.276771  0.37295  0  0.967545  0
H  H53  1  0.41437770  0.13267363  0.49654905  1  0.60631  0  0.276786  0.372961  0  0.96753  0
H  H54  1  0.91437648  0.86732637  0.50345123  1  0.606307  0  0.276774  0.37295  0  0.967544  0
H  H55  1  0.08562410  0.36732637  0.99654919  1  0.606306  0  0.276798  0.372991  0  0.967492  0
H  H56  1  0.45003559  0.42442153  0.12506138  1  0.616903  0  0.271594  0.375065  0  0.965181  0
H  H57  1  0.54996398  0.92442153  0.37493876  1  0.616902  0  0.271617  0.375099  0  0.965128  0
H  H58  1  0.04996419  0.07557755  0.62506061  1  0.616899  0  0.271611  0.375082  0  0.965153  0
H  H59  1  0.95003538  0.57557847  0.87493890  1  0.616908  0  0.271606  0.375084  0  0.965153  0
H  H60  1  0.54996499  0.57557847  0.87493890  1  0.616907  0  0.271599  0.37507  0  0.965172  0
H  H61  1  0.45003660  0.07557847  0.62506061  1  0.616901  0  0.271618  0.375096  0  0.965127  0
H  H62  1  0.95003639  0.92442245  0.37493876  1  0.616897  0  0.27161  0.375085  0  0.965148  0
H  H63  1  0.04996520  0.42442153  0.12506138  1  0.61691  0  0.271614  0.375085  0  0.965149  0
C  C64  1  0.24999939  0.70019699  0.92736447  1  0.194751  0  -0.132786  -0.30201  0  3.737981  0
C  C65  1  0.75000018  0.20019699  0.57263595  1  0.194753  0  -0.13279  -0.302026  0  3.738005  0
C  C66  1  0.24999939  0.79980301  0.42736433  1  0.194754  0  -0.132784  -0.302011  0  3.737985  0
C  C67  1  0.75000018  0.29980301  0.07263581  1  0.19475  0  -0.132793  -0.302028  0  3.738004  0
C  C68  1  0.12581420  0.83699251  0.06522179  1  0.137925  0  -0.138773  -0.304398  0  3.720474  0
C  C69  1  0.87418638  0.33699158  0.43477835  1  0.1379  0  -0.138779  -0.304377  0  3.720491  0
C  C70  1  0.37418558  0.66300842  0.56522193  1  0.137912  0  -0.138775  -0.304364  0  3.720483  0
C  C71  1  0.62581399  0.16300842  0.93477849  1  0.137908  0  -0.138775  -0.304375  0  3.720429  0
C  C72  1  0.87418537  0.16300842  0.93477849  1  0.137907  0  -0.13878  -0.304389  0  3.720525  0
C  C73  1  0.12581420  0.66300842  0.56522193  1  0.137897  0  -0.138766  -0.304364  0  3.720426  0
C  C74  1  0.62581399  0.33699158  0.43477835  1  0.137905  0  -0.138765  -0.304345  0  3.720451  0
C  C75  1  0.37418558  0.83699158  0.06522179  1  0.137911  0  -0.138772  -0.304362  0  3.720479  0
C  C76  1  0.24999939  0.92017571  0.88633142  1  0.147069  0  -0.06327  -0.264133  0  3.731861  0
C  C77  1  0.75000018  0.42017664  0.61366900  1  0.147075  0  -0.063266  -0.264152  0  3.731927  0
C  C78  1  0.24999939  0.57982336  0.38633128  1  0.147071  0  -0.063241  -0.264137  0  3.731962  0
C  C79  1  0.75000018  0.07982429  0.11366794  1  0.146985  0  -0.063242  -0.264098  0  3.731884  0
C  C80  1  0.25000040  0.05566355  0.92472373  1  1.665943  0  0.240021  0.685751  0  4.156739  0
C  C81  1  0.75000018  0.55566355  0.57527577  1  1.665934  0  0.240006  0.68573  0  4.156786  0
C  C82  1  0.25000040  0.44433645  0.42472359  1  1.665933  0  0.240047  0.685815  0  4.156696  0
C  C83  1  0.75000018  0.94433645  0.07527563  1  1.665944  0  0.240021  0.685781  0  4.156734  0
N  N84  1  0.24999939  0.82527421  0.98744946  1  -0.953453  0  -0.225072  0.297978  0  3.573438  0
N  N85  1  0.75000018  0.32527421  0.51255096  1  -0.953409  0  -0.225048  0.298016  0  3.573379  0
N  N86  1  0.24999939  0.67472579  0.48744932  1  -0.953417  0  -0.225061  0.297992  0  3.573426  0
N  N87  1  0.75000018  0.17472579  0.01255082  1  -0.953345  0  -0.225063  0.298  0  3.573453  0
Cl  Cl88  1  0.44846404  0.08448534  0.30483747  1  -0.762969  0  -0.290605  -0.619638  0  0.959412  0
Cl  Cl89  1  0.55153654  0.58448534  0.19516267  1  -0.76299  0  -0.290606  -0.619638  0  0.959403  0
Cl  Cl90  1  0.05153676  0.41551466  0.80483760  1  -0.762968  0  -0.290606  -0.619645  0  0.959386  0
Cl  Cl91  1  0.94846282  0.91551466  0.69516281  1  -0.76299  0  -0.290605  -0.619631  0  0.959407  0
Cl  Cl92  1  0.55153654  0.91551466  0.69516281  1  -0.762989  0  -0.290606  -0.619632  0  0.959412  0
Cl  Cl93  1  0.44846303  0.41551466  0.80483669  1  -0.762966  0  -0.290606  -0.619646  0  0.959403  0
Cl  Cl94  1  0.94846282  0.58448534  0.19516267  1  -0.762965  0  -0.290604  -0.619642  0  0.959402  0
Cl  Cl95  1  0.05153676  0.08448534  0.30483747  1  -0.762971  0  -0.290605  -0.619632  0  0.959412  0
O  O96  1  0.25000040  0.08504300  0.03651889  1  -1.236339  0  -0.38628  -0.637978  0  2.274678  0
O  O97  1  0.75000018  0.58504300  0.46348125  1  -1.236358  0  -0.386283  -0.637983  0  2.27468  0
O  O98  1  0.25000040  0.41495700  0.53651903  1  -1.236361  0  -0.386281  -0.638001  0  2.274658  0
O  O99  1  0.75000018  0.91495700  0.96348047  1  -1.236363  0  -0.386298  -0.638007  0  2.274672  0
O  O100  1  0.25000040  0.12984186  0.83586992  1  -1.227991  0  -0.399458  -0.639141  0  2.224142  0
O  O101  1  0.75000018  0.62984186  0.66412958  1  -1.227985  0  -0.399455  -0.639137  0  2.224185  0
O  O102  1  0.25000040  0.37015814  0.33587069  1  -1.22799  0  -0.399491  -0.639185  0  2.224122  0
O  O103  1  0.75000018  0.87015907  0.16413036  1  -1.227981  0  -0.399437  -0.639136  0  2.224128  0
O  O104  1  0.41207833  0.34966244  0.08556297  1  -1.269866  0  -0.624805  -0.812633  0  2.056787  0
O  O105  1  0.58792124  0.84966244  0.41443717  1  -1.269863  0  -0.624832  -0.812666  0  2.056767  0
O  O106  1  0.08792045  0.15033756  0.58556310  1  -1.269862  0  -0.624834  -0.812653  0  2.05678  0
O  O107  1  0.91207812  0.65033848  0.91443731  1  -1.269878  0  -0.624809  -0.812636  0  2.056773  0
O  O108  1  0.58792225  0.65033756  0.91443731  1  -1.269866  0  -0.624802  -0.812617  0  2.056788  0
O  O109  1  0.41207934  0.15033756  0.58556310  1  -1.269874  0  -0.62484  -0.812672  0  2.056759  0
O  O110  1  0.91207913  0.84966244  0.41443717  1  -1.269861  0  -0.624821  -0.812652  0  2.056785  0
O  O111  1  0.08792146  0.34966152  0.08556205  1  -1.269877  0  -0.624837  -0.812663  0  2.056759  0
