# generated using pymatgen
data_CoH22C19(NO2)2
_symmetry_space_group_name_H-M   'P 1'
_cell_length_a   8.72221900
_cell_length_b   8.99601120
_cell_length_c   11.73908107
_cell_angle_alpha   80.75164268
_cell_angle_beta   89.28474763
_cell_angle_gamma   78.51681359
_symmetry_Int_Tables_number   1
_chemical_formula_structural   CoH22C19(NO2)2
_chemical_formula_sum   'Co2 H44 C38 N4 O8'
_cell_volume   890.75627648
_cell_formula_units_Z   2
loop_
 _symmetry_equiv_pos_site_id
 _symmetry_equiv_pos_as_xyz
  1  'x, y, z'
loop_
 _atom_site_type_symbol
 _atom_site_label
 _atom_site_symmetry_multiplicity
 _atom_site_fract_x
 _atom_site_fract_y
 _atom_site_fract_z
 _atom_site_occupancy
 _atom_site_hle17_ddec_charge
 _atom_site_hle17_ddec_spin_density
 _atom_site_hle17_ddec_sum_bond_order
 _atom_site_hle17_magmom
 _atom_site_hse06_10hf_ddec_charge
 _atom_site_hse06_10hf_ddec_spin_density
 _atom_site_hse06_10hf_ddec_sum_bond_order
 _atom_site_hse06_10hf_magmom
 _atom_site_hse06_ddec_charge
 _atom_site_hse06_ddec_spin_density
 _atom_site_hse06_ddec_sum_bond_order
 _atom_site_hse06_magmom
 _atom_site_pbe_cm5_charge
 _atom_site_pbe_ddec_charge
 _atom_site_pbe_ddec_spin_density
 _atom_site_pbe_ddec_sum_bond_order
 _atom_site_pbe_magmom
Co  Co0  1  0.13425962  0.55345716  0.11970257  1  0.95382  -2.983946  2.038496  -2.577  0.915926  -2.901578  2.455586  -2.642  0.995022  -2.937004  2.381595  -2.719  0.661156  0.843289  -2.859437  2.523906  -2.561
Co  Co1  1  0.86573279  0.44655551  0.88029779  1  0.953781  2.983939  2.038587  2.577  0.91598  2.901579  2.455667  2.642  0.994954  2.937003  2.381741  2.719  0.661154  0.843267  2.85943  2.523922  2.561
H  H2  1  0.97446659  0.86010151  0.99234830  1  0.075418  -0.00052  0.950142  -0.002  0.085903  -0.000243  1.011253  -0.001  0.088057  -0.000158  1.009346  -0.001  0.116766  0.084002  -0.000355  1.013107  -0.001
H  H3  1  0.02556196  0.13991365  0.00764535  1  0.075592  0.000516  0.949961  0.002  0.086076  0.000243  1.011049  0.001  0.088232  0.000158  1.009134  0.001  0.116828  0.084138  0.000355  1.012947  0.001
H  H4  1  0.37451149  0.55507171  0.92409447  1  0.090597  -0.000555  0.944299  -0.001  0.099714  -0.000378  1.007356  -0.001  0.102833  -0.000306  1.004259  -0.001  0.120027  0.096988  -0.000402  1.010391  -0.001
H  H5  1  0.62548325  0.44491332  0.07590425  1  0.090604  0.000554  0.944384  0.001  0.09972  0.000378  1.007438  0.001  0.10288  0.000305  1.004288  0.001  0.120032  0.096992  0.000401  1.010475  0.001
H  H6  1  0.36463944  0.41350579  0.75409230  1  0.069136  0.000194  0.951178  0.0  0.084388  0.000177  1.017861  0.0  0.085184  9.5e-05  1.018254  0.0  0.090439  0.083776  0.000254  1.018056  0.0
H  H7  1  0.63535766  0.58649539  0.24590860  1  0.069125  -0.000193  0.951215  0.0  0.084369  -0.000177  1.0179  0.0  0.085162  -9.6e-05  1.018298  0.0  0.090441  0.083754  -0.000254  1.018097  0.0
H  H8  1  0.31266417  0.23993966  0.73275580  1  0.065082  0.000208  0.946169  0.0  0.084811  0.000207  1.006255  0.0  0.084589  0.000123  1.007789  0.0  0.087808  0.085569  0.00027  1.004454  0.0
H  H9  1  0.68733580  0.76005353  0.26725545  1  0.065072  -0.000208  0.946157  0.0  0.084775  -0.000206  1.006276  0.0  0.084566  -0.000123  1.007797  0.0  0.087785  0.085532  -0.00027  1.004475  0.0
H  H10  1  0.37235119  0.12472015  0.93468409  1  0.096793  -6.9e-05  0.928539  0.0  0.1147  -0.000203  0.984399  0.0  0.116336  -0.000141  0.984346  0.0  0.099196  0.113607  -0.000233  0.984517  -0.001
H  H11  1  0.62766072  0.87529850  0.06533913  1  0.096797  7.1e-05  0.928559  0.0  0.114664  0.000203  0.984448  0.0  0.116297  0.000141  0.984399  0.0  0.099202  0.113565  0.000234  0.984564  0.001
H  H12  1  0.46142856  0.27639222  0.96034379  1  0.104116  0.000319  0.939057  0.0  0.118396  0.000326  0.999462  0.0  0.12028  0.000235  0.999264  0.0  0.099069  0.116769  0.000283  1.000276  0.0
H  H13  1  0.53856405  0.72364693  0.03965662  1  0.103879  -0.000317  0.939114  0.0  0.118219  -0.000326  0.999429  0.0  0.120106  -0.000235  0.999224  0.0  0.098933  0.116588  -0.000283  1.000237  0.0
H  H14  1  0.40566823  0.71080530  0.73658710  1  0.107877  -0.000109  0.94962  0.0  0.1206  -0.000285  1.007387  0.0  0.124404  -0.000228  1.005734  0.0  0.105399  0.117595  -0.000361  1.009116  0.0
H  H15  1  0.59433153  0.28915556  0.26340865  1  0.107898  0.000107  0.949486  0.0  0.120467  0.000285  1.007424  0.0  0.124265  0.000228  1.005786  0.0  0.105352  0.117463  0.000361  1.009155  0.0
H  H16  1  0.99087425  0.03452426  0.80968760  1  0.124161  -6.5e-05  0.987389  0.0  0.131667  -0.0002  1.052816  0.0  0.13641  -0.00019  1.050411  0.0  0.106937  0.12788  -0.000188  1.054705  0.0
H  H17  1  0.00914849  0.96547474  0.19030475  1  0.124191  6.3e-05  0.987457  0.0  0.131647  0.000199  1.052947  0.0  0.13639  0.000189  1.050547  0.0  0.106939  0.127861  0.000188  1.054833  0.0
H  H18  1  0.32489418  0.27301641  0.25470123  1  0.084341  -0.000524  0.947321  -0.002  0.09181  -0.000217  1.013316  -0.001  0.095237  -0.000131  1.009213  -0.001  0.117599  0.088901  -0.000304  1.016785  -0.001
H  H19  1  0.67509049  0.72701112  0.74528882  1  0.084238  0.000524  0.947365  0.002  0.091716  0.000217  1.01335  0.001  0.095141  0.000131  1.009256  0.001  0.117561  0.088808  0.000303  1.016828  0.001
H  H20  1  0.32590883  0.02522105  0.63992484  1  0.06851  0.000462  0.954938  0.001  0.089385  0.000205  1.017813  0.0  0.09048  0.000134  1.017332  0.0  0.093625  0.088454  0.000271  1.017904  0.0
H  H21  1  0.67411382  0.97476762  0.36007478  1  0.068396  -0.000462  0.954996  -0.001  0.089315  -0.000205  1.017822  0.0  0.090412  -0.000134  1.017335  0.0  0.093577  0.088381  -0.000271  1.017922  0.0
H  H22  1  0.23209239  0.90639874  0.57265662  1  0.071234  0.000364  0.943545  0.001  0.091102  0.000157  1.006861  0.0  0.091738  0.000101  1.007419  0.0  0.093163  0.090212  0.000189  1.006793  0.0
H  H23  1  0.76793839  0.09359452  0.42732869  1  0.071381  -0.000365  0.943407  -0.001  0.091208  -0.000157  1.006742  0.0  0.091845  -0.000101  1.007298  0.0  0.093212  0.090343  -0.000189  1.006645  0.0
H  H24  1  0.32121447  0.09511689  0.44016144  1  0.09511  -0.000112  0.969767  0.0  0.106931  -0.000271  1.031308  0.0  0.109878  -0.000194  1.030851  0.0  0.101141  0.104553  -0.000338  1.032154  0.0
H  H25  1  0.67878442  0.90490844  0.55982957  1  0.094929  0.000113  0.970147  0.0  0.106832  0.000271  1.031621  0.0  0.109743  0.000194  1.031215  0.0  0.101084  0.104467  0.000338  1.032453  0.0
H  H26  1  0.06226026  0.19269171  0.66984309  1  0.10595  0.00038  0.927485  0.001  0.122849  0.000147  0.989431  0.0  0.125289  6.1e-05  0.987761  0.0  0.106746  0.121102  0.000212  0.989964  0.0
H  H27  1  0.93776148  0.80729579  0.33015583  1  0.106016  -0.000382  0.927537  -0.001  0.122923  -0.000148  0.989421  0.0  0.125365  -6.1e-05  0.987753  0.0  0.106776  0.121179  -0.000212  0.989948  0.0
H  H28  1  0.97037547  0.07443130  0.60281779  1  0.084614  0.000443  0.926288  0.001  0.104906  0.000217  0.986481  0.0  0.105997  0.000138  0.986649  0.0  0.09842  0.104345  0.000302  0.985592  0.0
H  H29  1  0.02964102  0.92555387  0.39718064  1  0.084645  -0.000441  0.926243  -0.001  0.104929  -0.000217  0.986442  0.0  0.106023  -0.000138  0.986609  0.0  0.098467  0.104368  -0.000302  0.985551  0.0
H  H30  1  0.87067786  0.36749117  0.50191866  1  0.106625  -0.00014  0.947741  0.0  0.120867  -0.000327  1.001113  0.0  0.124051  -0.000246  1.000878  0.0  0.106875  0.118174  -0.000402  1.001904  0.0
H  H31  1  0.12930613  0.63251218  0.49807275  1  0.106663  0.000138  0.947757  0.0  0.120899  0.000327  1.00112  0.0  0.124124  0.000245  1.000836  0.0  0.106868  0.118207  0.000402  1.001907  0.0
H  H32  1  0.89377646  0.53188397  0.31200664  1  0.081643  -0.000467  0.969631  -0.002  0.087643  -0.000261  1.03929  -0.001  0.090681  -0.000174  1.036437  -0.001  0.115071  0.085285  -0.000272  1.041272  -0.001
H  H33  1  0.10620852  0.46811481  0.68799045  1  0.081664  0.000469  0.96947  0.002  0.087561  0.000262  1.039266  0.001  0.090597  0.000174  1.036421  0.001  0.11504  0.085203  0.000273  1.04125  0.001
H  H34  1  0.72965041  0.01386012  0.74846431  1  0.100151  8.4e-05  0.974738  0.0  0.117931  0.000114  1.043386  0.0  0.119039  7.1e-05  1.044346  0.0  0.085763  0.117072  0.000162  1.043245  0.0
H  H35  1  0.27034097  0.98612499  0.25155488  1  0.100191  -8.5e-05  0.974936  0.0  0.117985  -0.000114  1.043518  0.0  0.11909  -7.1e-05  1.044482  0.0  0.085723  0.117136  -0.000162  1.043354  0.0
H  H36  1  0.53044396  0.99354306  0.75640651  1  0.088068  7.7e-05  0.966694  0.0  0.109094  0.000101  1.031911  0.0  0.109222  5.9e-05  1.033552  0.0  0.081516  0.10945  0.000131  1.030282  0.0
H  H37  1  0.46954126  0.00646041  0.24360617  1  0.088194  -7.9e-05  0.966637  0.0  0.109172  -0.000101  1.031903  0.0  0.109302  -5.9e-05  1.033544  0.0  0.081522  0.109528  -0.000131  1.030276  0.0
H  H38  1  0.62729923  0.02991003  0.87787058  1  0.102976  -2.5e-05  0.948443  0.0  0.125651  -2.1e-05  1.006839  0.0  0.126995  -2.3e-05  1.006834  0.0  0.088566  0.124539  -2e-05  1.007196  0.0
H  H39  1  0.37268377  0.97008767  0.12214371  1  0.102945  2.5e-05  0.948626  0.0  0.125655  2.1e-05  1.006932  0.0  0.127  2.3e-05  1.00693  0.0  0.088599  0.124542  2e-05  1.00729  0.0
H  H40  1  0.53107518  0.39000183  0.57863252  1  0.101276  -1.1e-05  0.947302  0.0  0.122884  -2.2e-05  1.006148  0.0  0.124551  -2.3e-05  1.005649  0.0  0.087357  0.121865  -9e-06  1.006419  0.0
H  H41  1  0.46892922  0.60998099  0.42137232  1  0.101276  9e-06  0.947302  0.0  0.122911  2.2e-05  1.006118  0.0  0.12458  2.3e-05  1.005621  0.0  0.087343  0.121895  9e-06  1.006384  0.0
H  H42  1  0.48780637  0.20733740  0.56963937  1  0.088818  -5.4e-05  0.971382  0.0  0.107014  -1.4e-05  1.041041  0.0  0.107862  -1.5e-05  1.04186  0.0  0.080107  0.107164  -2.7e-05  1.039454  0.0
H  H43  1  0.51217808  0.79265341  0.43037833  1  0.088878  5.2e-05  0.971364  0.0  0.107083  1.4e-05  1.041  0.0  0.107929  1.5e-05  1.041822  0.0  0.080181  0.107227  2.7e-05  1.039418  0.0
H  H44  1  0.68630140  0.22739162  0.57997841  1  0.09207  -1.5e-05  0.974842  0.0  0.109393  -5e-06  1.04459  0.0  0.110953  -4e-06  1.044177  0.0  0.083074  0.10878  1.8e-05  1.044333  0.0
H  H45  1  0.31368775  0.77258190  0.42002779  1  0.092093  1.1e-05  0.974886  0.0  0.109408  5e-06  1.044633  0.0  0.110966  4e-06  1.044224  0.0  0.083046  0.108794  -1.8e-05  1.044374  0.0
C  C46  1  0.21270005  0.33193488  0.94831404  1  0.702702  -0.005425  3.82721  -0.006  0.660037  -0.005494  4.138783  -0.006  0.69871  -0.00403  4.131001  -0.004  0.21895  0.631214  -0.007287  4.140809  -0.008
C  C47  1  0.78729956  0.66807095  0.05169391  1  0.702719  0.005432  3.827228  0.006  0.660112  0.005493  4.138692  0.006  0.698783  0.004035  4.130921  0.004  0.218992  0.631282  0.007291  4.140723  0.008
C  C48  1  0.67576726  0.31656473  0.78898254  1  0.603858  -0.005801  3.820775  -0.01  0.56576  -0.001466  4.116154  -0.004  0.599332  -0.001122  4.116107  -0.003  0.197869  0.541984  -0.001647  4.112461  -0.005
C  C49  1  0.32423053  0.68343878  0.21102317  1  0.604015  0.005801  3.820842  0.01  0.565852  0.001467  4.116294  0.004  0.599449  0.001133  4.116228  0.003  0.197879  0.542078  0.001647  4.1126  0.005
C  C50  1  0.19905719  0.88709626  0.75370337  1  0.146136  0.012404  3.722613  0.016  0.165103  0.004051  3.956721  0.005  0.171241  0.002985  3.97933  0.004  0.005908  0.160074  0.005933  3.942414  0.007
C  C51  1  0.80095914  0.11287850  0.24628616  1  0.146188  -0.012416  3.723141  -0.016  0.165064  -0.004051  3.957271  -0.005  0.171198  -0.002983  3.979874  -0.004  0.005755  0.160033  -0.005934  3.942967  -0.007
C  C52  1  0.06799592  0.83088958  0.93266775  1  0.149292  0.012582  3.700845  0.017  0.121669  0.003792  3.95386  0.005  0.131805  0.003109  3.968859  0.004  0.047804  0.11406  0.004339  3.945104  0.006
C  C53  1  0.93201803  0.16911857  0.06732440  1  0.149096  -0.012579  3.700705  -0.017  0.121466  -0.003795  3.953707  -0.005  0.131616  -0.003113  3.968693  -0.004  0.047781  0.113879  -0.004341  3.944961  -0.006
C  C54  1  0.09429656  0.21546907  0.48879078  1  0.148937  0.012821  3.726335  0.016  0.164198  0.004257  3.964723  0.005  0.171315  0.003072  3.985967  0.004  0.005509  0.158324  0.006441  3.95091  0.008
C  C55  1  0.90570135  0.78453897  0.51119902  1  0.149068  -0.012818  3.726356  -0.016  0.164368  -0.004258  3.964723  -0.005  0.17145  -0.003074  3.986031  -0.004  0.005528  0.158495  -0.006441  3.950912  -0.008
C  C56  1  0.28940954  0.66042138  0.89518663  1  0.134148  0.01082  3.697614  0.015  0.107922  0.002375  3.951343  0.004  0.117092  0.002099  3.966524  0.003  0.043842  0.100151  0.003363  3.943243  0.005
C  C57  1  0.71058782  0.33957284  0.10480323  1  0.133855  -0.010827  3.697589  -0.015  0.10762  -0.002377  3.951263  -0.004  0.116771  -0.002101  3.966433  -0.003  0.043663  0.099843  -0.003366  3.943168  -0.005
C  C58  1  0.39400605  0.28809273  0.78016195  1  -0.123565  -0.000366  3.670093  -0.001  -0.168806  -4.9e-05  3.918079  0.0  -0.168573  -9e-05  3.932291  0.0  -0.165704  -0.169403  3.7e-05  3.908503  0.0
C  C59  1  0.60599500  0.71190621  0.21984600  1  -0.123456  0.000363  3.670095  0.001  -0.168712  4.9e-05  3.918087  0.0  -0.168471  9.1e-05  3.932261  0.0  -0.165697  -0.169317  -3.7e-05  3.908508  0.0
C  C60  1  0.36878958  0.24891239  0.90969471  1  -0.263206  0.000907  3.682266  0.002  -0.301288  0.000121  3.93101  0.0  -0.307692  8.3e-05  3.939147  0.0  -0.166918  -0.296694  0.000287  3.926081  0.001
C  C61  1  0.63120672  0.75110380  0.09031452  1  -0.263036  -0.000914  3.682341  -0.002  -0.301105  -0.000122  3.930948  0.0  -0.307507  -8.6e-05  3.939096  0.0  -0.166812  -0.296485  -0.000287  3.925977  -0.001
C  C62  1  0.30720506  0.75017794  0.78986330  1  -0.183032  -0.010038  3.717191  -0.013  -0.201257  -0.002643  3.962782  -0.004  -0.209822  -0.002493  3.982753  -0.003  -0.091474  -0.196231  -0.002806  3.952025  -0.004
C  C63  1  0.69280150  0.24978871  0.21012823  1  -0.182877  0.01005  3.717075  0.013  -0.200926  0.002645  3.962634  0.004  -0.209496  0.002492  3.982633  0.003  -0.091273  -0.195901  0.002807  3.951879  0.004
C  C64  1  0.56149304  0.23017670  0.74219708  1  0.074213  0.001168  3.606073  0.001  0.109167  0.000853  3.830813  0.001  0.105031  0.000442  3.848725  0.0  -0.020178  0.111864  0.001363  3.819263  0.002
C  C65  1  0.43850306  0.76981299  0.25781040  1  0.074208  -0.001165  3.606057  -0.001  0.10924  -0.000853  3.830624  -0.001  0.105102  -0.000447  3.848538  0.0  -0.020158  0.11193  -0.001363  3.819091  -0.002
C  C66  1  0.07833222  0.92829632  0.82930070  1  -0.18484  -0.009507  3.684053  -0.013  -0.200014  -0.002243  3.92273  -0.003  -0.208971  -0.002173  3.941952  -0.003  -0.091511  -0.194357  -0.002358  3.911115  -0.004
C  C67  1  0.92168902  0.07169347  0.17069369  1  -0.184886  0.009519  3.684183  0.013  -0.200001  0.002246  3.92287  0.003  -0.208957  0.002175  3.942085  0.003  -0.091484  -0.194343  0.002359  3.911243  0.004
C  C68  1  0.22697829  0.28967189  0.31296655  1  0.136852  0.013384  3.70694  0.018  0.109647  0.004253  3.957923  0.006  0.120157  0.003457  3.971966  0.005  0.046154  0.101701  0.005076  3.95011  0.007
C  C69  1  0.77300857  0.71034534  0.68703244  1  0.137013  -0.013392  3.706358  -0.018  0.109781  -0.004254  3.957452  -0.006  0.120292  -0.003456  3.971472  -0.005  0.046182  0.101825  -0.005078  3.949648  -0.007
C  C70  1  0.21578320  0.98286544  0.63825120  1  -0.147706  -0.000508  3.729661  -0.002  -0.196836  1.6e-05  3.985083  0.0  -0.197875  -6e-06  3.996286  0.0  -0.156904  -0.196023  3.9e-05  3.977599  0.0
C  C71  1  0.78423682  0.01713007  0.36173907  1  -0.147709  0.000511  3.729862  0.002  -0.196752  -1.6e-05  3.985159  0.0  -0.197777  4e-06  3.996343  0.0  -0.156868  -0.195954  -3.9e-05  3.977665  0.0
C  C72  1  0.22313486  0.19104831  0.41693033  1  -0.198373  -0.009718  3.745788  -0.013  -0.213019  -0.002401  3.988283  -0.004  -0.222272  -0.002253  4.008964  -0.003  -0.096903  -0.207  -0.002625  3.975625  -0.004
C  C73  1  0.77685974  0.80897008  0.58306076  1  -0.198124  0.009724  3.745631  0.013  -0.212885  0.002402  3.988154  0.004  -0.222097  0.002253  4.008867  0.003  -0.096744  -0.206873  0.002626  3.97549  0.004
C  C74  1  0.08022397  0.11745094  0.60340738  1  -0.163188  -0.000549  3.710519  -0.002  -0.207648  6.8e-05  3.963899  0.0  -0.208972  2.3e-05  3.973291  0.0  -0.157679  -0.206377  0.000117  3.956962  0.0
C  C75  1  0.91978960  0.88254799  0.39658254  1  -0.163518  0.000547  3.71083  0.002  -0.208001  -6.8e-05  3.964218  0.0  -0.209332  -2.2e-05  3.973634  0.0  -0.157861  -0.206734  -0.000118  3.957285  0.0
C  C76  1  0.97346765  0.34088195  0.44946230  1  -0.182727  -0.010132  3.733358  -0.014  -0.199557  -0.002695  3.980445  -0.004  -0.20895  -0.002557  4.001931  -0.004  -0.091085  -0.193902  -0.002834  3.967498  -0.004
C  C77  1  0.02651635  0.65912142  0.55053252  1  -0.182906  0.010137  3.733545  0.014  -0.19975  0.002695  3.980591  0.004  -0.209165  0.002557  4.002083  0.004  -0.09112  -0.194091  0.002834  3.967641  0.004
C  C78  1  0.98565958  0.43390318  0.34480512  1  0.128137  0.011115  3.710925  0.015  0.099001  0.002644  3.968604  0.004  0.107868  0.002342  3.98468  0.004  0.041843  0.092554  0.003564  3.958347  0.005
C  C79  1  0.01431545  0.56610475  0.65519094  1  0.128145  -0.011118  3.71054  -0.015  0.099113  -0.002644  3.968136  -0.004  0.107976  -0.00234  3.984217  -0.004  0.041972  0.092663  -0.003565  3.95788  -0.005
C  C80  1  0.61545348  0.05710519  0.78344708  1  -0.316071  0.00028  3.670433  0.0  -0.397261  0.000302  3.908513  0.0  -0.399144  0.000166  3.919576  0.0  -0.245193  -0.396169  0.000511  3.901043  0.0
C  C81  1  0.38453500  0.94289371  0.21656869  1  -0.316243  -0.000276  3.670655  0.0  -0.397453  -0.000304  3.908711  0.0  -0.399338  -0.000165  3.919764  0.0  -0.245182  -0.396365  -0.000511  3.901247  0.0
C  C82  1  0.56719974  0.26592330  0.60955872  1  -0.318048  -0.000327  3.674837  0.0  -0.396132  -0.000111  3.912572  0.0  -0.398015  -8.2e-05  3.922226  0.0  -0.240241  -0.395016  -0.000211  3.90509  0.0
C  C83  1  0.43279502  0.73406177  0.39044765  1  -0.31818  0.000337  3.674967  0.0  -0.396292  0.00011  3.912677  0.0  -0.398185  8.2e-05  3.922345  0.0  -0.240274  -0.395176  0.000211  3.905198  0.0
N  N84  1  0.16918648  0.69730858  0.96561649  1  -0.3287  -0.039487  3.329424  -0.068  -0.281914  -0.025437  3.609236  -0.041  -0.303845  -0.022487  3.62107  -0.035  -0.329662  -0.265474  -0.026719  3.602524  -0.043
N  N85  1  0.83082499  0.30269494  0.03437457  1  -0.328447  0.039485  3.329407  0.068  -0.28166  0.025436  3.609244  0.041  -0.303593  0.022491  3.621088  0.035  -0.329507  -0.265201  0.026717  3.602493  0.043
N  N86  1  0.11083175  0.41001907  0.27663692  1  -0.299727  -0.039125  3.294889  -0.067  -0.252209  -0.025508  3.571346  -0.042  -0.273178  -0.022404  3.582645  -0.036  -0.325568  -0.237006  -0.027805  3.565194  -0.046
N  N87  1  0.88914969  0.58999122  0.72336302  1  -0.299771  0.039117  3.294296  0.067  -0.25225  0.025504  3.57074  0.042  -0.273185  0.022403  3.582006  0.036  -0.325682  -0.237029  0.027801  3.56457  0.046
O  O88  1  0.09796379  0.36206762  0.87707209  1  -0.617108  0.035535  2.132457  0.053  -0.580611  0.029367  2.424631  0.041  -0.6176  0.023813  2.412265  0.032  -0.305965  -0.54828  0.034776  2.428928  0.05
O  O89  1  0.90203091  0.63794505  0.12292739  1  -0.61711  -0.035528  2.132724  -0.053  -0.58063  -0.029359  2.424859  -0.041  -0.617645  -0.023808  2.412509  -0.032  -0.305933  -0.548325  -0.034768  2.429195  -0.05
O  O90  1  0.62582871  0.44583062  0.82167302  1  -0.609275  0.042135  1.975935  0.069  -0.57806  0.031231  2.23206  0.051  -0.615386  0.022781  2.228978  0.037  -0.311448  -0.545897  0.040652  2.230921  0.066
O  O91  1  0.37417191  0.55416485  0.17833197  1  -0.609339  -0.042145  1.975762  -0.069  -0.578121  -0.031238  2.231947  -0.051  -0.615468  -0.022788  2.228833  -0.037  -0.311445  -0.545958  -0.04066  2.230794  -0.066
O  O92  1  0.20659436  0.36390044  0.05043721  1  -0.635543  -0.043407  2.125698  -0.066  -0.611927  -0.034207  2.42716  -0.049  -0.650927  -0.025535  2.415206  -0.035  -0.322151  -0.575808  -0.044346  2.430606  -0.064
O  O93  1  0.79339527  0.63611449  0.94956034  1  -0.635509  0.043412  2.125586  0.066  -0.611946  0.03421  2.427031  0.049  -0.650933  0.025535  2.415086  0.035  -0.322187  -0.575803  0.044353  2.430448  0.064
O  O94  1  0.82182843  0.25815029  0.79355644  1  -0.611591  0.040734  1.990398  0.067  -0.57959  0.03043  2.248704  0.05  -0.616428  0.022394  2.245235  0.036  -0.315142  -0.547678  0.039152  2.24697  0.063
O  O95  1  0.17818029  0.74185554  0.20643862  1  -0.611606  -0.040727  1.990527  -0.067  -0.579582  -0.030425  2.248873  -0.05  -0.616442  -0.022395  2.245403  -0.036  -0.315161  -0.547696  -0.039145  2.247171  -0.063
