# generated using pymatgen
data_ZnH10C11N3O5
_symmetry_space_group_name_H-M   'P 1'
_cell_length_a   10.25576316
_cell_length_b   11.64385333
_cell_length_c   11.68510242
_cell_angle_alpha   65.06985323
_cell_angle_beta   77.25648476
_cell_angle_gamma   75.12647307
_symmetry_Int_Tables_number   1
_chemical_formula_structural   ZnH10C11N3O5
_chemical_formula_sum   'Zn4 H40 C44 N12 O20'
_cell_volume   1212.88170409
_cell_formula_units_Z   4
loop_
 _symmetry_equiv_pos_site_id
 _symmetry_equiv_pos_as_xyz
  1  'x, y, z'
loop_
 _atom_site_type_symbol
 _atom_site_label
 _atom_site_symmetry_multiplicity
 _atom_site_fract_x
 _atom_site_fract_y
 _atom_site_fract_z
 _atom_site_occupancy
 _atom_site_hle17_bader_spin_density
 _atom_site_hle17_ddec_charge
 _atom_site_hle17_ddec_spin_density
 _atom_site_hle17_ddec_sum_bond_order
 _atom_site_hle17_magmom
 _atom_site_hse06_10hf_bader_spin_density
 _atom_site_hse06_10hf_ddec_charge
 _atom_site_hse06_10hf_ddec_spin_density
 _atom_site_hse06_10hf_ddec_sum_bond_order
 _atom_site_hse06_10hf_magmom
 _atom_site_hse06_bader_spin_density
 _atom_site_hse06_ddec_charge
 _atom_site_hse06_ddec_spin_density
 _atom_site_hse06_ddec_sum_bond_order
 _atom_site_hse06_magmom
 _atom_site_pbe_bader_spin_density
 _atom_site_pbe_cm5_charge
 _atom_site_pbe_ddec_charge
 _atom_site_pbe_ddec_spin_density
 _atom_site_pbe_ddec_sum_bond_order
 _atom_site_pbe_magmom
Zn  Zn0  1  0.56397607  0.51168100  0.28632437  1  0  1.097995  0  1.801164  0  0  0.916244  0  2.283021  0  0  0.963323  0  2.221786  0  0  0.704674  0.882968  0  2.325684  0
Zn  Zn1  1  0.43602541  0.48831668  0.71367543  1  0  1.097997  0  1.801203  0  0  0.916248  0  2.283029  0  0  0.963331  0  2.221788  0  0  0.704685  0.882967  0  2.325689  0
Zn  Zn2  1  0.94878619  0.19515990  0.98903023  1  0  1.101668  0  1.759757  0  0  0.916568  0  2.23347  0  0  0.965322  0  2.172732  0  0  0.697758  0.882209  0  2.275614  0
Zn  Zn3  1  0.05121574  0.80484066  0.01096827  1  0  1.101615  0  1.759808  0  0  0.916513  0  2.233533  0  0  0.965266  0  2.172794  0  0  0.697732  0.882147  0  2.275674  0
H  H4  1  0.76907014  0.67175234  0.04065799  1  0  0.118  0  0.958044  0  0  0.11742  0  1.036821  0  0  0.121967  0  1.030728  0  0  0.142505  0.113869  0  1.041476  0
H  H5  1  0.23093042  0.32825016  0.95934081  1  0  0.118022  0  0.958064  0  0  0.117457  0  1.036818  0  0  0.122003  0  1.030727  0  0  0.142533  0.113903  0  1.041472  0
H  H6  1  0.45011642  0.72246670  0.83564816  1  0  0.130497  0  0.947935  0  0  0.136061  0  1.011201  0  0  0.139323  0  1.007627  0  0  0.144894  0.133626  0  1.013849  0
H  H7  1  0.54988587  0.27753194  0.16435279  1  0  0.130478  0  0.947919  0  0  0.136055  0  1.011173  0  0  0.139317  0  1.0076  0  0  0.144895  0.133622  0  1.013823  0
H  H8  1  0.78875887  0.82941408  0.80708466  1  0  0.10035  0  0.944327  0  0  0.111247  0  1.010618  0  0  0.112518  0  1.010278  0  0  0.118003  0.110244  0  1.01095  0
H  H9  1  0.21124188  0.17058746  0.19291537  1  0  0.100332  0  0.944237  0  0  0.11122  0  1.010547  0  0  0.112493  0  1.010205  0  0  0.117982  0.110216  0  1.01088  0
H  H10  1  0.64610864  0.88022300  0.72269481  1  0  0.100223  0  0.919488  0  0  0.116369  0  0.978042  0  0  0.115891  0  0.9805  0  0  0.122083  0.116635  0  0.976362  0
H  H11  1  0.35389310  0.11977853  0.27730503  1  0  0.100203  0  0.919496  0  0  0.116321  0  0.978089  0  0  0.115846  0  0.98055  0  0  0.122064  0.116588  0  0.976408  0
H  H12  1  0.70166913  0.68537989  0.67457268  1  0  0.101605  0  0.931574  0  0  0.11411  0  0.99346  0  0  0.11507  0  0.993478  0  0  0.121912  0.113293  0  0.993571  0
H  H13  1  0.29833061  0.31462165  0.32542668  1  0  0.101606  0  0.931597  0  0  0.114126  0  0.993456  0  0  0.115086  0  0.993474  0  0  0.121917  0.113307  0  0.993566  0
H  H14  1  0.84538231  0.76257201  0.62240077  1  0  0.099303  0  0.914138  0  0  0.114613  0  0.973439  0  0  0.114131  0  0.97572  0  0  0.122917  0.11489  0  0.971838  0
H  H15  1  0.15461843  0.23742953  0.37759840  1  0  0.099278  0  0.914132  0  0  0.114575  0  0.973451  0  0  0.114097  0  0.975727  0  0  0.122895  0.114852  0  0.97185  0
H  H16  1  0.72368513  0.45345316  0.83944874  1  0  0.122352  0  0.949541  0  0  0.124012  0  1.023783  0  0  0.128094  0  1.018443  0  0  0.145894  0.120773  0  1.027935  0
H  H17  1  0.27631717  0.54654548  0.16055135  1  0  0.122316  0  0.949541  0  0  0.123991  0  1.023766  0  0  0.128067  0  1.018435  0  0  0.145874  0.120753  0  1.027916  0
H  H18  1  0.05111381  0.64264413  0.78123389  1  0  0.120336  0  0.945774  0  0  0.129594  0  1.006466  0  0  0.131802  0  1.004371  0  0  0.143844  0.127897  0  1.008049  0
H  H19  1  0.94888630  0.35735548  0.21876621  1  0  0.120325  0  0.94577  0  0  0.129585  0  1.006459  0  0  0.131793  0  1.004366  0  0  0.14384  0.12789  0  1.008043  0
H  H20  1  0.36357038  0.12283995  0.63070097  1  0  0.107332  0  0.953812  0  0  0.117266  0  1.013677  0  0  0.120674  0  1.011818  0  0  0.105273  0.11478  0  1.015148  0
H  H21  1  0.63642309  0.87715777  0.36930464  1  0  0.107278  0  0.953855  0  0  0.117212  0  1.013722  0  0  0.120615  0  1.011878  0  0  0.105257  0.114731  0  1.015195  0
H  H22  1  0.66525074  0.10409691  0.31569376  1  0  0.110516  0  0.974128  0  0  0.118948  0  1.038063  0  0  0.122206  0  1.03651  0  0  0.102729  0.11649  0  1.039588  0
H  H23  1  0.33474573  0.89590079  0.68431127  1  0  0.110633  0  0.974259  0  0  0.119063  0  1.038145  0  0  0.122312  0  1.036598  0  0  0.102783  0.116601  0  1.039666  0
H  H24  1  0.87489831  0.33895651  0.51076396  1  0  0.100582  0  0.963332  0  0  0.10991  0  1.026411  0  0  0.112851  0  1.02499  0  0  0.103237  0.107773  0  1.027714  0
H  H25  1  0.12510143  0.66104503  0.48923369  1  0  0.100553  0  0.963379  0  0  0.109928  0  1.026405  0  0  0.112872  0  1.024978  0  0  0.103242  0.107791  0  1.027707  0
H  H26  1  0.93625724  0.73080771  0.35926711  1  0  0.102544  0  0.9646  0  0  0.113375  0  1.024898  0  0  0.116874  0  1.022532  0  0  0.103277  0.110843  0  1.026794  0
H  H27  1  0.06374350  0.26919383  0.64073207  1  0  0.102523  0  0.964632  0  0  0.113338  0  1.024947  0  0  0.116836  0  1.022584  0  0  0.103272  0.110802  0  1.026842  0
H  H28  1  0.81707555  0.19355577  0.43722935  1  0  0.108477  0  0.954629  0  0  0.116127  0  1.019691  0  0  0.119715  0  1.017483  0  0  0.105126  0.113405  0  1.021756  0
H  H29  1  0.18292493  0.80644191  0.56276893  1  0  0.108484  0  0.954578  0  0  0.116114  0  1.019668  0  0  0.119701  0  1.01746  0  0  0.105135  0.113392  0  1.02173  0
H  H30  1  0.13704877  0.91856923  0.33559709  1  0  0.114817  0  0.939683  0  0  0.123782  0  0.999238  0  0  0.127556  0  0.997141  0  0  0.106867  0.121032  0  1.00085  0
H  H31  1  0.86295252  0.08142941  0.66440148  1  0  0.11481  0  0.93975  0  0  0.123774  0  0.999302  0  0  0.127545  0  0.997204  0  0  0.106864  0.121024  0  1.000912  0
H  H32  1  0.62831283  0.98140664  0.16504394  1  0  0.093083  0  0.971959  0  0  0.104321  0  1.033305  0  0  0.107008  0  1.031974  0  0  0.104149  0.102314  0  1.034537  0
H  H33  1  0.37168573  0.01859586  0.83495439  1  0  0.093024  0  0.971793  0  0  0.104271  0  1.03315  0  0  0.106958  0  1.031822  0  0  0.104118  0.102261  0  1.034379  0
H  H34  1  0.56398605  0.13357778  0.77147702  1  0  0.108132  0  0.956315  0  0  0.114278  0  1.023864  0  0  0.118532  0  1.020491  0  0  0.106343  0.111188  0  1.02639  0
H  H35  1  0.43601351  0.86642472  0.22852112  1  0  0.108146  0  0.956343  0  0  0.114292  0  1.02388  0  0  0.118544  0  1.02051  0  0  0.106346  0.111204  0  1.026404  0
H  H36  1  0.15953397  0.20840573  0.80803443  1  0  0.429861  0  0.879835  0  0  0.39566  0  0.949002  0  0  0.407062  0  0.932721  0  0  0.287881  0.38761  0  0.960516  0
H  H37  1  0.84046878  0.79159580  0.19196437  1  0  0.429801  0  0.879909  0  0  0.395599  0  0.949072  0  0  0.407001  0  0.932791  0  0  0.287876  0.38755  0  0.960583  0
H  H38  1  0.14622743  0.05737250  0.89896031  1  0  0.424974  0  0.882123  0  0  0.392952  0  0.946629  0  0  0.403664  0  0.931297  0  0  0.2907  0.385352  0  0.95755  0
H  H39  1  0.85377431  0.94262903  0.10103782  1  0  0.424987  0  0.882105  0  0  0.392954  0  0.946629  0  0  0.403666  0  0.931296  0  0  0.290714  0.385356  0  0.957547  0
H  H40  1  0.33843000  0.67245836  0.28474628  1  0  0.430655  0  0.875125  0  0  0.399177  0  0.939742  0  0  0.410167  0  0.924026  0  0  0.292787  0.391451  0  0.950776  0
H  H41  1  0.66157193  0.32754220  0.71525136  1  0  0.430655  0  0.875127  0  0  0.399182  0  0.939734  0  0  0.410172  0  0.924017  0  0  0.292802  0.391456  0  0.950767  0
H  H42  1  0.40396329  0.63038809  0.41221227  1  0  0.44298  0  0.857512  0  0  0.41154  0  0.921977  0  0  0.422694  0  0.905697  0  0  0.297522  0.403684  0  0.933445  0
H  H43  1  0.59603700  0.36961055  0.58778735  1  0  0.442949  0  0.857549  0  0  0.411512  0  0.922006  0  0  0.422665  0  0.905729  0  0  0.29752  0.403657  0  0.933478  0
C  C44  1  0.67271737  0.67014085  0.01719265  1  0  0.180256  0  3.613936  0  0  0.114365  0  3.881401  0  0  0.128478  0  3.892733  0  0  0.168961  0.10537  0  3.873658  0
C  C45  1  0.32728437  0.32986068  0.98280719  1  0  0.180245  0  3.614036  0  0  0.114348  0  3.881494  0  0  0.128462  0  3.892825  0  0  0.168969  0.105355  0  3.873746  0
C  C46  1  0.50714698  0.69573668  0.91401177  1  0  0.1553  0  3.604012  0  0  0.095421  0  3.886227  0  0  0.106596  0  3.897311  0  0  0.16002  0.088165  0  3.878734  0
C  C47  1  0.49285531  0.30426196  0.08598832  1  0  0.155249  0  3.60398  0  0  0.095359  0  3.886202  0  0  0.106533  0  3.897289  0  0  0.159964  0.088102  0  3.878714  0
C  C48  1  0.71295880  0.79558556  0.78159447  1  0  -0.023593  0  3.598423  0  0  -0.088495  0  3.858163  0  0  -0.085197  0  3.869665  0  0  -0.043936  -0.090554  0  3.850332  0
C  C49  1  0.28704213  0.20441502  0.21840593  1  0  -0.023608  0  3.598391  0  0  -0.088505  0  3.85816  0  0  -0.085219  0  3.869681  0  0  -0.043939  -0.090564  0  3.850328  0
C  C50  1  0.77963621  0.71028296  0.70640881  1  0  -0.021666  0  3.599585  0  0  -0.08595  0  3.860242  0  0  -0.082386  0  3.871696  0  0  -0.042169  -0.088147  0  3.852373  0
C  C51  1  0.22036472  0.28971761  0.29359159  1  0  -0.021641  0  3.599578  0  0  -0.085895  0  3.860189  0  0  -0.082329  0  3.871646  0  0  -0.04216  -0.08809  0  3.852316  0
C  C52  1  0.82175247  0.47263979  0.84033083  1  0  0.186939  0  3.596758  0  0  0.120563  0  3.863491  0  0  0.135277  0  3.874388  0  0  0.173321  0.111144  0  3.856038  0
C  C53  1  0.17824946  0.52736078  0.15966937  1  0  0.186976  0  3.596651  0  0  0.120591  0  3.863394  0  0  0.135309  0  3.874292  0  0  0.173331  0.111172  0  3.855937  0
C  C54  1  0.98940136  0.56894011  0.81283971  1  0  0.158706  0  3.611722  0  0  0.097914  0  3.891657  0  0  0.109128  0  3.904093  0  0  0.160579  0.090598  0  3.883322  0
C  C55  1  0.01059957  0.43106046  0.18715983  1  0  0.158783  0  3.611785  0  0  0.097992  0  3.891709  0  0  0.109205  0  3.904147  0  0  0.160632  0.090674  0  3.883378  0
C  C56  1  0.53161586  0.25885676  0.44197579  1  0  0.664618  0  3.903308  0  0  0.610491  0  4.200604  0  0  0.644633  0  4.191765  0  0  0.214589  0.587261  0  4.205995  0
C  C57  1  0.46838262  0.74114094  0.55802886  1  0  0.664547  0  3.903596  0  0  0.610459  0  4.200862  0  0  0.644634  0  4.191968  0  0  0.214476  0.587225  0  4.206256  0
C  C58  1  0.51470243  0.12547416  0.47012648  1  0  -0.061359  0  3.77851  0  0  -0.038361  0  4.011585  0  0  -0.043774  0  4.032713  0  0  -0.019603  -0.034783  0  3.99763  0
C  C59  1  0.48528705  0.87452357  0.52987819  1  0  -0.061436  0  3.778474  0  0  -0.03856  0  4.011695  0  0  -0.043997  0  4.032831  0  0  -0.01965  -0.034974  0  3.997733  0
C  C60  1  0.42294256  0.06734914  0.57485953  1  0  -0.092224  0  3.748809  0  0  -0.111284  0  3.993546  0  0  -0.112381  0  4.012779  0  0  -0.090603  -0.110422  0  3.98047  0
C  C61  1  0.57704591  0.93264860  0.42514619  1  0  -0.091969  0  3.748815  0  0  -0.110981  0  3.993559  0  0  -0.112074  0  4.0128  0  0  -0.090468  -0.110124  0  3.980488  0
C  C62  1  0.59180583  0.05820861  0.39491242  1  0  -0.100833  0  3.750453  0  0  -0.124216  0  4.001497  0  0  -0.12545  0  4.02161  0  0  -0.094426  -0.123508  0  3.98863  0
C  C63  1  0.40818364  0.94178912  0.60509225  1  0  -0.10086  0  3.750491  0  0  -0.124197  0  4.001586  0  0  -0.125413  0  4.021688  0  0  -0.094455  -0.123487  0  3.988711  0
C  C64  1  0.77836951  0.57746530  0.34983691  1  0  0.655277  0  3.907948  0  0  0.601168  0  4.20336  0  0  0.635935  0  4.195771  0  0  0.210201  0.577457  0  4.207915  0
C  C65  1  0.22163005  0.42253720  0.65016123  1  0  0.655194  0  3.908056  0  0  0.601137  0  4.203383  0  0  0.635898  0  4.195802  0  0  0.210186  0.577429  0  4.207927  0
C  C66  1  0.89291044  0.53871661  0.42695062  1  0  -0.06479  0  3.750915  0  0  -0.041783  0  3.981762  0  0  -0.048597  0  4.004491  0  0  -0.020126  -0.036941  0  3.96638  0
C  C67  1  0.10709049  0.46128396  0.57304721  1  0  -0.064777  0  3.750994  0  0  -0.041802  0  3.981861  0  0  -0.048612  0  4.004594  0  0  -0.020164  -0.036956  0  3.96647  0
C  C68  1  0.93078971  0.40882386  0.50609017  1  0  -0.067179  0  3.72982  0  0  -0.091467  0  3.98148  0  0  -0.09155  0  4.000961  0  0  -0.088531  -0.091102  0  3.968348  0
C  C69  1  0.06921104  0.59117767  0.49390729  1  0  -0.067167  0  3.729782  0  0  -0.091486  0  3.98146  0  0  -0.091572  0  4.000943  0  0  -0.088512  -0.091123  0  3.96833  0
C  C70  1  0.96315249  0.62992386  0.42152942  1  0  -0.083421  0  3.733246  0  0  -0.105017  0  3.978654  0  0  -0.106306  0  3.999067  0  0  -0.089873  -0.10455  0  3.965038  0
C  C71  1  0.03684825  0.37007767  0.57846804  1  0  -0.083396  0  3.733326  0  0  -0.104961  0  3.978699  0  0  -0.106254  0  3.999117  0  0  -0.089864  -0.104494  0  3.965075  0
C  C72  1  0.94441364  0.13335696  0.23730502  1  0  0.609887  0  3.947676  0  0  0.564309  0  4.23855  0  0  0.597462  0  4.231735  0  0  0.192365  0.541857  0  4.242367  0
C  C73  1  0.05558648  0.86664265  0.76269251  1  0  0.609799  0  3.947704  0  0  0.56425  0  4.238571  0  0  0.597405  0  4.231759  0  0  0.192335  0.541797  0  4.242382  0
C  C74  1  0.97460886  0.06367165  0.37262535  1  0  -0.065337  0  3.763767  0  0  -0.042229  0  3.993991  0  0  -0.048897  0  4.017158  0  0  -0.020113  -0.037793  0  3.978382  0
C  C75  1  0.02539162  0.93632604  0.62737293  1  0  -0.065361  0  3.763754  0  0  -0.042321  0  3.994056  0  0  -0.048999  0  4.017239  0  0  -0.020143  -0.037881  0  3.97844  0
C  C76  1  0.89709078  0.10859818  0.46576610  1  0  -0.089255  0  3.741768  0  0  -0.112146  0  3.993397  0  0  -0.11365  0  4.01441  0  0  -0.087759  -0.111187  0  3.979737  0
C  C77  1  0.10290852  0.89140047  0.53423201  1  0  -0.089192  0  3.741615  0  0  -0.112046  0  3.993271  0  0  -0.113545  0  4.014287  0  0  -0.087754  -0.111088  0  3.979606  0
C  C78  1  0.07796035  0.95418357  0.40779812  1  0  -0.076398  0  3.714128  0  0  -0.094797  0  3.957113  0  0  -0.095538  0  3.976602  0  0  -0.084775  -0.09407  0  3.943706  0
C  C79  1  0.92203995  0.04581508  0.59220064  1  0  -0.07637  0  3.714189  0  0  -0.094749  0  3.957201  0  0  -0.095482  0  3.976689  0  0  -0.084756  -0.094023  0  3.943791  0
C  C80  1  0.72864269  0.13176092  0.92885771  1  0  0.66455  0  3.876491  0  0  0.605501  0  4.17804  0  0  0.640245  0  4.169839  0  0  0.218735  0.581931  0  4.182856  0
C  C81  1  0.27135687  0.86824159  0.07114129  1  0  0.664573  0  3.876395  0  0  0.605534  0  4.177929  0  0  0.640278  0  4.169726  0  0  0.218733  0.581961  0  4.182746  0
C  C82  1  0.61104899  0.06354893  0.96459616  1  0  -0.071273  0  3.750645  0  0  -0.049123  0  3.985213  0  0  -0.055787  0  4.007754  0  0  -0.018544  -0.044564  0  3.969898  0
C  C83  1  0.38895175  0.93645261  0.03540216  1  0  -0.071275  0  3.750624  0  0  -0.049126  0  3.985182  0  0  -0.055788  0  4.00772  0  0  -0.01855  -0.044567  0  3.969865  0
C  C84  1  0.57228100  0.98863295  0.09267564  1  0  -0.072063  0  3.728948  0  0  -0.097315  0  3.980717  0  0  -0.097777  0  4.001018  0  0  -0.087421  -0.096735  0  3.966947  0
C  C85  1  0.42771956  0.01136955  0.90732402  1  0  -0.071958  0  3.728775  0  0  -0.097212  0  3.980535  0  0  -0.097678  0  4.000841  0  0  -0.08738  -0.096629  0  3.966757  0
C  C86  1  0.53699697  0.07491844  0.87150518  1  0  -0.067391  0  3.709268  0  0  -0.089036  0  3.959139  0  0  -0.089928  0  3.978619  0  0  -0.081919  -0.088578  0  3.946096  0
C  C87  1  0.46300095  0.92508215  0.12849494  1  0  -0.067401  0  3.7092  0  0  -0.089039  0  3.959061  0  0  -0.08993  0  3.978538  0  0  -0.081902  -0.088581  0  3.946023  0
N  N88  1  0.57686229  0.60927641  0.09824236  1  0  -0.289696  0  3.270293  0  0  -0.216793  0  3.585778  0  0  -0.23459  0  3.596971  0  0  -0.248511  -0.204884  0  3.578236  0
N  N89  1  0.42314064  0.39072415  0.90175766  1  0  -0.28969  0  3.270455  0  0  -0.216793  0  3.585956  0  0  -0.234589  0  3.597148  0  0  -0.248516  -0.204883  0  3.578408  0
N  N90  1  0.47161146  0.62521080  0.03397858  1  0  -0.219465  0  2.952598  0  0  -0.20007  0  3.236509  0  0  -0.208619  0  3.252348  0  0  -0.219278  -0.194243  0  3.225948  0
N  N91  1  0.52839202  0.37478687  0.96602169  1  0  -0.219458  0  2.952645  0  0  -0.200058  0  3.236567  0  0  -0.208609  0  3.252408  0  0  -0.21926  -0.194232  0  3.226008  0
N  N92  1  0.63247321  0.72619856  0.89940218  1  0  -0.093598  0  3.534127  0  0  2.8e-05  0  3.760683  0  0  -0.016899  0  3.785921  0  0  -0.232603  0.011128  0  3.743461  0
N  N93  1  0.36752890  0.27380104  0.10059840  1  0  -0.093511  0  3.534173  0  0  0.000117  0  3.760727  0  0  -0.016808  0  3.785969  0  0  -0.232557  0.011216  0  3.743505  0
N  N94  1  0.92102978  0.38699126  0.90199030  1  0  -0.282849  0  3.267908  0  0  -0.209697  0  3.582749  0  0  -0.227977  0  3.594154  0  0  -0.244333  -0.197467  0  3.574972  0
N  N95  1  0.07897096  0.61301028  0.09800887  1  0  -0.282885  0  3.26784  0  0  -0.209742  0  3.582708  0  0  -0.22802  0  3.594105  0  0  -0.244365  -0.197511  0  3.574929  0
N  N96  1  0.02739743  0.44706587  0.88517329  1  0  -0.224435  0  2.964814  0  0  -0.203599  0  3.249096  0  0  -0.212361  0  3.264781  0  0  -0.218243  -0.197613  0  3.238652  0
N  N97  1  0.97260368  0.55293373  0.11482748  1  0  -0.224434  0  2.964823  0  0  -0.203594  0  3.249101  0  0  -0.212357  0  3.264785  0  0  -0.218231  -0.197611  0  3.238664  0
N  N98  1  0.86110229  0.58926028  0.78239870  1  0  -0.090592  0  3.524894  0  0  0.002047  0  3.753158  0  0  -0.014819  0  3.777802  0  0  -0.228467  0.013122  0  3.736299  0
N  N99  1  0.13889782  0.41073934  0.21760140  1  0  -0.090623  0  3.524939  0  0  0.002002  0  3.753218  0  0  -0.014865  0  3.77786  0  0  -0.228484  0.013078  0  3.736358  0
O  O100  1  0.72202347  0.48378172  0.36564763  1  0  -0.652967  0  2.108712  0  0  -0.576173  0  2.394712  0  0  -0.605251  0  2.377841  0  0  -0.325114  -0.555983  0  2.40612  0
O  O101  1  0.27797745  0.51621885  0.63435106  1  0  -0.652885  0  2.108738  0  0  -0.576125  0  2.39477  0  0  -0.605207  0  2.377911  0  0  -0.325094  -0.55594  0  2.406174  0
O  O102  1  0.74251420  0.69254393  0.27573707  1  0  -0.632761  0  1.992681  0  0  -0.580599  0  2.226679  0  0  -0.605305  0  2.21692  0  0  -0.316137  -0.563034  0  2.232745  0
O  O103  1  0.25748655  0.30745760  0.72426040  1  0  -0.632765  0  1.992627  0  0  -0.580637  0  2.226625  0  0  -0.605339  0  2.216867  0  0  -0.316149  -0.563077  0  2.232692  0
O  O104  1  0.53076838  0.33811231  0.32421360  1  0  -0.660791  0  2.047854  0  0  -0.584317  0  2.319525  0  0  -0.612597  0  2.302355  0  0  -0.326472  -0.564371  0  2.330504  0
O  O105  1  0.46922873  0.66188732  0.67579221  1  0  -0.660742  0  2.048004  0  0  -0.584222  0  2.319583  0  0  -0.612523  0  2.302422  0  0  -0.326417  -0.564272  0  2.330561  0
O  O106  1  0.54369810  0.28412092  0.53271991  1  0  -0.612146  0  1.983975  0  0  -0.556936  0  2.208721  0  0  -0.581434  0  2.198442  0  0  -0.304146  -0.539751  0  2.215299  0
O  O107  1  0.45630566  0.71587002  0.46729170  1  0  -0.612164  0  1.984137  0  0  -0.556992  0  2.208916  0  0  -0.58149  0  2.198603  0  0  -0.304122  -0.53982  0  2.215528  0
O  O108  1  0.03481297  0.10630122  0.15039741  1  0  -0.652079  0  1.991359  0  0  -0.580444  0  2.251517  0  0  -0.608622  0  2.236451  0  0  -0.336812  -0.560812  0  2.261268  0
O  O109  1  0.96518714  0.89369839  0.84960098  1  0  -0.651984  0  1.991306  0  0  -0.580375  0  2.251486  0  0  -0.608554  0  2.236422  0  0  -0.336811  -0.560745  0  2.261234  0
O  O110  1  0.83686358  0.21519980  0.21231774  1  0  -0.610124  0  1.918392  0  0  -0.566197  0  2.144028  0  0  -0.588043  0  2.134299  0  0  -0.320838  -0.550751  0  2.1501  0
O  O111  1  0.16313653  0.78479981  0.78768151  1  0  -0.610114  0  1.918399  0  0  -0.566185  0  2.144015  0  0  -0.58803  0  2.134289  0  0  -0.320812  -0.550741  0  2.150083  0
O  O112  1  0.80243750  0.09875977  0.01948670  1  0  -0.670491  0  2.117278  0  0  -0.580579  0  2.381681  0  0  -0.611359  0  2.36582  0  0  -0.318234  -0.559225  0  2.392305  0
O  O113  1  0.19756224  0.90124177  0.98051181  1  0  -0.670507  0  2.11727  0  0  -0.580598  0  2.381663  0  0  -0.611378  0  2.365807  0  0  -0.318231  -0.559233  0  2.392277  0
O  O114  1  0.75299446  0.21547996  0.82027837  1  0  -0.605194  0  1.983759  0  0  -0.552061  0  2.213516  0  0  -0.576168  0  2.203769  0  0  -0.300061  -0.53499  0  2.219612  0
O  O115  1  0.24700528  0.78452158  0.17972100  1  0  -0.605197  0  1.983733  0  0  -0.55206  0  2.213464  0  0  -0.576173  0  2.203734  0  0  -0.300038  -0.53499  0  2.219563  0
O  O116  1  0.38735007  0.59648487  0.35194455  1  0  -0.839028  0  1.912642  0  0  -0.769649  0  2.134876  0  0  -0.792756  0  2.097225  0  0  -0.578152  -0.753436  0  2.161369  0
O  O117  1  0.61265104  0.40351474  0.64805279  1  0  -0.839013  0  1.912684  0  0  -0.769643  0  2.134914  0  0  -0.792748  0  2.097264  0  0  -0.578174  -0.753429  0  2.161399  0
O  O118  1  0.09466854  0.14709458  0.86197548  1  0  -0.848933  0  1.920632  0  0  -0.777165  0  2.145253  0  0  -0.800287  0  2.106957  0  0  -0.581988  -0.760975  0  2.172154  0
O  O119  1  0.90533421  0.85290695  0.13802416  1  0  -0.84888  0  1.920694  0  0  -0.777097  0  2.145331  0  0  -0.800219  0  2.107034  0  0  -0.581973  -0.760902  0  2.172226  0
