# generated using pymatgen
data_ZnH22C29(NO)4
_symmetry_space_group_name_H-M   'P 1'
_cell_length_a   13.84832196
_cell_length_b   14.14247576
_cell_length_c   15.90385270
_cell_angle_alpha   106.46483864
_cell_angle_beta   115.80543225
_cell_angle_gamma   89.98975629
_symmetry_Int_Tables_number   1
_chemical_formula_structural   ZnH22C29(NO)4
_chemical_formula_sum   'Zn4 H88 C116 N16 O16'
_cell_volume   2661.64224882
_cell_formula_units_Z   4
loop_
 _symmetry_equiv_pos_site_id
 _symmetry_equiv_pos_as_xyz
  1  'x, y, z'
loop_
 _atom_site_type_symbol
 _atom_site_label
 _atom_site_symmetry_multiplicity
 _atom_site_fract_x
 _atom_site_fract_y
 _atom_site_fract_z
 _atom_site_occupancy
 _atom_site_pbe_bader_charge
 _atom_site_pbe_bader_spin_density
 _atom_site_pbe_cm5_charge
 _atom_site_pbe_ddec_charge
 _atom_site_pbe_ddec_spin_density
 _atom_site_pbe_ddec_sum_bond_order
 _atom_site_pbe_magmom
Zn  Zn0  1  0.73300134  0.27682740  0.38472694  1  1.260502  0  0.697382  0.789439  0  2.420428  0
Zn  Zn1  1  0.34835726  0.22314818  0.61522264  1  1.262656  0  0.698146  0.789626  0  2.42187  0
Zn  Zn2  1  0.26699721  0.72317543  0.61527239  1  1.260501  0  0.697383  0.789439  0  2.420407  0
Zn  Zn3  1  0.65164362  0.77685615  0.38477685  1  1.262641  0  0.698091  0.789534  0  2.421949  0
H  H4  1  0.88412057  0.48722638  0.44566186  1  0.107374  0  0.120709  0.114506  0  1.021372  0
H  H5  1  0.43864590  0.01269831  0.55418624  1  0.145648  0  0.120602  0.114155  0  1.022265  0
H  H6  1  0.11587619  0.51277869  0.55433845  1  0.107459  0  0.120688  0.114473  0  1.021392  0
H  H7  1  0.56135692  0.98730605  0.44581919  1  0.145704  0  0.120604  0.114175  0  1.022314  0
H  H8  1  0.97659178  0.60942940  0.64185222  1  0.179723  0  0.131227  0.148795  0  1.008341  0
H  H9  1  0.33473020  0.89057004  0.35803912  1  0.172477  0  0.131336  0.149705  0  1.007774  0
H  H10  1  0.02340591  0.39057344  0.35814866  1  0.179763  0  0.131218  0.148822  0  1.00835  0
H  H11  1  0.66526886  0.10942912  0.64196656  1  0.172632  0  0.131309  0.14967  0  1.007775  0
H  H12  1  0.75912507  0.36908846  0.59932926  1  0.165797  0  0.144938  0.116062  0  0.984143  0
H  H13  1  0.15982395  0.13094786  0.40095357  1  0.176644  0  0.145127  0.116572  0  0.983994  0
H  H14  1  0.24087804  0.63091216  0.40067349  1  0.165936  0  0.144942  0.11607  0  0.984159  0
H  H15  1  0.84017937  0.86905499  0.59904892  1  0.176649  0  0.145127  0.116603  0  0.983978  0
H  H16  1  0.72838300  0.49289707  0.71828717  1  0.086352  0  0.107056  0.11384  0  1.042385  0
H  H17  1  0.01013590  0.00703921  0.28185457  1  0.06667  0  0.107074  0.113706  0  1.042735  0
H  H18  1  0.27161518  0.50710427  0.28171077  1  0.086314  0  0.107036  0.113864  0  1.0424  0
H  H19  1  0.98986442  0.99296439  0.71814905  1  0.066751  0  0.10708  0.113706  0  1.042665  0
H  H20  1  0.10423374  0.64525544  0.97689981  1  0.050671  0  0.101112  0.097728  0  1.042961  0
H  H21  1  0.12770961  0.85537213  0.02330163  1  0.058429  0  0.100855  0.097891  0  1.04166  0
H  H22  1  0.89576494  0.35474145  0.02310114  1  0.050776  0  0.101082  0.097704  0  1.042914  0
H  H23  1  0.87229390  0.14462701  0.97670129  1  0.05844  0  0.100836  0.097835  0  1.041717  0
H  H24  1  0.06148288  0.58967034  0.79942321  1  0.123684  0  0.106092  0.120886  0  1.036581  0
H  H25  1  0.26231344  0.91077330  0.20079890  1  0.127283  0  0.106125  0.12139  0  1.036808  0
H  H26  1  0.93851647  0.41033103  0.20057910  1  0.123457  0  0.106107  0.120908  0  1.036569  0
H  H27  1  0.73768666  0.08922882  0.79920426  1  0.127238  0  0.106126  0.121374  0  1.036812  0
H  H28  1  0.10671079  0.69485361  0.14989665  1  0.088703  0  0.104147  0.107894  0  0.996623  0
H  H29  1  0.95707674  0.80564708  0.85019064  1  0.068891  0  0.10418  0.107938  0  0.996901  0
H  H30  1  0.89329040  0.30514029  0.85010154  1  0.088891  0  0.104157  0.107898  0  0.996576  0
H  H31  1  0.04292628  0.19435206  0.14981258  1  0.068974  0  0.1042  0.107979  0  0.996877  0
H  H32  1  0.06743325  0.72629994  0.29395945  1  0.180991  0  0.106309  0.130293  0  1.036168  0
H  H33  1  0.77379673  0.77406133  0.70620871  1  0.143549  0  0.10631  0.13079  0  1.036237  0
H  H34  1  0.93256900  0.27369174  0.70604025  1  0.181024  0  0.10629  0.130282  0  1.036127  0
H  H35  1  0.22620762  0.22594004  0.29379458  1  0.143518  0  0.106325  0.130858  0  1.036145  0
H  H36  1  0.73517664  0.59023426  0.10012476  1  0.056078  0  0.110749  0.120869  0  0.995197  0
H  H37  1  0.63531596  0.90992226  0.90012898  1  0.077642  0  0.110473  0.120232  0  0.995338  0
H  H38  1  0.26482057  0.40976634  0.89987450  1  0.056111  0  0.110763  0.120877  0  0.995191  0
H  H39  1  0.36468540  0.09007836  0.09987282  1  0.077654  0  0.110467  0.120247  0  0.995284  0
H  H40  1  0.61777702  0.59808721  0.81057650  1  0.033801  0  0.089189  0.127049  0  1.01812  0
H  H41  1  0.80710534  0.90204496  0.18946725  1  0.019678  0  0.089356  0.127203  0  1.017976  0
H  H42  1  0.38222158  0.40191190  0.18942233  1  0.033831  0  0.089189  0.127064  0  1.018143  0
H  H43  1  0.19289469  0.09795343  0.81053448  1  0.019724  0  0.089375  0.127267  0  1.017922  0
H  H44  1  0.71024540  0.70173752  0.90736570  1  0.042452  0  0.083374  0.117101  0  1.056305  0
H  H45  1  0.80281848  0.79837634  0.09272381  1  0.037855  0  0.08329  0.116794  0  1.056493  0
H  H46  1  0.28975499  0.29826086  0.09263478  1  0.042463  0  0.083368  0.117117  0  1.056298  0
H  H47  1  0.19718206  0.20162131  0.90727831  1  0.038021  0  0.083311  0.116816  0  1.056522  0
H  H48  1  0.62231352  0.63004450  0.92872509  1  0.019131  0  0.088351  0.124304  0  1.008817  0
H  H49  1  0.69362633  0.87017957  0.07126241  1  0.002765  0  0.088714  0.124567  0  1.00908  0
H  H50  1  0.37768673  0.36995387  0.07127445  1  0.019429  0  0.088367  0.124307  0  1.008764  0
H  H51  1  0.30637419  0.12981881  0.92873900  1  0.002732  0  0.088701  0.124549  0  1.009119  0
H  H52  1  0.64611063  0.42170210  0.81345392  1  0.03488  0  0.093961  0.139491  0  0.992613  0
H  H53  1  0.83273032  0.07839830  0.18667713  1  0.023485  0  0.093971  0.13923  0  0.992148  0
H  H54  1  0.35388863  0.57829478  0.18654360  1  0.034915  0  0.093978  0.139529  0  0.99263  0
H  H55  1  0.16726853  0.92160157  0.81332285  1  0.023483  0  0.093975  0.139237  0  0.992155  0
H  H56  1  0.65310832  0.45160073  0.93229348  1  0.030187  0  0.090379  0.129389  0  0.996491  0
H  H57  1  0.72097079  0.04853779  0.06781472  1  0.054887  0  0.090364  0.129074  0  0.996055  0
H  H58  1  0.34688890  0.54839613  0.06770123  1  0.03008  0  0.090361  0.129363  0  0.996458  0
H  H59  1  0.27902998  0.95145985  0.93218523  1  0.054856  0  0.090366  0.129088  0  0.996064  0
H  H60  1  0.76036232  0.39990636  0.91147544  1  0.024768  0  0.083308  0.113798  0  1.048226  0
H  H61  1  0.84906867  0.10019485  0.08869842  1  0.035663  0  0.083207  0.113494  0  1.048119  0
H  H62  1  0.23963716  0.60009050  0.08851991  1  0.02462  0  0.083287  0.113801  0  1.048263  0
H  H63  1  0.15093207  0.89980353  0.91130082  1  0.035543  0  0.083222  0.113491  0  1.048188  0
H  H64  1  0.01524089  0.64633679  0.39777541  1  0.153495  0  0.122913  0.119782  0  1.05775  0
H  H65  1  0.61763289  0.85334687  0.60214463  1  0.146442  0  0.122626  0.119857  0  1.057534  0
H  H66  1  0.98475629  0.35365861  0.60222382  1  0.15349  0  0.122919  0.119769  0  1.057729  0
H  H67  1  0.38237061  0.14665301  0.39785758  1  0.147058  0  0.12262  0.119885  0  1.057511  0
H  H68  1  0.89643230  0.70296083  0.50272743  1  0.117642  0  0.124343  0.123652  0  0.998313  0
H  H69  1  0.39382905  0.79704228  0.49738512  1  0.121741  0  0.12431  0.123499  0  0.99765  0
H  H70  1  0.10356690  0.29704127  0.49727324  1  0.117644  0  0.124344  0.123667  0  0.998275  0
H  H71  1  0.60617330  0.20295834  0.50261606  1  0.121705  0  0.124284  0.123431  0  0.997681  0
H  H72  1  0.72035368  0.73245743  0.22125693  1  0.150877  0  0.137967  0.108397  0  1.024742  0
H  H73  1  0.49925544  0.76817583  0.77910696  1  0.138414  0  0.137872  0.107879  0  1.025043  0
H  H74  1  0.27964839  0.26754317  0.77874237  1  0.150874  0  0.137963  0.108419  0  1.02473  0
H  H75  1  0.50074431  0.23182255  0.22089290  1  0.138423  0  0.137873  0.10789  0  1.025067  0
H  H76  1  0.99854462  0.12076034  0.64723840  1  0.051776  0  0.097552  0.094368  0  1.04137  0
H  H77  1  0.35133114  0.37932695  0.35269268  1  0.057498  0  0.097272  0.094322  0  1.04018  0
H  H78  1  0.00145272  0.87923877  0.35275917  1  0.051746  0  0.097553  0.094429  0  1.041332  0
H  H79  1  0.64866678  0.62067214  0.64730146  1  0.057592  0  0.097269  0.094282  0  1.040107  0
H  H80  1  0.87457755  0.00844500  0.33446483  1  0.068157  0  0.097369  0.096337  0  1.038553  0
H  H81  1  0.53990720  0.49160265  0.66549299  1  0.059766  0  0.09725  0.096361  0  1.039333  0
H  H82  1  0.12542063  0.99155634  0.66553311  1  0.06821  0  0.097397  0.096375  0  1.038508  0
H  H83  1  0.46008834  0.50839792  0.33450221  1  0.059657  0  0.097211  0.0963  0  1.039368  0
H  H84  1  0.52225054  0.27205098  0.09177205  1  0.0646  0  0.09618  0.095131  0  1.03797  0
H  H85  1  0.43045150  0.22792832  0.90818011  1  0.070005  0  0.09598  0.095043  0  1.037994  0
H  H86  1  0.47775300  0.72795186  0.90822826  1  0.064772  0  0.096164  0.095104  0  1.037932  0
H  H87  1  0.56954739  0.77206857  0.09181866  1  0.070013  0  0.095999  0.095093  0  1.037976  0
H  H88  1  0.83134047  0.27309507  0.09259600  1  0.049259  0  0.098356  0.090179  0  1.059108  0
H  H89  1  0.73871655  0.22711886  0.90731153  1  0.051092  0  0.098319  0.090307  0  1.058445  0
H  H90  1  0.16866050  0.72690329  0.90740106  1  0.049288  0  0.098353  0.0902  0  1.059125  0
H  H91  1  0.26128214  0.77287579  0.09268749  1  0.051118  0  0.09831  0.090311  0  1.058421  0
C  C92  1  0.87150132  0.48205388  0.50696535  1  0.38152  0  0.00574  -0.023634  0  3.97161  0
C  C93  1  0.36467305  0.01793233  0.49300175  1  0.390994  0  0.00606  -0.023519  0  3.972663  0
C  C94  1  0.12849747  0.51794970  0.49303514  1  0.38126  0  0.005819  -0.023585  0  3.97171  0
C  C95  1  0.63532752  0.98207052  0.50700040  1  0.390994  0  0.006112  -0.023498  0  3.972516  0
C  C96  1  0.91627628  0.54334389  0.60266682  1  0.344037  0  0.011912  -0.087291  0  3.862276  0
C  C97  1  0.31364608  0.95666649  0.39731104  1  0.304694  0  0.011958  -0.087862  0  3.863159  0
C  C98  1  0.08372253  0.45665896  0.39733438  1  0.344688  0  0.011852  -0.08741  0  3.862398  0
C  C99  1  0.68635689  0.04333637  0.60269270  1  0.304396  0  0.012003  -0.087787  0  3.86319  0
C  C100  1  0.80163488  0.41908468  0.58216150  1  0.971433  0  0.151049  0.10242  0  3.905349  0
C  C101  1  0.21953552  0.08094797  0.41801662  1  0.961314  0  0.150053  0.10041  0  3.905697  0
C  C102  1  0.19836469  0.58091667  0.41783863  1  0.971072  0  0.151019  0.102327  0  3.905244  0
C  C103  1  0.78046735  0.91905341  0.58198759  1  0.961289  0  0.149997  0.100279  0  3.905469  0
C  C104  1  0.89321196  0.53816289  0.75021326  1  0.213846  0  0.094444  0.168649  0  4.012333  0
C  C105  1  0.14309305  0.96195818  0.24992290  1  0.2552  0  0.094241  0.168156  0  4.013407  0
C  C106  1  0.10678778  0.46183773  0.24978852  1  0.213377  0  0.09445  0.16858  0  4.012328  0
C  C107  1  0.85690754  0.03804393  0.75007996  1  0.255297  0  0.094189  0.167978  0  4.013621  0
C  C108  1  0.80992229  0.52600346  0.77555420  1  -0.024131  0  -0.089454  -0.208967  0  3.953044  0
C  C109  1  0.03445185  0.97402420  0.22458937  1  -0.0831  0  -0.089656  -0.208307  0  3.952071  0
C  C110  1  0.19007720  0.47399641  0.22444642  1  -0.024091  0  -0.089449  -0.208999  0  3.953119  0
C  C111  1  0.96554676  0.02597642  0.77541209  1  -0.083147  0  -0.08966  -0.208227  0  3.952016  0
C  C112  1  0.83383761  0.55851244  0.87424582  1  0.030446  0  0.001508  0.043032  0  3.881016  0
C  C113  1  0.95972309  0.94158065  0.12589799  1  0.052102  0  0.001582  0.042946  0  3.881212  0
C  C114  1  0.16616176  0.44148668  0.12575456  1  0.030368  0  0.001564  0.043062  0  3.881065  0
C  C115  1  0.04027957  0.05841700  0.87410384  1  0.05195  0  0.001571  0.042909  0  3.88126  0
C  C116  1  0.93985757  0.60194671  0.94723853  1  0.003997  0  -0.010117  0.014733  0  4.016928  0
C  C117  1  0.99285772  0.89837584  0.05292084  1  -0.019971  0  -0.010855  0.014697  0  4.017127  0
C  C118  1  0.06014146  0.39805017  0.05276117  1  0.004119  0  -0.010149  0.014717  0  4.016877  0
C  C119  1  0.00714526  0.10162478  0.94708097  1  -0.019896  0  -0.010776  0.014774  0  4.017179  0
C  C120  1  0.02194989  0.61327257  0.92083580  1  -0.020037  0  -0.086391  -0.102225  0  3.989424  0
C  C121  1  0.10138526  0.88713844  0.07933236  1  0.008396  0  -0.085595  -0.101427  0  3.988476  0
C  C122  1  0.97804836  0.38672655  0.07916426  1  -0.020179  0  -0.086386  -0.102192  0  3.989175  0
C  C123  1  0.89861867  0.11286516  0.92067005  1  0.008226  0  -0.085643  -0.101388  0  3.988555  0
C  C124  1  0.99854664  0.58155115  0.82175010  1  -0.020556  0  -0.090924  -0.173312  0  3.979707  0
C  C125  1  0.17700137  0.91874733  0.17840243  1  -0.022328  0  -0.090846  -0.174586  0  3.981315  0
C  C126  1  0.00145350  0.41844798  0.17825185  1  -0.020342  0  -0.090941  -0.173334  0  3.979626  0
C  C127  1  0.82299770  0.08125626  0.82159993  1  -0.022241  0  -0.090801  -0.174526  0  3.981274  0
C  C128  1  0.75773827  0.55661049  0.92002087  1  0.061553  0  -0.003163  0.16748  0  3.832595  0
C  C129  1  0.83787287  0.94347680  0.08012288  1  0.081331  0  -0.003906  0.166318  0  3.834905  0
C  C130  1  0.24226035  0.44338789  0.07997866  1  0.061889  0  -0.00314  0.167618  0  3.832578  0
C  C131  1  0.16212740  0.05652084  0.91987737  1  0.080974  0  -0.003831  0.166388  0  3.835042  0
C  C132  1  0.83629218  0.59932254  0.02926707  1  -0.000416  0  -0.000419  0.038409  0  3.889627  0
C  C133  1  0.80727898  0.90087710  0.97089750  1  0.011905  0  -0.00044  0.037618  0  3.892068  0
C  C134  1  0.16370654  0.40067732  0.97073197  1  -0.000326  0  -0.00045  0.038348  0  3.889632  0
C  C135  1  0.19272003  0.09912053  0.02910150  1  0.011916  0  -0.000454  0.037642  0  3.892089  0
C  C136  1  0.94159306  0.62757539  0.04365995  1  -0.050394  0  -0.008393  0.014916  0  4.008068  0
C  C137  1  0.89822290  0.87280045  0.95649466  1  -0.08376  0  -0.007643  0.015391  0  4.008365  0
C  C138  1  0.05840618  0.37242373  0.95633950  1  -0.050315  0  -0.008362  0.014929  0  4.008093  0
C  C139  1  0.10177799  0.12719943  0.04350815  1  -0.083559  0  -0.007722  0.015238  0  4.008459  0
C  C140  1  0.02565938  0.67167844  0.13847898  1  -0.010161  0  -0.081278  -0.089355  0  3.970961  0
C  C141  1  0.88745747  0.82876920  0.86166090  1  -0.001096  0  -0.081393  -0.088745  0  3.97254  0
C  C142  1  0.97434186  0.32831993  0.86151995  1  -0.010847  0  -0.081316  -0.089396  0  3.971072  0
C  C143  1  0.11254494  0.17122920  0.13834240  1  -0.001541  0  -0.081389  -0.088705  0  3.97242  0
C  C144  1  0.00449006  0.68845479  0.21927845  1  -0.080477  0  -0.092312  -0.176104  0  3.964064  0
C  C145  1  0.78549685  0.81196188  0.78088254  1  -0.014913  0  -0.092511  -0.177939  0  3.967718  0
C  C146  1  0.99551046  0.31154360  0.78072296  1  -0.080048  0  -0.092262  -0.176065  0  3.964102  0
C  C147  1  0.21450676  0.18803875  0.21911990  1  -0.014562  0  -0.092566  -0.178126  0  3.967628  0
C  C148  1  0.89984868  0.65935473  0.20381769  1  0.298642  0  0.092118  0.163616  0  4.021129  0
C  C149  1  0.69624713  0.84093621  0.79632143  1  0.290272  0  0.092709  0.164892  0  4.019692  0
C  C150  1  0.10015186  0.34064141  0.79618180  1  0.298538  0  0.092141  0.163647  0  4.021112  0
C  C151  1  0.30375501  0.15906218  0.20368000  1  0.290474  0  0.092693  0.164951  0  4.019725  0
C  C152  1  0.81518501  0.61362583  0.10921908  1  -0.032314  0  -0.089396  -0.215131  0  3.972655  0
C  C153  1  0.70622104  0.88659104  0.89096406  1  -0.053495  0  -0.089007  -0.213929  0  3.972096  0
C  C154  1  0.18481308  0.38637403  0.89077934  1  -0.032326  0  -0.089427  -0.215138  0  3.972679  0
C  C155  1  0.29378004  0.11340957  0.10903586  1  -0.053499  0  -0.088999  -0.213947  0  3.971949  0
C  C156  1  0.67198622  0.62626967  0.88992764  1  -0.066448  0  -0.239069  -0.409885  0  3.869319  0
C  C157  1  0.78206439  0.87388689  0.11012909  1  -0.036331  0  -0.239611  -0.410231  0  3.870653  0
C  C158  1  0.32801214  0.37372870  0.11007002  1  -0.067025  0  -0.239101  -0.409979  0  3.869361  0
C  C159  1  0.21793699  0.12611299  0.88987341  1  -0.036506  0  -0.239659  -0.410318  0  3.870805  0
C  C160  1  0.70120497  0.45131827  0.89260099  1  -0.042337  0  -0.237651  -0.410252  0  3.886102  0
C  C161  1  0.80873921  0.04879509  0.10753226  1  -0.06413  0  -0.237313  -0.408713  0  3.884061  0
C  C162  1  0.29879641  0.54868011  0.10739887  1  -0.042232  0  -0.237641  -0.410323  0  3.886136  0
C  C163  1  0.19126280  0.95120329  0.89246823  1  -0.063683  0  -0.237342  -0.408744  0  3.884129  0
C  C164  1  0.93694491  0.67155199  0.37744297  1  0.264865  0  0.008292  -0.080762  0  3.880536  0
C  C165  1  0.55965561  0.82840727  0.62260469  1  0.253292  0  0.007893  -0.081859  0  3.881391  0
C  C166  1  0.06305423  0.32844565  0.62255696  1  0.265108  0  0.008261  -0.080769  0  3.88052  0
C  C167  1  0.44034739  0.17159261  0.37739783  1  0.252762  0  0.00794  -0.081918  0  3.881362  0
C  C168  1  0.87819887  0.70097867  0.42869852  1  0.45386  0  0.005198  -0.024883  0  3.969177  0
C  C169  1  0.44962755  0.79915295  0.57146083  1  0.462593  0  0.005218  -0.023549  0  3.967595  0
C  C170  1  0.12179987  0.29902045  0.57130124  1  0.453865  0  0.00522  -0.02486  0  3.969048  0
C  C171  1  0.55037493  0.20084767  0.42854128  1  0.462487  0  0.005237  -0.023399  0  3.967552  0
C  C172  1  0.78341968  0.71578617  0.28324055  1  0.965597  0  0.144939  0.096716  0  3.898652  0
C  C173  1  0.50035277  0.78466630  0.71704158  1  0.987567  0  0.144843  0.098254  0  3.898405  0
C  C174  1  0.21658238  0.28421667  0.71676068  1  0.965536  0  0.144978  0.096739  0  3.898563  0
C  C175  1  0.49964935  0.21533282  0.28295914  1  0.987995  0  0.144838  0.098274  0  3.898339  0
C  C176  1  0.85550682  0.15029567  0.47811779  1  1.571184  0  0.193966  0.561987  0  4.237841  0
C  C177  1  0.37720961  0.34982578  0.52177191  1  1.569121  0  0.193734  0.561043  0  4.241165  0
C  C178  1  0.14449289  0.84970569  0.52188328  1  1.571147  0  0.193995  0.562057  0  4.237787  0
C  C179  1  0.62278694  0.65017255  0.47822075  1  1.569298  0  0.193665  0.561105  0  4.240871  0
C  C180  1  0.92933118  0.07198049  0.48949053  1  -0.036225  0  -0.017161  -0.016446  0  3.96013  0
C  C181  1  0.43976796  0.42808483  0.51047633  1  0.008777  0  -0.016119  -0.015242  0  3.959541  0
C  C182  1  0.07066741  0.92801936  0.51050758  1  -0.035975  0  -0.017088  -0.016329  0  3.960098  0
C  C183  1  0.56023113  0.57191128  0.48951691  1  0.008533  0  -0.016129  -0.015365  0  3.959713  0
C  C184  1  0.99974753  0.06751938  0.58310093  1  -0.011913  0  -0.09387  -0.108623  0  4.003969  0
C  C185  1  0.41662667  0.43255720  0.41687819  1  -0.048693  0  -0.093595  -0.108208  0  4.002505  0
C  C186  1  0.00025053  0.93248122  0.41689678  1  -0.011947  0  -0.093931  -0.108802  0  4.00412  0
C  C187  1  0.58337202  0.56744040  0.58311488  1  -0.048688  0  -0.093614  -0.108105  0  4.002421  0
C  C188  1  0.93018441  0.00368600  0.40660039  1  -0.052506  0  -0.092062  -0.109731  0  3.989521  0
C  C189  1  0.52353204  0.49630841  0.59337937  1  -0.047916  0  -0.092479  -0.110616  0  3.990687  0
C  C190  1  0.06981354  0.99631385  0.59339710  1  -0.052541  0  -0.092109  -0.109835  0  3.989465  0
C  C191  1  0.47646525  0.50369068  0.40661415  1  -0.047853  0  -0.092496  -0.11051  0  3.990772  0
C  C192  1  0.73994835  0.30108312  0.21398247  1  1.556584  0  0.199955  0.578132  0  4.225132  0
C  C193  1  0.52602503  0.19905451  0.78598902  1  1.570061  0  0.20053  0.580163  0  4.2221  0
C  C194  1  0.26005146  0.69891972  0.78601811  1  1.556388  0  0.19996  0.577994  0  4.225277  0
C  C195  1  0.47397466  0.80094759  0.21401134  1  1.57007  0  0.200491  0.58014  0  4.222196  0
C  C196  1  0.68288819  0.27617074  0.10347194  1  0.014692  0  -0.017039  -0.021253  0  3.953261  0
C  C197  1  0.57941738  0.22401620  0.89647281  1  0.022052  0  -0.017365  -0.022701  0  3.955355  0
C  C198  1  0.31711204  0.72382837  0.89652690  1  0.014666  0  -0.017046  -0.021299  0  3.953417  0
C  C199  1  0.42058238  0.77598217  0.10352704  1  0.022056  0  -0.017349  -0.022663  0  3.955357  0
C  C200  1  0.56950243  0.26244545  0.05103267  1  -0.103012  0  -0.093551  -0.109748  0  4.005714  0
C  C201  1  0.51845068  0.23767509  0.94890852  1  -0.036483  0  -0.093174  -0.108793  0  4.005668  0
C  C202  1  0.43049929  0.73755516  0.94896788  1  -0.103243  0  -0.093541  -0.10969  0  4.005689  0
C  C203  1  0.48154852  0.76232701  0.05109214  1  -0.036451  0  -0.093196  -0.108894  0  4.005723  0
C  C204  1  0.74348641  0.26326955  0.05102986  1  0.006667  0  -0.090521  -0.109345  0  4.002137  0
C  C205  1  0.69243830  0.23691318  0.94890720  1  -0.075186  0  -0.090448  -0.109091  0  4.002497  0
C  C206  1  0.25651540  0.73673255  0.94897020  1  0.006683  0  -0.090476  -0.109286  0  4.002229  0
C  C207  1  0.30756033  0.76308519  0.05109233  1  -0.075221  0  -0.09047  -0.109133  0  4.002562  0
N  N208  1  0.80096208  0.40471994  0.49554568  1  -1.251357  0  -0.357849  -0.286524  0  3.617591  0
N  N209  1  0.30556150  0.09526266  0.50454350  1  -1.252233  0  -0.358098  -0.285307  0  3.617111  0
N  N210  1  0.19903774  0.59528217  0.50445561  1  -1.251182  0  -0.357828  -0.28644  0  3.617562  0
N  N211  1  0.69443912  0.90473872  0.49546007  1  -1.252044  0  -0.358135  -0.285316  0  3.616791  0
N  N212  1  0.87068505  0.50269703  0.64939975  1  -1.269458  0  -0.220588  0.014901  0  3.788386  0
N  N213  1  0.22131865  0.99735385  0.35071509  1  -1.267729  0  -0.219996  0.015398  0  3.789974  0
N  N214  1  0.12931428  0.49730507  0.35060186  1  -1.269445  0  -0.220553  0.015033  0  3.788389  0
N  N215  1  0.77868266  0.00264975  0.64928792  1  -1.267835  0  -0.219942  0.015521  0  3.789931  0
N  N216  1  0.87545908  0.68069804  0.28493085  1  -1.247423  0  -0.22348  0.011653  0  3.800278  0
N  N217  1  0.59071550  0.81951281  0.71522382  1  -1.246002  0  -0.223719  0.010497  0  3.801911  0
N  N218  1  0.12454155  0.31929959  0.71506815  1  -1.247662  0  -0.223482  0.011636  0  3.800352  0
N  N219  1  0.40928676  0.18048632  0.28477784  1  -1.246549  0  -0.223707  0.010474  0  3.801911  0
N  N220  1  0.78296581  0.72857515  0.36907936  1  -1.237205  0  -0.352679  -0.275849  0  3.58575  0
N  N221  1  0.41403289  0.77181547  0.63120365  1  -1.248343  0  -0.35147  -0.276454  0  3.586126  0
N  N222  1  0.21703661  0.27142769  0.63092062  1  -1.237161  0  -0.352754  -0.275972  0  3.585651  0
N  N223  1  0.58596923  0.22818366  0.36879707  1  -1.24841  0  -0.351474  -0.276492  0  3.58609  0
O  O224  1  0.83013749  0.19202360  0.54500991  1  -1.188654  0  -0.335463  -0.581365  0  2.151787  0
O  O225  1  0.28500105  0.30809845  0.45481419  1  -1.193898  0  -0.335507  -0.581198  0  2.153146  0
O  O226  1  0.16986213  0.80797628  0.45499164  1  -1.188819  0  -0.3355  -0.581395  0  2.151732  0
O  O227  1  0.71499356  0.69190286  0.54517780  1  -1.193769  0  -0.335443  -0.58118  0  2.153069  0
O  O228  1  0.82384384  0.17017333  0.39595657  1  -1.16749  0  -0.341251  -0.556718  0  2.303434  0
O  O229  1  0.42760488  0.32999389  0.60397206  1  -1.171581  0  -0.341523  -0.556564  0  2.303829  0
O  O230  1  0.17615237  0.82982728  0.60404330  1  -1.167539  0  -0.341245  -0.556772  0  2.303465  0
O  O231  1  0.57238978  0.67000443  0.39601871  1  -1.171787  0  -0.341503  -0.5566  0  2.303621  0
O  O232  1  0.83975237  0.32982546  0.26098850  1  -1.179497  0  -0.335027  -0.567245  0  2.108204  0
O  O233  1  0.57884375  0.17027463  0.73898526  1  -1.193613  0  -0.335373  -0.568044  0  2.106466  0
O  O234  1  0.16024644  0.67017738  0.73901270  1  -1.17935  0  -0.33503  -0.567203  0  2.108227  0
O  O235  1  0.42115337  0.82972449  0.26101448  1  -1.193677  0  -0.335343  -0.568002  0  2.106496  0
O  O236  1  0.67655171  0.28831005  0.25179166  1  -1.185949  0  -0.34322  -0.571281  0  2.348601  0
O  O237  1  0.42481134  0.21174662  0.74815988  1  -1.189853  0  -0.343595  -0.572439  0  2.34916  0
O  O238  1  0.32344790  0.71169651  0.74820850  1  -1.185886  0  -0.343244  -0.571186  0  2.348633  0
O  O239  1  0.57518962  0.78826143  0.25184106  1  -1.189798  0  -0.343594  -0.572457  0  2.349249  0
