# generated using pymatgen
data_CdH10C8NCl2O3
_symmetry_space_group_name_H-M   'P 1'
_cell_length_a   7.38495472
_cell_length_b   9.10254456
_cell_length_c   16.34907152
_cell_angle_alpha   99.33817451
_cell_angle_beta   89.93116272
_cell_angle_gamma   90.03576022
_symmetry_Int_Tables_number   1
_chemical_formula_structural   CdH10C8NCl2O3
_chemical_formula_sum   'Cd4 H40 C32 N4 Cl8 O12'
_cell_volume   1084.45008638
_cell_formula_units_Z   4
loop_
 _symmetry_equiv_pos_site_id
 _symmetry_equiv_pos_as_xyz
  1  'x, y, z'
loop_
 _atom_site_type_symbol
 _atom_site_label
 _atom_site_symmetry_multiplicity
 _atom_site_fract_x
 _atom_site_fract_y
 _atom_site_fract_z
 _atom_site_occupancy
 _atom_site_hle17_bader_spin_density
 _atom_site_hle17_ddec_charge
 _atom_site_hle17_ddec_spin_density
 _atom_site_hle17_ddec_sum_bond_order
 _atom_site_hle17_magmom
 _atom_site_hse06_10hf_bader_spin_density
 _atom_site_hse06_10hf_ddec_charge
 _atom_site_hse06_10hf_ddec_spin_density
 _atom_site_hse06_10hf_ddec_sum_bond_order
 _atom_site_hse06_10hf_magmom
 _atom_site_hse06_bader_spin_density
 _atom_site_hse06_ddec_charge
 _atom_site_hse06_ddec_spin_density
 _atom_site_hse06_ddec_sum_bond_order
 _atom_site_hse06_magmom
 _atom_site_pbe_bader_spin_density
 _atom_site_pbe_cm5_charge
 _atom_site_pbe_ddec_charge
 _atom_site_pbe_ddec_spin_density
 _atom_site_pbe_ddec_sum_bond_order
 _atom_site_pbe_magmom
Cd  Cd0  1  0.44508313  0.73391262  0.72417803  1  0  1.119473  0  1.719843  0  0  0.956328  0  2.166404  0  0  1.009853  0  2.115027  0  0  0.643952  0.918027  0  2.201476  0
Cd  Cd1  1  0.95696559  0.72150036  0.74141877  1  0  1.127719  0  1.725311  0  0  0.964195  0  2.174608  0  0  1.016994  0  2.123413  0  0  0.662651  0.926023  0  2.210636  0
Cd  Cd2  1  0.54178470  0.22073728  0.24130786  1  0  1.127768  0  1.726281  0  0  0.963994  0  2.17586  0  0  1.016736  0  2.124797  0  0  0.662853  0.925902  0  2.211779  0
Cd  Cd3  1  0.05367833  0.23338096  0.22461538  1  0  1.120162  0  1.7196  0  0  0.957023  0  2.166181  0  0  1.010558  0  2.114785  0  0  0.644164  0.918699  0  2.201312  0
H  H4  1  0.14927607  0.31085277  0.97571007  1  0  0.299931  0  0.87883  0  0  0.278142  0  0.94655  0  0  0.286404  0  0.940026  0  0  0.306368  0.272625  0  0.950748  0
H  H5  1  0.83478937  0.20891724  0.55146518  1  0  0.301693  0  0.938033  0  0  0.273685  0  1.009812  0  0  0.285394  0  1.001402  0  0  0.290434  0.2649  0  1.016405  0
H  H6  1  0.66510980  0.70913489  0.05242611  1  0  0.301794  0  0.941645  0  0  0.273664  0  1.013684  0  0  0.285294  0  1.005437  0  0  0.289943  0.264974  0  1.020069  0
H  H7  1  0.35112751  0.81062498  0.47560959  1  0  0.300087  0  0.878768  0  0  0.278246  0  0.946445  0  0  0.286498  0  0.939954  0  0  0.306634  0.272747  0  0.950626  0
H  H8  1  0.08089776  0.22170864  0.84187121  1  0  0.128058  0  0.939856  0  0  0.147368  0  1.00112  0  0  0.149302  0  1.000125  0  0  0.096796  0.146068  0  1.001822  0
H  H9  1  0.71795911  0.27504090  0.68052621  1  0  0.128596  0  0.958319  0  0  0.145313  0  1.022958  0  0  0.148076  0  1.021063  0  0  0.092019  0.143171  0  1.024347  0
H  H10  1  0.78336519  0.77409888  0.18152077  1  0  0.129443  0  0.958603  0  0  0.14588  0  1.023462  0  0  0.148692  0  1.021508  0  0  0.091302  0.143691  0  1.024921  0
H  H11  1  0.41699137  0.72102101  0.34142352  1  0  0.128435  0  0.940196  0  0  0.147414  0  1.002096  0  0  0.149381  0  1.001008  0  0  0.096614  0.14609  0  1.002833  0
H  H12  1  0.98444879  0.36314815  0.79014345  1  0  0.129281  0  0.951254  0  0  0.147852  0  1.017495  0  0  0.149188  0  1.017485  0  0  0.09505  0.146802  0  1.017675  0
H  H13  1  0.56045131  0.14757689  0.71419938  1  0  0.13133  0  0.923456  0  0  0.154976  0  0.979241  0  0  0.15649  0  0.978589  0  0  0.100288  0.153348  0  0.980535  0
H  H14  1  0.93908446  0.64544709  0.21513686  1  0  0.130629  0  0.925332  0  0  0.154042  0  0.981358  0  0  0.155569  0  0.98069  0  0  0.100216  0.152431  0  0.982629  0
H  H15  1  0.51328924  0.86218203  0.28928172  1  0  0.129445  0  0.950754  0  0  0.148451  0  1.016456  0  0  0.149749  0  1.016486  0  0  0.095432  0.147419  0  1.016618  0
H  H16  1  0.21078171  0.30521937  0.77024937  1  0  0.13893  0  0.930549  0  0  0.158926  0  0.990502  0  0  0.161168  0  0.988919  0  0  0.103906  0.157102  0  0.992004  0
H  H17  1  0.78762925  0.14380599  0.74511379  1  0  0.123978  0  0.951321  0  0  0.144267  0  1.016191  0  0  0.145434  0  1.016159  0  0  0.09763  0.143297  0  1.016306  0
H  H18  1  0.71137487  0.64260217  0.24560436  1  0  0.12375  0  0.951063  0  0  0.143427  0  1.016423  0  0  0.144576  0  1.016423  0  0  0.09757  0.142445  0  1.016544  0
H  H19  1  0.28648173  0.80485591  0.27035172  1  0  0.138075  0  0.930886  0  0  0.158717  0  0.990203  0  0  0.160874  0  0.988693  0  0  0.103876  0.156953  0  0.991619  0
H  H20  1  0.00408564  0.98301899  0.98480505  1  0  0.251941  0  0.988876  0  0  0.241928  0  1.079013  0  0  0.252284  0  1.071236  0  0  0.124983  0.234529  0  1.084596  0
H  H21  1  0.69345667  0.59466091  0.58879165  1  0  0.033888  0  1.015214  0  0  0.043641  0  1.089634  0  0  0.044322  0  1.088473  0  0  0.073106  0.042839  0  1.090985  0
H  H22  1  0.80652605  0.09410007  0.08838077  1  0  0.033989  0  1.01427  0  0  0.043514  0  1.088883  0  0  0.044193  0  1.087723  0  0  0.073197  0.042745  0  1.090208  0
H  H23  1  0.49756431  0.48068354  0.48442881  1  0  0.251304  0  0.987874  0  0  0.241275  0  1.078354  0  0  0.25155  0  1.070533  0  0  0.125548  0.233923  0  1.083985  0
H  H24  1  0.32439191  0.93127241  0.97980585  1  0  0.058077  0  0.954184  0  0  0.061823  0  1.02486  0  0  0.064381  0  1.019192  0  0  0.106361  0.059655  0  1.029199  0
H  H25  1  0.83209118  0.56395492  0.49912707  1  0  0.057888  0  0.967205  0  0  0.07192  0  1.033499  0  0  0.072045  0  1.033181  0  0  0.093589  0.071781  0  1.034067  0
H  H26  1  0.66777855  0.06379026  0.99887760  1  0  0.056587  0  0.967362  0  0  0.071019  0  1.033264  0  0  0.071141  0  1.032942  0  0  0.092841  0.070913  0  1.033822  0
H  H27  1  0.17854614  0.43141528  0.47920048  1  0  0.057438  0  0.954783  0  0  0.061032  0  1.025772  0  0  0.063417  0  1.020258  0  0  0.105739  0.059006  0  1.029955  0
H  H28  1  0.52133763  0.98376688  0.09699689  1  0  0.369987  0  0.942504  0  0  0.338391  0  1.022017  0  0  0.351157  0  1.010065  0  0  0.27659  0.32873  0  1.030506  0
H  H29  1  0.04051647  0.57234567  0.38162188  1  0  0.357543  0  0.92389  0  0  0.334365  0  0.998567  0  0  0.344595  0  0.986231  0  0  0.288615  0.326985  0  1.00742  0
H  H30  1  0.45894907  0.07378983  0.88118275  1  0  0.354716  0  0.926722  0  0  0.331596  0  1.00071  0  0  0.341694  0  0.988673  0  0  0.287331  0.324284  0  1.009446  0
H  H31  1  0.97979862  0.48465678  0.59662637  1  0  0.369232  0  0.942331  0  0  0.337918  0  1.021484  0  0  0.350717  0  1.009498  0  0  0.275814  0.328241  0  1.030003  0
H  H32  1  0.26031375  0.85079948  0.10975440  1  0  0.053586  0  0.922098  0  0  0.066756  0  0.990042  0  0  0.066641  0  0.989544  0  0  0.091328  0.067651  0  0.989581  0
H  H33  1  0.76866227  0.65408961  0.38691649  1  0  0.044544  0  0.946481  0  0  0.055703  0  1.017339  0  0  0.056071  0  1.016038  0  0  0.093462  0.055212  0  1.01846  0
H  H34  1  0.73155528  0.15413012  0.88695940  1  0  0.044492  0  0.947773  0  0  0.055388  0  1.018832  0  0  0.055764  0  1.017508  0  0  0.093184  0.054866  0  1.020014  0
H  H35  1  0.24019604  0.35028460  0.61015168  1  0  0.053409  0  0.922482  0  0  0.066845  0  0.990129  0  0  0.066759  0  0.989626  0  0  0.091399  0.067722  0  0.989683  0
H  H36  1  0.38509102  0.70427293  0.14298342  1  0  0.043801  0  0.942942  0  0  0.060056  0  1.009017  0  0  0.059578  0  1.009603  0  0  0.088511  0.060965  0  1.00831  0
H  H37  1  0.85943990  0.80971005  0.34775193  1  0  0.047149  0  0.960796  0  0  0.061085  0  1.026362  0  0  0.061764  0  1.026001  0  0  0.086141  0.06055  0  1.026616  0
H  H38  1  0.64276792  0.31039870  0.84787914  1  0  0.046142  0  0.961223  0  0  0.060065  0  1.026873  0  0  0.060675  0  1.026538  0  0  0.085728  0.059551  0  1.027133  0
H  H39  1  0.11260308  0.20440464  0.64277066  1  0  0.044124  0  0.943255  0  0  0.060326  0  1.009206  0  0  0.059773  0  1.009883  0  0  0.088809  0.061278  0  1.008467  0
H  H40  1  0.23644334  0.47557704  0.08947456  1  0  0.103856  0  0.990068  0  0  0.106689  0  1.066846  0  0  0.110444  0  1.064345  0  0  0.106689  0.104165  0  1.068279  0
H  H41  1  0.85174745  0.04623403  0.42307120  1  0  0.092493  0  0.994975  0  0  0.098007  0  1.068704  0  0  0.100646  0  1.067256  0  0  0.101657  0.095588  0  1.070497  0
H  H42  1  0.64952087  0.54679644  0.92365934  1  0  0.091439  0  0.994707  0  0  0.096268  0  1.069491  0  0  0.098912  0  1.068031  0  0  0.100712  0.0938  0  1.071389  0
H  H43  1  0.26525181  0.97555771  0.58960073  1  0  0.104091  0  0.989489  0  0  0.106499  0  1.066755  0  0  0.110149  0  1.064354  0  0  0.106833  0.103981  0  1.068185  0
C  C44  1  0.17068467  0.44453589  0.88592604  1  0  0.240903  0  3.592054  0  0  0.235611  0  3.843813  0  0  0.24246  0  3.860187  0  0  0.137542  0.230647  0  3.833319  0
C  C45  1  0.74255219  0.04832672  0.61989690  1  0  0.22385  0  3.651518  0  0  0.218505  0  3.906608  0  0  0.225794  0  3.924355  0  0  0.118741  0.212052  0  3.89686  0
C  C46  1  0.75770558  0.54773167  0.12034133  1  0  0.225412  0  3.65382  0  0  0.219814  0  3.909319  0  0  0.226933  0  3.927247  0  0  0.119383  0.213486  0  3.899502  0
C  C47  1  0.32860889  0.94408588  0.38581269  1  0  0.240546  0  3.591349  0  0  0.235099  0  3.843444  0  0  0.242102  0  3.859636  0  0  0.136812  0.230043  0  3.833086  0
C  C48  1  0.10735159  0.32627957  0.81894662  1  0  -0.36272  0  3.710728  0  0  -0.448975  0  3.954428  0  0  -0.45107  0  3.960433  0  0  -0.236443  -0.447112  0  3.950269  0
C  C49  1  0.70031287  0.16149875  0.69337330  1  0  -0.361179  0  3.709585  0  0  -0.445591  0  3.948689  0  0  -0.447611  0  3.954584  0  0  -0.241075  -0.443525  0  3.945279  0
C  C50  1  0.79972620  0.66029186  0.19409189  1  0  -0.362106  0  3.711965  0  0  -0.445222  0  3.950976  0  0  -0.447336  0  3.957025  0  0  -0.240993  -0.443098  0  3.947475  0
C  C51  1  0.39068645  0.82564551  0.31860248  1  0  -0.361836  0  3.710334  0  0  -0.448693  0  3.954508  0  0  -0.450727  0  3.96052  0  0  -0.236317  -0.446831  0  3.950307  0
C  C52  1  0.22907690  0.58689879  0.86916451  1  0  0.253419  0  3.846237  0  0  0.231679  0  4.1072  0  0  0.243183  0  4.125956  0  0  0.091449  0.222864  0  4.09514  0
C  C53  1  0.74624126  0.89455791  0.62482322  1  0  0.195659  0  3.890016  0  0  0.176045  0  4.152159  0  0  0.182782  0  4.173397  0  0  0.067574  0.170701  0  4.139888  0
C  C54  1  0.75369779  0.39390809  0.12499625  1  0  0.195405  0  3.891606  0  0  0.17547  0  4.154667  0  0  0.182225  0  4.175936  0  0  0.066871  0.170098  0  4.142408  0
C  C55  1  0.27024414  0.08644835  0.36918682  1  0  0.252006  0  3.847043  0  0  0.230215  0  4.10846  0  0  0.241567  0  4.127229  0  0  0.090448  0.221493  0  4.096396  0
C  C56  1  0.23206651  0.51560341  0.03020205  1  0  0.046563  0  3.636526  0  0  -0.010245  0  3.910804  0  0  -0.006375  0  3.926732  0  0  0.03171  -0.01196  0  3.898791  0
C  C57  1  0.82266975  0.99741239  0.47818676  1  0  0.049284  0  3.677247  0  0  -0.008095  0  3.952238  0  0  -0.002585  0  3.970121  0  0  0.024963  -0.012197  0  3.942132  0
C  C58  1  0.67839708  0.49764575  0.97865015  1  0  0.05193  0  3.676448  0  0  -0.004506  0  3.951159  0  0  0.000999  0  3.968948  0  0  0.02674  -0.008556  0  3.941129  0
C  C59  1  0.26904517  0.01547412  0.53029658  1  0  0.046213  0  3.634562  0  0  -0.010243  0  3.908897  0  0  -0.006194  0  3.924781  0  0  0.031258  -0.011995  0  3.896924  0
C  C60  1  0.29505934  0.69015030  0.93752577  1  0  -0.127241  0  3.709316  0  0  -0.123501  0  3.960018  0  0  -0.131406  0  3.979397  0  0  -0.020899  -0.117658  0  3.947057  0
C  C61  1  0.79843156  0.79278179  0.55378284  1  0  -0.015795  0  3.658347  0  0  -0.013646  0  3.906358  0  0  -0.013544  0  3.927219  0  0  -0.007877  -0.014708  0  3.894545  0
C  C62  1  0.70182003  0.29246779  0.05381714  1  0  -0.016517  0  3.658134  0  0  -0.014264  0  3.90639  0  0  -0.014178  0  3.927287  0  0  -0.00834  -0.015307  0  3.894605  0
C  C63  1  0.20491888  0.18974714  0.43768775  1  0  -0.127246  0  3.707673  0  0  -0.123431  0  3.958398  0  0  -0.131205  0  3.977597  0  0  -0.020458  -0.117701  0  3.945558  0
C  C64  1  0.36248684  0.84040056  0.92965243  1  0  0.387586  0  3.59296  0  0  0.331903  0  3.873045  0  0  0.360816  0  3.864601  0  0  0.100623  0.31129  0  3.879257  0
C  C65  1  0.81698293  0.63134152  0.56056850  1  0  0.091196  0  3.696633  0  0  0.029131  0  3.952289  0  0  0.037842  0  3.956797  0  0  -0.102091  0.022211  0  3.951469  0
C  C66  1  0.68296180  0.13091829  0.06038168  1  0  0.092767  0  3.695538  0  0  0.030777  0  3.950764  0  0  0.03952  0  3.955258  0  0  -0.100883  0.023724  0  3.950135  0
C  C67  1  0.13738125  0.34006044  0.42995019  1  0  0.388433  0  3.592055  0  0  0.332813  0  3.872183  0  0  0.36213  0  3.863658  0  0  0.100637  0.311988  0  3.878321  0
C  C68  1  0.29030469  0.65454456  0.01839122  1  0  0.021324  0  3.749147  0  0  0.033532  0  3.999051  0  0  0.032276  0  4.022527  0  0  -0.004717  0.034405  0  3.982884  0
C  C69  1  0.82861950  0.84516792  0.47856472  1  0  -0.00985  0  3.727762  0  0  0.004986  0  3.978739  0  0  0.000449  0  4.002788  0  0  -0.014118  0.008064  0  3.963226  0
C  C70  1  0.67219547  0.34531020  0.97871836  1  0  -0.010128  0  3.727398  0  0  0.004483  0  3.9782  0  0  -6.7e-05  0  4.002252  0  0  -0.0143  0.007592  0  3.962633  0
C  C71  1  0.21039827  0.15424962  0.51852771  1  0  0.021256  0  3.748256  0  0  0.033286  0  3.998343  0  0  0.032037  0  4.021738  0  0  -0.005152  0.034185  0  3.982189  0
C  C72  1  0.36421618  0.76420785  0.09003486  1  0  0.091461  0  3.754066  0  0  0.029953  0  4.018093  0  0  0.038225  0  4.028105  0  0  -0.083165  0.022946  0  4.010474  0
C  C73  1  0.87058375  0.74357874  0.39822472  1  0  0.104614  0  3.692676  0  0  0.04603  0  3.95781  0  0  0.054151  0  3.96278  0  0  -0.077576  0.040595  0  3.954095  0
C  C74  1  0.63040054  0.24413673  0.89825078  1  0  0.103981  0  3.691562  0  0  0.045956  0  3.955537  0  0  0.054174  0  3.960412  0  0  -0.077504  0.040478  0  3.951895  0
C  C75  1  0.13593145  0.26420940  0.58993142  1  0  0.090884  0  3.75437  0  0  0.02943  0  4.018411  0  0  0.037681  0  4.028699  0  0  -0.083795  0.022431  0  4.010651  0
N  N76  1  0.17710494  0.41691853  0.96401819  1  0  -0.214779  0  3.513078  0  0  -0.15058  0  3.738196  0  0  -0.162788  0  3.755599  0  0  -0.339886  -0.142321  0  3.726104  0
N  N77  1  0.78535072  0.09349846  0.54792485  1  0  -0.263554  0  3.474081  0  0  -0.194309  0  3.701791  0  0  -0.210071  0  3.719502  0  0  -0.347874  -0.184451  0  3.692129  0
N  N78  1  0.71542571  0.59344963  0.04852089  1  0  -0.265893  0  3.471435  0  0  -0.196863  0  3.699805  0  0  -0.212442  0  3.717447  0  0  -0.3488  -0.18726  0  3.690324  0
N  N79  1  0.32324436  0.91666895  0.46398190  1  0  -0.214893  0  3.511692  0  0  -0.150072  0  3.735978  0  0  -0.162353  0  3.753298  0  0  -0.340384  -0.141821  0  3.723992  0
Cl  Cl80  1  0.37515233  0.63644001  0.56593340  1  0  -0.553563  0  0.988788  0  0  -0.497831  0  1.249349  0  0  -0.517527  0  1.229204  0  0  -0.253727  -0.483687  0  1.262467  0
Cl  Cl81  1  0.91784478  0.87826615  0.92981029  1  0  -0.292872  0  1.145552  0  0  -0.282428  0  1.362403  0  0  -0.290271  0  1.347246  0  0  -0.140403  -0.276295  0  1.373096  0
Cl  Cl82  1  0.58432226  0.37590638  0.42994406  1  0  -0.288221  0  1.149181  0  0  -0.278081  0  1.366161  0  0  -0.285803  0  1.351068  0  0  -0.137482  -0.272052  0  1.376857  0
Cl  Cl83  1  0.12537409  0.13690026  0.06607921  1  0  -0.551889  0  0.991677  0  0  -0.496493  0  1.252045  0  0  -0.51623  0  1.232046  0  0  -0.252387  -0.482351  0  1.265137  0
Cl  Cl84  1  0.18105159  0.93161362  0.72858843  1  0  -0.558203  0  0.987287  0  0  -0.490919  0  1.27042  0  0  -0.514878  0  1.249029  0  0  -0.270708  -0.473575  0  1.285243  0
Cl  Cl85  1  0.69057020  0.55979233  0.77568150  1  0  -0.553047  0  1.001974  0  0  -0.480792  0  1.284052  0  0  -0.502359  0  1.259258  0  0  -0.257632  -0.464936  0  1.301229  0
Cl  Cl86  1  0.80786528  0.05864463  0.27545222  1  0  -0.553204  0  1.002691  0  0  -0.480874  0  1.284702  0  0  -0.502402  0  1.259881  0  0  -0.257572  -0.465097  0  1.302017  0
Cl  Cl87  1  0.31785201  0.43106708  0.22893453  1  0  -0.558801  0  0.986472  0  0  -0.491256  0  1.269327  0  0  -0.515181  0  1.247884  0  0  -0.270752  -0.473942  0  1.284211  0
O  O88  1  0.21529877  0.61354638  0.79258707  1  0  -0.65532  0  2.136896  0  0  -0.574696  0  2.403409  0  0  -0.606365  0  2.399329  0  0  -0.355264  -0.55196  0  2.405726  0
O  O89  1  0.70978024  0.85230600  0.69739472  1  0  -0.670984  0  2.148849  0  0  -0.583399  0  2.413412  0  0  -0.61509  0  2.410274  0  0  -0.370599  -0.561211  0  2.415454  0
O  O90  1  0.78950121  0.35127528  0.19750846  1  0  -0.672048  0  2.152321  0  0  -0.584313  0  2.417618  0  0  -0.616035  0  2.414447  0  0  -0.370896  -0.562109  0  2.419711  0
O  O91  1  0.28331123  0.11298402  0.29250643  1  0  -0.656131  0  2.137436  0  0  -0.575116  0  2.403794  0  0  -0.606875  0  2.399963  0  0  -0.355518  -0.552332  0  2.406014  0
O  O92  1  0.44693813  0.87201320  0.86887740  1  0  -0.460706  0  2.108088  0  0  -0.392165  0  2.345971  0  0  -0.413916  0  2.33647  0  0  -0.25745  -0.377129  0  2.352682  0
O  O93  1  0.97111508  0.60384783  0.60941082  1  0  -0.588906  0  2.16091  0  0  -0.512004  0  2.414587  0  0  -0.536446  0  2.403106  0  0  -0.415785  -0.49314  0  2.422864  0
O  O94  1  0.52891163  0.10313340  0.10934655  1  0  -0.590084  0  2.161673  0  0  -0.513076  0  2.41627  0  0  -0.53749  0  2.404731  0  0  -0.416703  -0.494159  0  2.424579  0
O  O95  1  0.05100463  0.37106125  0.36962866  1  0  -0.46341  0  2.107596  0  0  -0.395062  0  2.345975  0  0  -0.416842  0  2.33623  0  0  -0.259516  -0.379968  0  2.352818  0
O  O96  1  0.52473841  0.83026214  0.06663595  1  0  -0.615921  0  1.989255  0  0  -0.543677  0  2.216721  0  0  -0.575335  0  2.216598  0  0  -0.37376  -0.516011  0  2.213987  0
O  O97  1  0.04842146  0.68148449  0.39818963  1  0  -0.542813  0  2.027111  0  0  -0.494445  0  2.251717  0  0  -0.510804  0  2.241963  0  0  -0.420997  -0.482502  0  2.258354  0
O  O98  1  0.45191937  0.18289444  0.89794398  1  0  -0.539804  0  2.028115  0  0  -0.490971  0  2.251838  0  0  -0.507327  0  2.242352  0  0  -0.4195  -0.479006  0  2.258276  0
O  O99  1  0.97691849  0.33093352  0.56561799  1  0  -0.615322  0  1.983566  0  0  -0.5429  0  2.210257  0  0  -0.575116  0  2.210538  0  0  -0.371317  -0.515004  0  2.2074  0
