# generated using pymatgen
data_Zn2H24C37(N2O3)3
_symmetry_space_group_name_H-M   'P 1'
_cell_length_a   11.44225623
_cell_length_b   20.13317300
_cell_length_c   29.51034606
_cell_angle_alpha   90.00005146
_cell_angle_beta   98.88268012
_cell_angle_gamma   90.00007190
_symmetry_Int_Tables_number   1
_chemical_formula_structural   Zn2H24C37(N2O3)3
_chemical_formula_sum   'Zn8 H96 C148 N24 O36'
_cell_volume   6716.73225823
_cell_formula_units_Z   4
loop_
 _symmetry_equiv_pos_site_id
 _symmetry_equiv_pos_as_xyz
  1  'x, y, z'
loop_
 _atom_site_type_symbol
 _atom_site_label
 _atom_site_symmetry_multiplicity
 _atom_site_fract_x
 _atom_site_fract_y
 _atom_site_fract_z
 _atom_site_occupancy
 _atom_site_pbe_bader_charge
 _atom_site_pbe_bader_spin_density
 _atom_site_pbe_cm5_charge
 _atom_site_pbe_ddec_charge
 _atom_site_pbe_ddec_spin_density
 _atom_site_pbe_ddec_sum_bond_order
 _atom_site_pbe_magmom
Zn  Zn0  1  0.54815764  0.92293953  0.54588660  1  1.310444  0  0.681012  0.817117  0  2.3591  0
Zn  Zn1  1  0.53542935  0.57825609  0.45758994  1  1.328337  0  0.678864  0.812759  0  2.349378  0
Zn  Zn2  1  0.45184101  0.42293810  0.95411379  1  1.31042  0  0.681024  0.817159  0  2.359096  0
Zn  Zn3  1  0.46456844  0.07825562  0.04240945  1  1.328348  0  0.678848  0.812707  0  2.349448  0
Zn  Zn4  1  0.45184278  0.07706134  0.45411325  1  1.310441  0  0.681048  0.817175  0  2.35902  0
Zn  Zn5  1  0.46456931  0.42174428  0.54241015  1  1.328332  0  0.678866  0.81274  0  2.349415  0
Zn  Zn6  1  0.54815766  0.57706078  0.04588732  1  1.310437  0  0.681043  0.817171  0  2.359035  0
Zn  Zn7  1  0.53543022  0.92174376  0.95758962  1  1.328351  0  0.678847  0.812714  0  2.349443  0
H  H8  1  0.39578996  0.60701968  0.70774974  1  0.404353  0  0.320415  0.269694  0  0.938442  0
H  H9  1  0.38167028  0.60796493  0.77557103  1  0.439965  0  0.319921  0.268521  0  0.93996  0
H  H10  1  0.55863099  0.69798741  0.54449564  1  0.123673  0  0.105731  0.126726  0  1.027855  0
H  H11  1  0.45254654  0.56559300  0.64499723  1  0.098024  0  0.10385  0.116524  0  1.007862  0
H  H12  1  0.47154697  0.77748611  0.67071861  1  0.172662  0  0.109815  0.135249  0  1.017569  0
H  H13  1  0.42321862  0.56561101  0.84575160  1  0.055028  0  0.102957  0.114573  0  1.00889  0
H  H14  1  0.52226036  0.69614742  0.96073912  1  0.112177  0  0.104862  0.126614  0  1.034515  0
H  H15  1  0.45021585  0.77756418  0.82427694  1  0.157186  0  0.110675  0.136445  0  1.014093  0
H  H16  1  0.31494344  0.89077855  0.47579589  1  0.11175  0  0.121377  0.091318  0  0.998063  0
H  H17  1  0.09784787  0.88863623  0.47608016  1  0.056871  0  0.107835  0.111605  0  1.0045  0
H  H18  1  0.16723835  0.95624119  0.61682711  1  0.0909  0  0.113274  0.118874  0  0.991321  0
H  H19  1  0.38171701  0.95746065  0.60977738  1  0.132408  0  0.126662  0.105734  0  0.97446  0
H  H20  1  0.94299474  0.83892109  0.50142858  1  0.062706  0  0.107729  0.112135  0  1.003522  0
H  H21  1  0.72651830  0.84225829  0.50604002  1  0.130952  0  0.126744  0.105246  0  0.98236  0
H  H22  1  0.76885479  0.99778924  0.59807885  1  0.116358  0  0.121677  0.099184  0  0.993905  0
H  H23  1  0.98738290  0.00252146  0.59754126  1  0.074008  0  0.110165  0.114119  0  0.99952  0
H  H24  1  0.31498505  0.51845169  0.40227484  1  0.119301  0  0.126657  0.101409  0  0.975923  0
H  H25  1  0.09652589  0.51666103  0.39923037  1  0.051433  0  0.112195  0.117656  0  0.993722  0
H  H26  1  0.14330179  0.65249814  0.51428380  1  0.065498  0  0.109304  0.1145  0  0.997225  0
H  H27  1  0.35893976  0.65089191  0.51057743  1  0.133088  0  0.122083  0.095676  0  1.007737  0
H  H28  1  0.94621146  0.48127796  0.43039481  1  0.057711  0  0.108472  0.112802  0  1.001959  0
H  H29  1  0.72732308  0.48290306  0.42971313  1  0.126253  0  0.117121  0.091295  0  1.017468  0
H  H30  1  0.73804735  0.67080344  0.48571713  1  0.156941  0  0.12542  0.106299  0  0.98856  0
H  H31  1  0.95694305  0.67966849  0.48709696  1  0.078869  0  0.106941  0.109908  0  1.007663  0
H  H32  1  0.60421056  0.10701914  0.79224989  1  0.404336  0  0.320418  0.269702  0  0.938446  0
H  H33  1  0.61832846  0.10796530  0.72442884  1  0.439978  0  0.319933  0.268549  0  0.93994  0
H  H34  1  0.44136798  0.19798746  0.95550463  1  0.123669  0  0.105735  0.126707  0  1.027832  0
H  H35  1  0.54745476  0.06559300  0.85500343  1  0.098025  0  0.103849  0.11652  0  1.007853  0
H  H36  1  0.52845485  0.27748556  0.82928154  1  0.172688  0  0.109787  0.135228  0  1.017622  0
H  H37  1  0.57677913  0.06561126  0.65424852  1  0.055034  0  0.102953  0.114566  0  1.008777  0
H  H38  1  0.47774038  0.19614795  0.53926125  1  0.11219  0  0.10481  0.126527  0  1.034585  0
H  H39  1  0.54978509  0.27756543  0.67572350  1  0.157139  0  0.110661  0.136438  0  1.014113  0
H  H40  1  0.68505513  0.39077870  0.02420373  1  0.111764  0  0.1214  0.091335  0  0.998088  0
H  H41  1  0.90215070  0.38863605  0.02391980  1  0.056895  0  0.107836  0.111605  0  1.004451  0
H  H42  1  0.83276215  0.45624193  0.88317307  1  0.0909  0  0.113283  0.118845  0  0.991344  0
H  H43  1  0.61828350  0.45746124  0.89022246  1  0.132401  0  0.12666  0.10572  0  0.974463  0
H  H44  1  0.05700635  0.33892142  0.99857190  1  0.062788  0  0.107761  0.112189  0  1.003466  0
H  H45  1  0.27348281  0.34225927  0.99396013  1  0.130958  0  0.126748  0.105254  0  0.982375  0
H  H46  1  0.23114582  0.49778957  0.90192136  1  0.116354  0  0.121676  0.099191  0  0.993884  0
H  H47  1  0.01261824  0.50252248  0.90245936  1  0.07403  0  0.11017  0.114133  0  0.999505  0
H  H48  1  0.68501348  0.01845244  0.09772557  1  0.119282  0  0.126679  0.101436  0  0.975943  0
H  H49  1  0.90347174  0.01666195  0.10076999  1  0.051446  0  0.112211  0.117663  0  0.993759  0
H  H50  1  0.85669972  0.15249753  0.98571626  1  0.065505  0  0.109324  0.114513  0  0.997193  0
H  H51  1  0.64106086  0.15089165  0.98942223  1  0.133094  0  0.122095  0.095701  0  1.007711  0
H  H52  1  0.05378734  0.98127808  0.06960556  1  0.057621  0  0.10848  0.112791  0  1.002013  0
H  H53  1  0.27267573  0.98290284  0.07028690  1  0.126263  0  0.11712  0.091266  0  1.017487  0
H  H54  1  0.26195156  0.17080328  0.01428238  1  0.156954  0  0.125451  0.106316  0  0.988538  0
H  H55  1  0.04305676  0.17966818  0.01290294  1  0.078837  0  0.106951  0.109905  0  1.007648  0
H  H56  1  0.60420959  0.39298069  0.29224972  1  0.404345  0  0.320417  0.269709  0  0.938434  0
H  H57  1  0.61832749  0.39203495  0.22442867  1  0.439975  0  0.319933  0.268529  0  0.939951  0
H  H58  1  0.44136767  0.30201296  0.45550478  1  0.123659  0  0.105728  0.126687  0  1.027845  0
H  H59  1  0.54745389  0.43440737  0.35500330  1  0.098017  0  0.103856  0.116526  0  1.007865  0
H  H60  1  0.52845257  0.22251426  0.32928153  1  0.172598  0  0.109773  0.135147  0  1.017677  0
H  H61  1  0.57677915  0.43438837  0.15424843  1  0.055045  0  0.10293  0.114542  0  1.008853  0
H  H62  1  0.47774007  0.30385146  0.03926107  1  0.112172  0  0.104852  0.126608  0  1.034518  0
H  H63  1  0.54978369  0.22243420  0.17572354  1  0.157138  0  0.110702  0.136495  0  1.014067  0
H  H64  1  0.68505610  0.10922282  0.52420323  1  0.111787  0  0.121433  0.091353  0  0.99809  0
H  H65  1  0.90215167  0.11136513  0.52391930  1  0.056932  0  0.107811  0.111588  0  1.004505  0
H  H66  1  0.83276384  0.04375669  0.38317318  1  0.090884  0  0.1133  0.118847  0  0.991372  0
H  H67  1  0.61828431  0.04253724  0.39022218  1  0.132397  0  0.126681  0.105719  0  0.97444  0
H  H68  1  0.05700568  0.16107928  0.49857127  1  0.062696  0  0.107722  0.11212  0  1.003556  0
H  H69  1  0.27348302  0.15774158  0.49395921  1  0.131015  0  0.12672  0.105226  0  0.98234  0
H  H70  1  0.23114564  0.00221013  0.40192100  1  0.116339  0  0.121662  0.099171  0  0.993898  0
H  H71  1  0.01261753  0.99747742  0.40245893  1  0.073995  0  0.110195  0.114211  0  0.999499  0
H  H72  1  0.68501538  0.48154768  0.59772501  1  0.119331  0  0.126667  0.101421  0  0.975896  0
H  H73  1  0.90347276  0.48333735  0.60076938  1  0.051474  0  0.112191  0.117645  0  0.993667  0
H  H74  1  0.85669864  0.34750124  0.48571503  1  0.065445  0  0.109288  0.114486  0  0.997267  0
H  H75  1  0.64105890  0.34910697  0.48942163  1  0.133071  0  0.122078  0.095691  0  1.007671  0
H  H76  1  0.05378720  0.51872191  0.56960494  1  0.057534  0  0.108479  0.11281  0  1.001934  0
H  H77  1  0.27267558  0.51709731  0.57028695  1  0.126248  0  0.117128  0.091295  0  1.017464  0
H  H78  1  0.26195308  0.32919643  0.51428204  1  0.156929  0  0.125433  0.106299  0  0.988564  0
H  H79  1  0.04305649  0.32033138  0.51290182  1  0.07886  0  0.106953  0.10989  0  1.007632  0
H  H80  1  0.39579076  0.89298173  0.20775001  1  0.40432  0  0.320414  0.269719  0  0.938464  0
H  H81  1  0.38167285  0.89203507  0.27557174  1  0.439978  0  0.31995  0.268555  0  0.939998  0
H  H82  1  0.55863333  0.80201241  0.04449528  1  0.123388  0  0.105744  0.126733  0  1.027853  0
H  H83  1  0.45254567  0.93440737  0.14499608  1  0.098018  0  0.103807  0.116449  0  1.007932  0
H  H84  1  0.47154558  0.72251531  0.17071831  1  0.172612  0  0.109777  0.135204  0  1.017633  0
H  H85  1  0.42322306  0.93438812  0.34575144  1  0.054734  0  0.102969  0.114537  0  1.008858  0
H  H86  1  0.52225917  0.80385242  0.46073922  1  0.112182  0  0.104835  0.126587  0  1.034537  0
H  H87  1  0.45021711  0.72243444  0.32427680  1  0.157135  0  0.110675  0.136461  0  1.014059  0
H  H88  1  0.31494442  0.60922216  0.97579640  1  0.111741  0  0.121418  0.091372  0  0.998059  0
H  H89  1  0.09784796  0.61136382  0.97607994  1  0.056872  0  0.107823  0.111535  0  1.004521  0
H  H90  1  0.16723651  0.54375745  0.11682702  1  0.090914  0  0.113314  0.118865  0  0.991306  0
H  H91  1  0.38171339  0.54253863  0.10977684  1  0.132433  0  0.126701  0.105773  0  0.974478  0
H  H92  1  0.94299408  0.66107795  0.00142862  1  0.062716  0  0.107736  0.112148  0  1.003563  0
H  H93  1  0.72651762  0.65774159  0.00604040  1  0.130954  0  0.126743  0.105244  0  0.98237  0
H  H94  1  0.76885373  0.50221080  0.09807878  1  0.115811  0  0.121675  0.099171  0  0.993889  0
H  H95  1  0.98738220  0.49747789  0.09754117  1  0.074006  0  0.110164  0.114125  0  0.999497  0
H  H96  1  0.31498519  0.98154693  0.90227485  1  0.119267  0  0.126683  0.101458  0  0.975896  0
H  H97  1  0.09652692  0.98333743  0.89923009  1  0.051462  0  0.112208  0.117665  0  0.993728  0
H  H98  1  0.14329982  0.84750234  0.01428456  1  0.065468  0  0.109292  0.114476  0  0.997225  0
H  H99  1  0.35893868  0.84910822  0.01057825  1  0.133082  0  0.122085  0.095658  0  1.007726  0
H  H100  1  0.94621398  0.01872229  0.93039502  1  0.05736  0  0.108479  0.112813  0  1.001971  0
H  H101  1  0.72732559  0.01709753  0.92971300  1  0.126254  0  0.117141  0.091285  0  1.017454  0
H  H102  1  0.73804622  0.82919758  0.98571765  1  0.156952  0  0.125436  0.106311  0  0.988539  0
H  H103  1  0.95694190  0.82033170  0.98709748  1  0.078883  0  0.106956  0.109913  0  1.007661  0
C  C104  1  0.53451727  0.81302791  0.58937810  1  1.561626  0  0.184919  0.549442  0  4.231625  0
C  C105  1  0.51656579  0.74389922  0.60616055  1  -0.071443  0  -0.018571  -0.005546  0  3.984873  0
C  C106  1  0.53166377  0.68977014  0.57788696  1  -0.061967  0  -0.089891  -0.136653  0  3.941557  0
C  C107  1  0.50833267  0.62559744  0.59229065  1  0.030524  0  -0.030889  -0.040058  0  4.050473  0
C  C108  1  0.47051634  0.61618563  0.63460889  1  -0.070195  0  -0.101237  -0.217704  0  3.967609  0
C  C109  1  0.45745735  0.67025660  0.66333984  1  0.301778  0  0.090634  0.250759  0  4.068348  0
C  C110  1  0.48086314  0.73473973  0.64907479  1  0.001687  0  -0.0852  -0.183815  0  3.884028  0
C  C111  1  0.51971851  0.56672047  0.56207190  1  1.575178  0  0.212074  0.578839  0  4.213962  0
C  C112  1  0.43664573  0.69230881  0.74547307  1  1.822067  0  0.32673  0.631687  0  4.197691  0
C  C113  1  0.43414153  0.67032723  0.82889594  1  0.314931  0  0.089403  0.248882  0  4.06735  0
C  C114  1  0.44111519  0.61593195  0.85885847  1  -0.038502  0  -0.100395  -0.21668  0  3.969443  0
C  C115  1  0.47426646  0.62463355  0.90603384  1  0.017963  0  -0.031886  -0.037817  0  4.052568  0
C  C116  1  0.49777334  0.68842680  0.92393472  1  -0.06931  0  -0.092063  -0.142012  0  3.94373  0
C  C117  1  0.48694866  0.74295618  0.89417631  1  -0.028192  0  -0.019336  -0.006448  0  3.98847  0
C  C118  1  0.45606417  0.73449250  0.84670298  1  0.032836  0  -0.083071  -0.178933  0  3.879807  0
C  C119  1  0.48673842  0.56507367  0.93689592  1  1.5678  0  0.211031  0.580448  0  4.210611  0
C  C120  1  0.50778745  0.81157082  0.91367593  1  1.504387  0  0.183845  0.545367  0  4.232651  0
C  C121  1  0.27839676  0.90568728  0.50625990  1  0.542604  0  0.057603  0.112543  0  3.930089  0
C  C122  1  0.15714657  0.90373176  0.50684747  1  -0.020684  0  -0.084606  -0.184373  0  3.961639  0
C  C123  1  0.11272813  0.92260262  0.54669598  1  -0.036265  0  0.009771  0.101429  0  3.995865  0
C  C124  1  0.19525726  0.94270084  0.58441223  1  -0.047487  0  -0.079943  -0.174265  0  3.937046  0
C  C125  1  0.31499564  0.94334410  0.58092932  1  0.464047  0  0.059586  0.114924  0  3.918523  0
C  C126  1  0.98470542  0.92121169  0.54890815  1  -0.036012  0  0.010332  0.101569  0  3.995436  0
C  C127  1  0.90868864  0.87572304  0.52306622  1  -0.054628  0  -0.083016  -0.180444  0  3.950704  0
C  C128  1  0.78830971  0.87681721  0.52554393  1  0.529955  0  0.058247  0.112308  0  3.91987  0
C  C129  1  0.81235186  0.96349659  0.57742001  1  0.480412  0  0.054319  0.101222  0  3.944122  0
C  C130  1  0.93365451  0.96550824  0.57693078  1  0.006012  0  -0.084166  -0.184104  0  3.965476  0
C  C131  1  0.27280936  0.54692361  0.42665876  1  0.475234  0  0.060938  0.119649  0  3.929364  0
C  C132  1  0.15102771  0.54597885  0.42542248  1  0.023632  0  -0.07867  -0.170744  0  3.935205  0
C  C133  1  0.09996436  0.58332866  0.45743619  1  0.02511  0  0.009938  0.098466  0  4.001255  0
C  C134  1  0.17657080  0.62221080  0.48843884  1  -0.051663  0  -0.083063  -0.18177  0  3.954494  0
C  C135  1  0.29755532  0.62081067  0.48711505  1  0.489189  0  0.05613  0.10689  0  3.92193  0
C  C136  1  0.97132193  0.58116389  0.45819608  1  -0.034838  0  0.010763  0.102555  0  3.997674  0
C  C137  1  0.90415559  0.52516572  0.44227600  1  -0.047079  0  -0.084227  -0.182695  0  3.962688  0
C  C138  1  0.78269052  0.52513488  0.44225812  1  0.52039  0  0.051112  0.099753  0  3.941296  0
C  C139  1  0.78891904  0.63027333  0.47383887  1  0.51701  0  0.056756  0.106036  0  3.921238  0
C  C140  1  0.91054197  0.63439145  0.47462146  1  -0.076082  0  -0.083463  -0.181168  0  3.957486  0
C  C141  1  0.46548110  0.31302743  0.91062119  1  1.56162  0  0.184921  0.549467  0  4.231536  0
C  C142  1  0.48343418  0.24389873  0.89383913  1  -0.071463  0  -0.018549  -0.005548  0  3.984911  0
C  C143  1  0.46833695  0.18976967  0.92211307  1  -0.061973  0  -0.089872  -0.136569  0  3.94164  0
C  C144  1  0.49166966  0.12559896  0.90771011  1  0.030525  0  -0.030895  -0.040184  0  4.050755  0
C  C145  1  0.52948685  0.11618562  0.86539158  1  -0.07007  0  -0.101194  -0.217591  0  3.967591  0
C  C146  1  0.54254509  0.17025607  0.83666028  1  0.301666  0  0.09061  0.250702  0  4.068402  0
C  C147  1  0.51913770  0.23473970  0.85092528  1  0.001685  0  -0.085206  -0.183811  0  3.884055  0
C  C148  1  0.48028190  0.06672102  0.93792838  1  1.575147  0  0.212111  0.578874  0  4.213954  0
C  C149  1  0.56335411  0.19230968  0.75452759  1  1.82166  0  0.326808  0.631829  0  4.197719  0
C  C150  1  0.56585737  0.17032750  0.67110363  1  0.315131  0  0.089354  0.248805  0  4.067419  0
C  C151  1  0.55888269  0.11593317  0.64114236  1  -0.038727  0  -0.100387  -0.216694  0  3.969428  0
C  C152  1  0.52573145  0.12463419  0.59396633  1  0.017897  0  -0.031823  -0.037684  0  4.052518  0
C  C153  1  0.50222649  0.18842739  0.57606560  1  -0.069204  0  -0.092066  -0.141994  0  3.943733  0
C  C154  1  0.51305131  0.24295781  0.60582404  1  -0.028183  0  -0.019347  -0.006551  0  3.988484  0
C  C155  1  0.54393578  0.23449322  0.65329771  1  0.032839  0  -0.083028  -0.178837  0  3.879699  0
C  C156  1  0.51326022  0.06507375  0.56310493  1  1.567986  0  0.211039  0.580448  0  4.210552  0
C  C157  1  0.49221358  0.31157192  0.58632453  1  1.504383  0  0.183899  0.545527  0  4.232591  0
C  C158  1  0.72160185  0.40568808  0.99373980  1  0.542625  0  0.057618  0.112517  0  3.930125  0
C  C159  1  0.84285292  0.40373265  0.99315262  1  -0.020697  0  -0.084608  -0.184356  0  3.96175  0
C  C160  1  0.88727140  0.42260348  0.95330412  1  -0.036239  0  0.009721  0.101373  0  3.995939  0
C  C161  1  0.80474321  0.44270160  0.91558794  1  -0.047467  0  -0.079917  -0.174193  0  3.937056  0
C  C162  1  0.68500483  0.44334478  0.91907051  1  0.46398  0  0.059581  0.114934  0  3.918387  0
C  C163  1  0.01529499  0.42121243  0.95109234  1  -0.036001  0  0.010329  0.101591  0  3.995436  0
C  C164  1  0.09131167  0.37572436  0.97693458  1  -0.054706  0  -0.083059  -0.180548  0  3.950716  0
C  C165  1  0.21169060  0.37681812  0.97445721  1  0.529944  0  0.058262  0.112351  0  3.919757  0
C  C166  1  0.18764867  0.46349642  0.92258018  1  0.480602  0  0.05431  0.101225  0  3.944127  0
C  C167  1  0.06634690  0.46550848  0.92306946  1  0.005999  0  -0.084168  -0.184145  0  3.96545  0
C  C168  1  0.72718924  0.04692336  0.07334133  1  0.475243  0  0.060861  0.119512  0  3.929345  0
C  C169  1  0.84897177  0.04597919  0.07457800  1  0.023628  0  -0.078693  -0.170763  0  3.935237  0
C  C170  1  0.90003521  0.08332899  0.04256398  1  0.025117  0  0.009915  0.098504  0  4.001253  0
C  C171  1  0.82342798  0.12221055  0.01156098  1  -0.051672  0  -0.083069  -0.181767  0  3.954495  0
C  C172  1  0.70244522  0.12081082  0.01288521  1  0.48929  0  0.056102  0.10683  0  3.921944  0
C  C173  1  0.02867675  0.08116360  0.04180438  1  -0.034851  0  0.010733  0.102437  0  3.997727  0
C  C174  1  0.09584295  0.02516501  0.05772408  1  -0.047031  0  -0.084235  -0.182664  0  3.96273  0
C  C175  1  0.21730802  0.02513475  0.05774162  1  0.520441  0  0.051079  0.099744  0  3.941224  0
C  C176  1  0.21107976  0.13027265  0.02616095  1  0.51692  0  0.056763  0.106071  0  3.921211  0
C  C177  1  0.08945685  0.13439119  0.02537836  1  -0.075935  0  -0.083445  -0.181096  0  3.957426  0
C  C178  1  0.46548050  0.18697196  0.41062159  1  1.561682  0  0.184941  0.549431  0  4.231631  0
C  C179  1  0.48343199  0.25610115  0.39383881  1  -0.071505  0  -0.018514  -0.005443  0  3.984833  0
C  C180  1  0.46833666  0.31023023  0.42211323  1  -0.061966  0  -0.089858  -0.13655  0  3.941591  0
C  C181  1  0.49166953  0.37440144  0.40771032  1  0.030567  0  -0.030896  -0.040204  0  4.050736  0
C  C182  1  0.52948586  0.38381474  0.36539174  1  -0.070222  0  -0.101225  -0.2176  0  3.967655  0
C  C183  1  0.54254308  0.32974427  0.33666035  1  0.301808  0  0.090589  0.250618  0  4.068477  0
C  C184  1  0.51913464  0.26526064  0.35092558  1  0.001799  0  -0.085214  -0.183721  0  3.884124  0
C  C185  1  0.48028192  0.43327990  0.43792863  1  1.575161  0  0.212074  0.578857  0  4.214061  0
C  C186  1  0.56335382  0.30769057  0.25452741  1  1.821667  0  0.326809  0.631837  0  4.197671  0
C  C187  1  0.56585625  0.32967264  0.17110375  1  0.315123  0  0.089382  0.248826  0  4.067317  0
C  C188  1  0.55888259  0.38406643  0.14114224  1  -0.038846  0  -0.100439  -0.216694  0  3.969551  0
C  C189  1  0.52573220  0.37536582  0.09396625  1  0.017894  0  -0.031846  -0.037863  0  4.052648  0
C  C190  1  0.50222620  0.31157208  0.07606542  1  -0.069203  0  -0.092064  -0.141977  0  3.943636  0
C  C191  1  0.51305177  0.25704220  0.10582387  1  -0.028187  0  -0.01937  -0.006552  0  3.988435  0
C  C192  1  0.54393538  0.26550638  0.15329783  1  0.032976  0  -0.083056  -0.178906  0  3.879624  0
C  C193  1  0.51325936  0.43492521  0.06310479  1  1.568019  0  0.211178  0.580779  0  4.21037  0
C  C194  1  0.49221475  0.18842806  0.08632436  1  1.504378  0  0.183906  0.545505  0  4.232658  0
C  C195  1  0.72160278  0.09431309  0.49373956  1  0.542618  0  0.057508  0.112383  0  3.930106  0
C  C196  1  0.84285386  0.09626811  0.49315204  1  -0.020722  0  -0.084592  -0.184321  0  3.961685  0
C  C197  1  0.88727229  0.07739676  0.45330421  1  -0.036242  0  0.009799  0.10149  0  3.995878  0
C  C198  1  0.80474317  0.05729704  0.41558762  1  -0.047472  0  -0.079969  -0.174286  0  3.937133  0
C  C199  1  0.68500567  0.05665428  0.41907092  1  0.463978  0  0.059576  0.115008  0  3.91832  0
C  C200  1  0.01529501  0.07878719  0.45109170  1  -0.035998  0  0.010318  0.101558  0  3.995546  0
C  C201  1  0.09131091  0.12427683  0.47693426  1  -0.054595  0  -0.083014  -0.180442  0  3.950665  0
C  C202  1  0.21169160  0.12318216  0.47445564  1  0.529906  0  0.058306  0.112396  0  3.919775  0
C  C203  1  0.18764857  0.03650329  0.42257950  1  0.480438  0  0.054302  0.101256  0  3.944134  0
C  C204  1  0.06634592  0.03449114  0.42306941  1  0.005968  0  -0.084181  -0.184251  0  3.965637  0
C  C205  1  0.72718753  0.45307477  0.57333986  1  0.47531  0  0.06087  0.119544  0  3.929404  0
C  C206  1  0.84897360  0.45401953  0.57457708  1  0.023671  0  -0.078679  -0.170748  0  3.935135  0
C  C207  1  0.90003518  0.41667072  0.54256293  1  0.025115  0  0.009947  0.098502  0  4.001305  0
C  C208  1  0.82342697  0.37778808  0.51155984  1  -0.051676  0  -0.083035  -0.181771  0  3.954549  0
C  C209  1  0.70244599  0.37918920  0.51288553  1  0.489281  0  0.056132  0.10689  0  3.921986  0
C  C210  1  0.02867762  0.41883549  0.54180372  1  -0.034846  0  0.010753  0.102501  0  3.997732  0
C  C211  1  0.09584307  0.47483415  0.55772408  1  -0.046903  0  -0.084257  -0.182746  0  3.962657  0
C  C212  1  0.21730902  0.47486499  0.55774202  1  0.520408  0  0.051126  0.099795  0  3.941237  0
C  C213  1  0.21108050  0.36972704  0.52616025  1  0.517024  0  0.056708  0.106012  0  3.921223  0
C  C214  1  0.08945758  0.36560892  0.52537766  1  -0.07609  0  -0.083435  -0.181066  0  3.957472  0
C  C215  1  0.53451933  0.68697244  0.08937866  1  1.561624  0  0.184951  0.549498  0  4.231491  0
C  C216  1  0.51656624  0.75610114  0.10616072  1  -0.071542  0  -0.018565  -0.005605  0  3.984935  0
C  C217  1  0.53166525  0.81023020  0.07788723  1  -0.061647  0  -0.089891  -0.136628  0  3.94165  0
C  C218  1  0.50833342  0.87440141  0.09228955  1  0.030231  0  -0.03087  -0.04008  0  4.050504  0
C  C219  1  0.47051623  0.88381524  0.13460843  1  -0.070086  0  -0.101136  -0.217463  0  3.967697  0
C  C220  1  0.45745622  0.82974479  0.16333929  1  0.301644  0  0.090579  0.250588  0  4.068572  0
C  C221  1  0.48086185  0.76526117  0.14907452  1  0.001788  0  -0.085169  -0.1837  0  3.884053  0
C  C222  1  0.51971941  0.93327935  0.06207119  1  1.575349  0  0.212013  0.57875  0  4.214108  0
C  C223  1  0.43664985  0.80768920  0.24547247  1  1.821694  0  0.3268  0.631896  0  4.197603  0
C  C224  1  0.43414571  0.82967188  0.32889536  1  0.314952  0  0.089418  0.24895  0  4.067148  0
C  C225  1  0.44111951  0.88406770  0.35885827  1  -0.03835  0  -0.100364  -0.216542  0  3.969354  0
C  C226  1  0.47426898  0.87536668  0.40603319  1  0.017961  0  -0.031926  -0.037995  0  4.05287  0
C  C227  1  0.49777306  0.81157298  0.42393488  1  -0.069289  0  -0.092058  -0.141994  0  3.943675  0
C  C228  1  0.48694912  0.75704305  0.39417581  1  -0.028168  0  -0.019352  -0.006449  0  3.988485  0
C  C229  1  0.45606642  0.76550665  0.34670259  1  0.032949  0  -0.083071  -0.179016  0  3.879784  0
C  C230  1  0.48674198  0.93492612  0.43689537  1  1.56803  0  0.211148  0.580803  0  4.210418  0
C  C231  1  0.50778685  0.68842895  0.41367566  1  1.50436  0  0.183862  0.545442  0  4.232632  0
C  C232  1  0.27839769  0.59431328  0.00625898  1  0.542532  0  0.057605  0.112456  0  3.930074  0
C  C233  1  0.15714751  0.59626872  0.00684791  1  -0.020619  0  -0.084537  -0.18416  0  3.961718  0
C  C234  1  0.11272814  0.57739689  0.04669534  1  -0.036285  0  0.009666  0.101315  0  3.996079  0
C  C235  1  0.19525633  0.55729827  0.08441084  1  -0.047448  0  -0.079962  -0.174236  0  3.937114  0
C  C236  1  0.31499383  0.55665510  0.08092958  1  0.463947  0  0.059548  0.114903  0  3.918448  0
C  C237  1  0.98470455  0.57878744  0.04890779  1  -0.03601  0  0.010328  0.101572  0  3.995545  0
C  C238  1  0.90868876  0.62427650  0.02306595  1  -0.054632  0  -0.083025  -0.180459  0  3.950749  0
C  C239  1  0.78830895  0.62318274  0.02554394  1  0.529952  0  0.058233  0.112304  0  3.919844  0
C  C240  1  0.81235088  0.53650345  0.07741996  1  0.480958  0  0.054317  0.10129  0  3.944091  0
C  C241  1  0.93365441  0.53449140  0.07693044  1  0.006012  0  -0.084138  -0.184129  0  3.965514  0
C  C242  1  0.27280942  0.95307552  0.92665909  1  0.474861  0  0.060907  0.119562  0  3.929342  0
C  C243  1  0.15102778  0.95402018  0.92542247  1  0.023646  0  -0.078716  -0.17077  0  3.935228  0
C  C244  1  0.09996433  0.91667038  0.95743683  1  0.025085  0  0.009965  0.098494  0  4.001351  0
C  C245  1  0.17657157  0.87778883  0.98843950  1  -0.051676  0  -0.083064  -0.181779  0  3.954608  0
C  C246  1  0.29755432  0.87918855  0.98711526  1  0.489261  0  0.05613  0.106953  0  3.921903  0
C  C247  1  0.97132279  0.91883627  0.95819609  1  -0.034818  0  0.010737  0.102484  0  3.997746  0
C  C248  1  0.90415659  0.97483487  0.94227606  1  -0.046765  0  -0.084228  -0.182721  0  3.962683  0
C  C249  1  0.78269153  0.97486562  0.94225784  1  0.520379  0  0.051097  0.099826  0  3.941205  0
C  C250  1  0.78891890  0.86972821  0.97383947  1  0.517033  0  0.056744  0.106041  0  3.921307  0
C  C251  1  0.91054181  0.86560918  0.97462206  1  -0.076072  0  -0.083457  -0.181119  0  3.957438  0
N  N252  1  0.41823128  0.65547057  0.70505107  1  -1.198097  0  -0.415261  -0.437578  0  3.554608  0
N  N253  1  0.40380660  0.65628668  0.78185446  1  -1.218203  0  -0.415438  -0.437021  0  3.54617  0
N  N254  1  0.35625008  0.92543782  0.54246301  1  -1.207404  0  -0.306093  -0.208197  0  3.495086  0
N  N255  1  0.74055298  0.92038213  0.55193998  1  -1.20373  0  -0.306628  -0.202202  0  3.475488  0
N  N256  1  0.34541750  0.58275407  0.45739626  1  -1.227833  0  -0.306119  -0.209039  0  3.498152  0
N  N257  1  0.72555095  0.57683065  0.45750618  1  -1.212747  0  -0.304254  -0.193293  0  3.469372  0
N  N258  1  0.58177024  0.15547002  0.79494899  1  -1.197714  0  -0.415265  -0.437628  0  3.554703  0
N  N259  1  0.59619226  0.15628703  0.71814578  1  -1.218164  0  -0.41543  -0.437055  0  3.546073  0
N  N260  1  0.64374946  0.42543902  0.95753676  1  -1.207413  0  -0.306109  -0.208192  0  3.494848  0
N  N261  1  0.25944743  0.42038354  0.94805983  1  -1.203909  0  -0.306631  -0.202223  0  3.47541  0
N  N262  1  0.65458118  0.08275374  0.04260353  1  -1.227965  0  -0.306045  -0.208898  0  3.498058  0
N  N263  1  0.27444771  0.07683054  0.04249326  1  -1.212776  0  -0.304231  -0.19328  0  3.469326  0
N  N264  1  0.58176826  0.34452980  0.29494907  1  -1.197721  0  -0.415251  -0.437611  0  3.55467  0
N  N265  1  0.59619206  0.34371319  0.21814562  1  -1.218172  0  -0.415401  -0.436981  0  3.54607  0
N  N266  1  0.64375034  0.07456156  0.45753617  1  -1.207404  0  -0.306082  -0.208182  0  3.49484  0
N  N267  1  0.25944656  0.07961774  0.44805981  1  -1.203738  0  -0.306646  -0.202266  0  3.475546  0
N  N268  1  0.65458381  0.41724580  0.54260331  1  -1.228037  0  -0.306079  -0.208965  0  3.498326  0
N  N269  1  0.27444859  0.42316922  0.54249362  1  -1.212741  0  -0.304242  -0.193294  0  3.469345  0
N  N270  1  0.41823108  0.84453085  0.20505091  1  -1.197693  0  -0.415269  -0.437693  0  3.554649  0
N  N271  1  0.40381082  0.84371384  0.28185457  1  -1.218148  0  -0.415477  -0.437119  0  3.546015  0
N  N272  1  0.35625009  0.57456235  0.04246338  1  -1.207339  0  -0.306119  -0.208242  0  3.49492  0
N  N273  1  0.74055300  0.57961733  0.05194036  1  -1.203731  0  -0.30663  -0.202251  0  3.475501  0
N  N274  1  0.34541748  0.91724564  0.95739656  1  -1.227508  0  -0.306091  -0.208998  0  3.498074  0
N  N275  1  0.72555183  0.92316983  0.95750653  1  -1.212753  0  -0.304253  -0.193345  0  3.469491  0
O  O276  1  0.53676599  0.86227253  0.61606488  1  -1.181676  0  -0.339659  -0.56327  0  2.111395  0
O  O277  1  0.54412922  0.81940592  0.54657116  1  -1.156305  0  -0.334779  -0.564698  0  2.259438  0
O  O278  1  0.54850072  0.57059843  0.97617320  1  -1.206458  0  -0.325606  -0.572164  0  2.417722  0
O  O279  1  0.43506066  0.51186295  0.92062793  1  -1.177819  0  -0.316379  -0.55706  0  2.374642  0
O  O280  1  0.57557719  0.57372184  0.52851409  1  -1.197866  0  -0.328919  -0.574861  0  2.397267  0
O  O281  1  0.47192556  0.51281688  0.57310708  1  -1.178845  0  -0.314972  -0.551338  0  2.379063  0
O  O282  1  0.53673984  0.81648464  0.95757053  1  -1.159482  0  -0.332235  -0.567442  0  2.261584  0
O  O283  1  0.49564656  0.86208494  0.88786092  1  -1.159645  0  -0.34013  -0.555207  0  2.103022  0
O  O284  1  0.47587044  0.74915779  0.74859930  1  -1.140785  0  -0.295761  -0.496158  0  2.059468  0
O  O285  1  0.46323251  0.36227151  0.88393478  1  -1.18167  0  -0.339623  -0.563252  0  2.11146  0
O  O286  1  0.45587006  0.31940499  0.95342886  1  -1.156295  0  -0.334818  -0.564727  0  2.259287  0
O  O287  1  0.45149793  0.07059792  0.52382731  1  -1.206433  0  -0.325595  -0.572183  0  2.417628  0
O  O288  1  0.56493784  0.01186359  0.57937253  1  -1.178016  0  -0.316404  -0.557034  0  2.374622  0
O  O289  1  0.42442235  0.07372191  0.97148546  1  -1.197882  0  -0.328962  -0.57488  0  2.397331  0
O  O290  1  0.52807383  0.01281696  0.92689242  1  -1.178827  0  -0.314973  -0.551327  0  2.379017  0
O  O291  1  0.46326119  0.31648417  0.54242926  1  -1.159469  0  -0.332231  -0.567474  0  2.261538  0
O  O292  1  0.50435193  0.36208608  0.61213841  1  -1.159684  0  -0.340155  -0.55528  0  2.103028  0
O  O293  1  0.52413132  0.24915763  0.75140185  1  -1.140811  0  -0.295832  -0.496231  0  2.059572  0
O  O294  1  0.46323267  0.13772784  0.38393520  1  -1.181676  0  -0.339661  -0.563303  0  2.111441  0
O  O295  1  0.45586944  0.18059495  0.45342892  1  -1.156317  0  -0.334789  -0.564662  0  2.259416  0
O  O296  1  0.45149617  0.42940194  0.02382780  1  -1.206478  0  -0.325682  -0.57234  0  2.417802  0
O  O297  1  0.56493800  0.48813692  0.07937317  1  -1.178002  0  -0.316443  -0.557174  0  2.37453  0
O  O298  1  0.42442324  0.42627853  0.47148610  1  -1.197893  0  -0.32891  -0.574851  0  2.397413  0
O  O299  1  0.52807398  0.48718349  0.42689272  1  -1.178853  0  -0.314997  -0.551369  0  2.379063  0
O  O300  1  0.46326059  0.18351473  0.04243000  1  -1.159443  0  -0.332206  -0.567416  0  2.261656  0
O  O301  1  0.50435563  0.13791393  0.11213937  1  -1.159709  0  -0.340177  -0.555314  0  2.102962  0
O  O302  1  0.52412999  0.25084209  0.25140157  1  -1.140816  0  -0.295863  -0.49628  0  2.059515  0
O  O303  1  0.53676704  0.63772786  0.11606535  1  -1.181686  0  -0.339647  -0.563272  0  2.111427  0
O  O304  1  0.54413125  0.68059488  0.04657138  1  -1.156291  0  -0.334826  -0.564733  0  2.259272  0
O  O305  1  0.54850515  0.92940344  0.47617236  1  -1.206508  0  -0.325687  -0.5724  0  2.417787  0
O  O306  1  0.43506258  0.98813727  0.42062698  1  -1.178002  0  -0.316407  -0.557133  0  2.374557  0
O  O307  1  0.57557807  0.92627846  0.02851372  1  -1.19777  0  -0.3289  -0.574834  0  2.397465  0
O  O308  1  0.47192483  0.98718291  0.07310664  1  -1.178822  0  -0.314966  -0.551318  0  2.379061  0
O  O309  1  0.53673835  0.68351521  0.45757054  1  -1.15946  0  -0.33221  -0.567449  0  2.261557  0
O  O310  1  0.49564673  0.63791528  0.38786066  1  -1.159665  0  -0.340142  -0.555243  0  2.103014  0
O  O311  1  0.47587088  0.75084522  0.24859743  1  -1.140798  0  -0.295785  -0.496203  0  2.059702  0
