# generated using pymatgen
data_Zn2H8C27Br2N9O2
_symmetry_space_group_name_H-M   'P 1'
_cell_length_a   18.47610804
_cell_length_b   19.46163055
_cell_length_c   18.53097430
_cell_angle_alpha   103.08824010
_cell_angle_beta   109.60439838
_cell_angle_gamma   111.01414393
_symmetry_Int_Tables_number   1
_chemical_formula_structural   Zn2H8C27Br2N9O2
_chemical_formula_sum   'Zn4 H16 C54 Br4 N18 O4'
_cell_volume   5384.72964532
_cell_formula_units_Z   2
loop_
 _symmetry_equiv_pos_site_id
 _symmetry_equiv_pos_as_xyz
  1  'x, y, z'
loop_
 _atom_site_type_symbol
 _atom_site_label
 _atom_site_symmetry_multiplicity
 _atom_site_fract_x
 _atom_site_fract_y
 _atom_site_fract_z
 _atom_site_occupancy
 _atom_site_pbe_bader_charge
 _atom_site_pbe_bader_spin_density
 _atom_site_pbe_cm5_charge
 _atom_site_pbe_ddec_charge
 _atom_site_pbe_ddec_spin_density
 _atom_site_pbe_ddec_sum_bond_order
 _atom_site_pbe_magmom
Zn  Zn0  1  0.88271115  0.00961928  0.38001062  1  1.243744  0  0.733471  0.66379  0  2.450093  0
Zn  Zn1  1  0.12266070  0.97926795  0.60541156  1  1.245942  0  0.718167  0.663639  0  2.373503  0
Zn  Zn2  1  0.11201484  0.08848455  0.48105137  1  1.195934  0  0.747275  0.620179  0  2.473453  0
Zn  Zn3  1  0.89079171  0.88598176  0.49267659  1  1.201712  0  0.750884  0.681816  0  2.225558  0
H  H4  1  0.85258565  0.89789353  0.20350109  1  0.120859  0  0.118345  0.108281  0  1.023004  0
H  H5  1  0.11960948  0.97234857  0.78107958  1  0.103782  0  0.116014  0.106926  0  1.014634  0
H  H6  1  0.31542423  0.15792561  0.50151652  1  0.096724  0  0.122472  0.111827  0  0.994562  0
H  H7  1  0.86082056  0.97856447  0.63238283  1  0.117799  0  0.121756  0.11291  0  1.008011  0
H  H8  1  0.79310406  0.72794651  0.32457755  1  0.116166  0  0.099673  0.090424  0  1.085486  0
H  H9  1  0.14086481  0.24541581  0.60652931  1  0.094363  0  0.110588  0.10459  0  1.035896  0
H  H10  1  0.30761951  0.98622236  0.61611705  1  0.142488  0  0.121778  0.119007  0  1.001664  0
H  H11  1  0.84168796  0.12630514  0.49147639  1  0.090357  0  0.122245  0.113327  0  0.998565  0
H  H12  1  0.13001994  0.98152999  0.34235168  1  0.105728  0  0.126461  0.121194  0  0.987993  0
H  H13  1  0.83928634  0.82493334  0.63421370  1  0.12179  0  0.125149  0.116705  0  0.984964  0
H  H14  1  0.61713340  0.54962818  0.92011669  1  0.057908  0  0.101167  0.089711  0  0.991297  0
H  H15  1  0.37051449  0.46732871  0.98508809  1  0.06881  0  0.101545  0.09001  0  0.989259  0
H  H16  1  0.53310971  0.40065470  0.92935604  1  0.069248  0  0.101613  0.090029  0  0.989254  0
H  H17  1  0.45524151  0.61676641  0.97560779  1  0.051716  0  0.101383  0.089614  0  0.988  0
H  H18  1  0.45209428  0.53525866  0.82591238  1  0.042128  0  0.099573  0.08692  0  0.994474  0
H  H19  1  0.53650942  0.48187769  0.07951851  1  0.071995  0  0.099185  0.085346  0  0.991747  0
C  C20  1  0.91975871  0.92400970  0.25039871  1  0.442942  0  0.025653  -0.018902  0  3.900627  0
C  C21  1  0.05223408  0.93845823  0.73305309  1  0.439177  0  0.019711  -0.028703  0  3.935905  0
C  C22  1  0.07980692  0.81336749  0.54730048  1  0.852454  0  0.192637  0.106635  0  3.967766  0
C  C23  1  0.95829271  0.18287898  0.39971694  1  0.871006  0  0.194891  0.105369  0  3.983138  0
C  C24  1  0.29874433  0.11247868  0.52653299  1  0.421211  0  0.018869  -0.044269  0  3.950106  0
C  C25  1  0.86289460  0.00927916  0.59044133  1  0.435173  0  0.02089  -0.030057  0  3.906365  0
C  C26  1  0.77815616  0.77405767  0.31149110  1  0.466219  0  0.014264  -0.021761  0  3.949532  0
C  C27  1  0.15506069  0.20598817  0.63509671  1  0.393722  0  0.007905  -0.041524  0  3.93642  0
C  C28  1  0.29372962  0.02379366  0.58435303  1  0.418932  0  0.01718  -0.032446  0  3.937199  0
C  C29  1  0.85453280  0.08561001  0.51876630  1  0.451017  0  0.023404  -0.024636  0  3.917367  0
C  C30  1  0.72890897  0.84625068  0.25546897  1  0.430943  0  0.082199  0.12932  0  4.017809  0
C  C31  1  0.20653773  0.15215950  0.71800473  1  0.47191  0  0.086185  0.138289  0  3.984544  0
C  C32  1  0.93905219  0.73911287  0.46933781  1  0.439774  0  0.090596  0.127294  0  3.971309  0
C  C33  1  0.10133258  0.24440808  0.45997719  1  0.422598  0  0.090015  0.12013  0  3.981988  0
C  C34  1  0.06189840  0.96678224  0.32106586  1  0.418892  0  0.019468  -0.039023  0  3.916704  0
C  C35  1  0.90874028  0.86279524  0.65801597  1  0.379077  0  0.016115  -0.054416  0  3.958978  0
C  C36  1  0.99219817  0.92479100  0.23953350  1  0.090357  0  -0.024666  0.034958  0  4.188985  0
C  C37  1  0.97687315  0.89294046  0.73919865  1  0.180859  0  -0.02964  0.028863  0  4.211097  0
C  C38  1  0.01390887  0.73277757  0.51331847  1  0.17493  0  -0.008073  -0.031321  0  4.160802  0
C  C39  1  0.03025211  0.26139125  0.43743245  1  0.187941  0  -0.007399  -0.032886  0  4.153579  0
C  C40  1  0.35001830  0.08026367  0.56572808  1  0.156985  0  -0.029913  0.027629  0  4.210135  0
C  C41  1  0.83425882  0.06632955  0.58087760  1  0.160324  0  -0.024545  0.035002  0  4.193205  0
C  C42  1  0.72430058  0.76975725  0.23435890  1  0.131849  0  -0.030854  0.006223  0  4.182697  0
C  C43  1  0.21914334  0.22750465  0.71540835  1  0.124519  0  -0.02876  0.012416  0  4.180081  0
C  C44  1  0.51641129  0.44925677  0.94060453  1  -0.03475  0  -0.070644  -0.077042  0  3.632613  0
C  C45  1  0.47119771  0.56767309  0.96458028  1  -0.004113  0  -0.070624  -0.07461  0  3.633863  0
C  C46  1  0.56205528  0.53115969  0.93443289  1  -0.016147  0  -0.070967  -0.080658  0  3.627725  0
C  C47  1  0.42611363  0.48642376  0.97165810  1  -0.025586  0  -0.072045  -0.078214  0  3.636351  0
C  C48  1  0.67536538  0.70449633  0.15684857  1  -0.497934  0  -0.070539  -0.113462  0  4.218715  0
C  C49  1  0.28609813  0.30384025  0.77471795  1  0.245846  0  -0.071413  -0.118199  0  4.222609  0
C  C50  1  0.51658895  0.49289175  0.02252105  1  -0.036428  0  -0.071444  -0.074805  0  3.63896  0
C  C51  1  0.47092849  0.52366283  0.88266491  1  -0.002657  0  -0.072826  -0.080794  0  3.635883  0
C  C52  1  0.56378333  0.57675899  0.01836181  1  0.104472  0  0.004329  0.13159  0  3.793828  0
C  C53  1  0.42337699  0.44015258  0.88765674  1  0.123663  0  0.004509  0.131486  0  3.796944  0
C  C54  1  0.62957531  0.64672120  0.09020219  1  0.146111  0  -0.053391  -0.120195  0  4.117206  0
C  C55  1  0.34998080  0.36801869  0.82431972  1  -0.588009  0  -0.052908  -0.118521  0  4.12573  0
C  C56  1  0.01953299  0.66474671  0.51830321  1  -0.195763  0  -0.012103  -0.028508  0  4.07384  0
C  C57  1  0.03130343  0.33498596  0.45388935  1  0.027338  0  -0.015944  -0.032568  0  4.082233  0
C  C58  1  0.02205737  0.60160271  0.51407463  1  0.123272  0  -0.013585  -0.014987  0  4.252885  0
C  C59  1  0.03088353  0.39973405  0.47213562  1  -0.113055  0  -0.015128  -0.017398  0  4.263708  0
C  C60  1  0.02573708  0.53309799  0.50435806  1  0.066164  0  -0.000298  0.007333  0  4.188355  0
C  C61  1  0.02873874  0.46911989  0.49018114  1  -0.119203  0  -0.00096  0.006858  0  4.188413  0
C  C62  1  0.78281158  0.08929772  0.61110532  1  -0.082808  0  -0.02959  -0.065675  0  4.058733  0
C  C63  1  0.43589482  0.09750845  0.58330691  1  -0.056256  0  -0.026735  -0.056757  0  4.073793  0
C  C64  1  0.72586867  0.10309347  0.62073976  1  -0.141019  0  -0.043837  -0.053363  0  4.327242  0
C  C65  1  0.51001546  0.10684286  0.59989797  1  -0.124731  0  -0.04895  -0.064588  0  4.335799  0
C  C66  1  0.65701181  0.11097811  0.62181695  1  -0.148794  0  -0.029936  -0.024294  0  4.24668  0
C  C67  1  0.58819223  0.11203419  0.61371998  1  0.057555  0  -0.026927  -0.014877  0  4.250364  0
C  C68  1  0.99305210  0.89937816  0.16290390  1  -0.13295  0  -0.027668  -0.062371  0  4.063854  0
C  C69  1  0.97327725  0.88184686  0.81014506  1  -0.241967  0  -0.027046  -0.057279  0  4.076777  0
C  C70  1  0.98851848  0.88515866  0.09285199  1  -0.001233  0  -0.044991  -0.054525  0  4.329673  0
C  C71  1  0.97527038  0.87612802  0.87553748  1  0.025152  0  -0.04848  -0.063165  0  4.33542  0
C  C72  1  0.98383958  0.87624125  0.01724923  1  -0.024629  0  -0.029577  -0.024293  0  4.250548  0
C  C73  1  0.97876251  0.87377564  0.94831748  1  -0.065911  0  -0.027812  -0.015958  0  4.252715  0
Br  Br74  1  0.67579095  0.88609747  0.18298064  1  -0.005535  0  0.054692  -0.027613  0  1.39274  0
Br  Br75  1  0.26939625  0.13075825  0.80458929  1  -0.007083  0  0.068925  -0.019139  0  1.398538  0
Br  Br76  1  0.82491958  0.65618230  0.42047287  1  0.01797  0  0.098188  0.00723  0  1.435911  0
Br  Br77  1  0.22000584  0.31665952  0.51137791  1  0.034489  0  0.087148  0.000398  0  1.382801  0
N  N78  1  0.94538871  0.96376642  0.33104173  1  -0.778317  0  -0.276604  -0.181938  0  3.61638  0
N  N79  1  0.03059810  0.93538641  0.65536224  1  -0.76541  0  -0.259408  -0.197822  0  3.491755  0
N  N80  1  0.04719480  0.86012570  0.52152923  1  -0.688784  0  -0.242773  -0.196572  0  3.515835  0
N  N81  1  0.98447171  0.12747793  0.40228516  1  -0.670001  0  -0.231822  -0.19782  0  3.471427  0
N  N82  1  0.21957826  0.07772325  0.52305150  1  -0.811991  0  -0.281267  -0.176939  0  3.621049  0
N  N83  1  0.89488186  0.99462017  0.53632382  1  -0.79274  0  -0.273321  -0.193788  0  3.557849  0
N  N84  1  0.81052320  0.84597429  0.37203149  1  -0.826305  0  -0.280583  -0.191115  0  3.61501  0
N  N85  1  0.11053072  0.12528227  0.59281247  1  -0.763989  0  -0.282531  -0.189479  0  3.500342  0
N  N86  1  0.21608905  0.02259868  0.55857878  1  -0.776841  0  -0.265122  -0.207476  0  3.499323  0
N  N87  1  0.88969951  0.04198147  0.49258840  1  -0.800535  0  -0.282019  -0.186967  0  3.647348  0
N  N88  1  0.78032607  0.89201874  0.33708769  1  -0.768759  0  -0.278122  -0.250003  0  3.452175  0
N  N89  1  0.14243661  0.09243438  0.64562475  1  -0.799119  0  -0.282654  -0.231583  0  3.609359  0
N  N90  1  0.96015263  0.81464273  0.47340923  1  -0.693266  0  -0.22236  -0.180365  0  3.386798  0
N  N91  1  0.07221348  0.16463928  0.43929590  1  -0.751358  0  -0.2368  -0.161436  0  3.493113  0
N  N92  1  0.03293177  0.99043020  0.37502513  1  -0.811552  0  -0.28329  -0.194824  0  3.589923  0
N  N93  1  0.94196736  0.88843347  0.60894027  1  -0.799898  0  -0.273631  -0.184431  0  3.602218  0
N  N94  1  0.16459652  0.84909283  0.61388335  1  0.271172  0  0.054395  0.500914  0  4.178136  0
N  N95  1  0.86698933  0.15540297  0.36280635  1  0.27524  0  0.056632  0.500328  0  4.190609  0
O  O96  1  0.19926759  0.80746441  0.63077518  1  -0.408023  0  -0.103736  -0.279753  0  1.858435  0
O  O97  1  0.20027761  0.92436309  0.65689755  1  -0.533192  0  -0.148413  -0.352798  0  2.069368  0
O  O98  1  0.83907268  0.20377738  0.35763118  1  -0.398844  0  -0.103684  -0.278064  0  1.855941  0
O  O99  1  0.81758518  0.08025359  0.33677641  1  -0.534964  0  -0.149183  -0.357536  0  2.042794  0
