# generated using pymatgen
data_Zn2H3C12S2ClO7
_symmetry_space_group_name_H-M   'P 1'
_cell_length_a   19.66683390
_cell_length_b   19.69363196
_cell_length_c   33.37096656
_cell_angle_alpha   79.10579055
_cell_angle_beta   79.18459058
_cell_angle_gamma   63.94666953
_symmetry_Int_Tables_number   1
_chemical_formula_structural   Zn2H3C12S2ClO7
_chemical_formula_sum   'Zn16 H24 C96 S16 Cl8 O56'
_cell_volume   11321.83820488
_cell_formula_units_Z   8
loop_
 _symmetry_equiv_pos_site_id
 _symmetry_equiv_pos_as_xyz
  1  'x, y, z'
loop_
 _atom_site_type_symbol
 _atom_site_label
 _atom_site_symmetry_multiplicity
 _atom_site_fract_x
 _atom_site_fract_y
 _atom_site_fract_z
 _atom_site_occupancy
 _atom_site_pbe_bader_charge
 _atom_site_pbe_bader_spin_density
 _atom_site_pbe_cm5_charge
 _atom_site_pbe_ddec_charge
 _atom_site_pbe_ddec_spin_density
 _atom_site_pbe_ddec_sum_bond_order
 _atom_site_pbe_magmom
Zn  Zn0  1  0.05681245  0.39941056  0.47835107  1  1.325024  0  0.676367  0.976113  0  2.340312  0
Zn  Zn1  1  0.98437097  0.48328494  0.56025320  1  1.320741  0  0.677945  0.970177  0  2.387301  0
Zn  Zn2  1  0.05817122  0.56090737  0.48247451  1  1.316369  0  0.672926  0.963763  0  2.378139  0
Zn  Zn3  1  0.90097893  0.55463657  0.47977385  1  1.31904  0  0.673201  0.963986  0  2.378205  0
Zn  Zn4  1  0.69425620  0.35039170  0.27171357  1  1.319908  0  0.673824  0.9704  0  2.353733  0
Zn  Zn5  1  0.68942356  0.19002036  0.26702801  1  1.317693  0  0.674561  0.968188  0  2.361708  0
Zn  Zn6  1  0.76896989  0.26596148  0.19083557  1  1.305847  0  0.671855  0.963641  0  2.370058  0
Zn  Zn7  1  0.84797918  0.19565074  0.27306361  1  1.315119  0  0.673964  0.965498  0  2.376164  0
Zn  Zn8  1  0.26662583  0.76652683  0.68917246  1  1.307059  0  0.672511  0.961403  0  2.377588  0
Zn  Zn9  1  0.34864894  0.69582141  0.77134469  1  1.318869  0  0.675865  0.970207  0  2.372794  0
Zn  Zn10  1  0.19304695  0.84750136  0.77130290  1  1.315903  0  0.671185  0.964117  0  2.36253  0
Zn  Zn11  1  0.19098457  0.68754907  0.76616615  1  1.317616  0  0.674565  0.970459  0  2.361772  0
Zn  Zn12  1  0.56055386  0.06028564  0.98337747  1  1.314721  0  0.672058  0.964889  0  2.365651  0
Zn  Zn13  1  0.40119195  0.05494276  0.97805360  1  1.313569  0  0.671795  0.962046  0  2.36929  0
Zn  Zn14  1  0.55440942  0.90152394  0.97789304  1  1.3195  0  0.672622  0.968672  0  2.358634  0
Zn  Zn15  1  0.48400799  0.98365564  0.06034154  1  1.315333  0  0.671999  0.966368  0  2.35947  0
H  H16  1  0.95382744  0.24879955  0.35122392  1  0.098683  0  0.106257  0.116152  0  1.001401  0
H  H17  1  0.74666336  0.45553363  0.35102502  1  0.141378  0  0.117011  0.142161  0  0.978541  0
H  H18  1  0.00094107  0.29775230  0.39928399  1  0.104857  0  0.109412  0.114543  0  0.988465  0
H  H19  1  0.09765339  0.59756411  0.70001551  1  0.110144  0  0.107666  0.118154  0  0.998569  0
H  H20  1  0.20143592  0.70128658  0.59658404  1  0.087413  0  0.115858  0.140826  0  0.980239  0
H  H21  1  0.05003884  0.55023436  0.65136438  1  0.07037  0  0.11034  0.116015  0  0.988287  0
H  H22  1  0.46315339  0.23983751  0.34098284  1  0.140682  0  0.12251  0.148232  0  0.967954  0
H  H23  1  0.47900063  0.70287282  0.60120871  1  0.1105  0  0.122911  0.148821  0  0.967173  0
H  H24  1  0.20302065  0.97877091  0.60153812  1  0.114115  0  0.12261  0.148552  0  0.967653  0
H  H25  1  0.94915121  0.97022755  0.34797401  1  0.143381  0  0.122795  0.148178  0  0.967691  0
H  H26  1  0.54977762  0.04986432  0.15268286  1  0.097562  0  0.106263  0.116775  0  0.999454  0
H  H27  1  0.65316654  0.15337330  0.04895527  1  0.092709  0  0.116721  0.141747  0  0.979083  0
H  H28  1  0.59838666  0.09832076  0.20021426  1  0.101235  0  0.109016  0.114258  0  0.989543  0
H  H29  1  0.54738218  0.77088794  0.14843665  1  0.117971  0  0.122425  0.148761  0  0.968072  0
H  H30  1  0.16291903  0.14130916  0.04034981  1  0.12159  0  0.122818  0.148741  0  0.967897  0
H  H31  1  0.50131688  0.79601109  0.89883045  1  0.097972  0  0.107566  0.118326  0  0.998545  0
H  H32  1  0.29462991  0.00326979  0.89889067  1  0.096723  0  0.115806  0.140408  0  0.980781  0
H  H33  1  0.45203840  0.74942763  0.85070690  1  0.113404  0  0.110007  0.115764  0  0.987323  0
H  H34  1  0.30071119  0.27965134  0.90214769  1  0.137795  0  0.12235  0.148035  0  0.967596  0
H  H35  1  0.78662977  0.01002911  0.90907076  1  0.143675  0  0.123349  0.149388  0  0.966686  0
H  H36  1  0.80984797  0.52753824  0.41868420  1  0.646038  0  0.307869  0.357572  0  0.96216  0
H  H37  1  0.13591291  0.63604347  0.52659236  1  0.652413  0  0.307416  0.357144  0  0.962159  0
H  H38  1  0.72323563  0.22306897  0.11438689  1  0.658451  0  0.307439  0.356993  0  0.962924  0
H  H39  1  0.22208261  0.94035800  0.83128799  1  0.647471  0  0.30797  0.358318  0  0.960623  0
C  C40  1  0.06167306  0.31585797  0.56166271  1  1.587377  0  0.215845  0.622561  0  4.211493  0
C  C41  1  0.06957305  0.57019455  0.56952587  1  1.47189  0  0.227657  0.617328  0  4.15005  0
C  C42  1  0.18381125  0.43940126  0.43870841  1  1.603127  0  0.214748  0.623554  0  4.209519  0
C  C43  1  0.93738363  0.68406004  0.43882847  1  1.5702  0  0.215067  0.621515  0  4.212671  0
C  C44  1  0.93047167  0.43000868  0.43054466  1  1.500234  0  0.227777  0.618749  0  4.150266  0
C  C45  1  0.81631787  0.56111366  0.56190250  1  1.578243  0  0.214545  0.61994  0  4.21592  0
C  C46  1  0.56563768  0.31117394  0.31135559  1  1.574497  0  0.219503  0.613789  0  4.212697  0
C  C47  1  0.68062283  0.17995960  0.18061990  1  1.496429  0  0.226915  0.616812  0  4.14803  0
C  C48  1  0.68908316  0.43364332  0.18834326  1  1.583559  0  0.214988  0.622716  0  4.209219  0
C  C49  1  0.93465509  0.18784959  0.18949697  1  1.563174  0  0.215802  0.623522  0  4.207312  0
C  C50  1  0.81857760  0.32066800  0.31985103  1  1.563234  0  0.231678  0.60746  0  4.151287  0
C  C51  1  0.81152165  0.06603382  0.31166062  1  1.547706  0  0.220347  0.61249  0  4.213709  0
C  C52  1  0.43375772  0.68947509  0.68813594  1  1.567372  0  0.218883  0.611012  0  4.217882  0
C  C53  1  0.31935329  0.82004952  0.81946120  1  1.509306  0  0.226758  0.616845  0  4.148082  0
C  C54  1  0.18906120  0.93358743  0.68838137  1  1.554176  0  0.218859  0.611741  0  4.216084  0
C  C55  1  0.06604291  0.81022730  0.81119443  1  1.597199  0  0.215106  0.623288  0  4.209481  0
C  C56  1  0.18125283  0.68055179  0.67968050  1  1.537005  0  0.231702  0.606963  0  4.150628  0
C  C57  1  0.31222485  0.56589540  0.81110414  1  1.569076  0  0.215203  0.621689  0  4.210564  0
C  C58  1  0.43821935  0.18398137  0.93861512  1  1.546556  0  0.219135  0.610719  0  4.214571  0
C  C59  1  0.42958712  0.93111012  0.93033004  1  1.560743  0  0.231296  0.607268  0  4.149542  0
C  C60  1  0.68387553  0.93890455  0.93856735  1  1.545587  0  0.218962  0.611656  0  4.213055  0
C  C61  1  0.56123178  0.81636227  0.06145379  1  1.572845  0  0.218587  0.610234  0  4.21482  0
C  C62  1  0.57008429  0.06998885  0.06928851  1  1.548053  0  0.230479  0.605744  0  4.151105  0
C  C63  1  0.31603932  0.06160977  0.06123707  1  1.548667  0  0.218997  0.612091  0  4.216831  0
C  C64  1  0.90095262  0.40334473  0.40210104  1  -0.020986  0  -0.036213  -0.192997  0  3.978248  0
C  C65  1  0.84743085  0.34942355  0.34839721  1  -0.032641  0  -0.010578  -0.004157  0  3.991492  0
C  C66  1  0.82824499  0.44862695  0.38829104  1  0.517929  0  0.097664  0.321026  0  4.049653  0
C  C67  1  0.91958158  0.30428421  0.36185914  1  0.018746  0  -0.098366  -0.134842  0  4.005541  0
C  C68  1  0.80239238  0.42070388  0.36143286  1  -0.036612  0  -0.090489  -0.209194  0  3.905912  0
C  C69  1  0.94541075  0.33145479  0.38836511  1  -0.009635  0  -0.080652  -0.060827  0  4.004702  0
C  C70  1  0.09867912  0.59890661  0.59710694  1  0.030849  0  -0.035395  -0.190278  0  3.979062  0
C  C71  1  0.15232371  0.65214768  0.65101231  1  -0.06263  0  -0.010519  -0.003979  0  3.990218  0
C  C72  1  0.14199165  0.64204207  0.58132161  1  0.525876  0  0.096701  0.319654  0  4.053003  0
C  C73  1  0.10947814  0.60942194  0.66689545  1  -0.080608  0  -0.09706  -0.13239  0  4.000603  0
C  C74  1  0.16832434  0.66826628  0.60877261  1  0.09319  0  -0.09121  -0.210777  0  3.907438  0
C  C75  1  0.08328921  0.58341847  0.63998891  1  0.025024  0  -0.081265  -0.063354  0  4.003386  0
C  C76  1  0.30467525  0.45485278  0.40099227  1  0.144485  0  0.010165  0.102374  0  4.087476  0
C  C77  1  0.44605503  0.29658951  0.34894735  1  0.037602  0  -0.086493  -0.130886  0  3.955355  0
C  C78  1  0.25853409  0.41573192  0.41394244  1  -0.105196  0  -0.030448  -0.190429  0  3.948314  0
C  C79  1  0.49085767  0.33654118  0.33642368  1  -0.17267  0  -0.022358  -0.116278  0  3.973696  0
C  C80  1  0.37794789  0.33966695  0.37255252  1  -0.158288  0  -0.020164  0.004968  0  4.072845  0
C  C81  1  0.37278022  0.41141676  0.37737511  1  -0.15523  0  -0.028592  -0.086565  0  4.090148  0
C  C82  1  0.72584027  0.57575384  0.62992493  1  0.148898  0  0.010343  0.10244  0  4.089539  0
C  C83  1  0.52388559  0.67385468  0.62113218  1  0.033708  0  -0.086065  -0.130781  0  3.955345  0
C  C84  1  0.74231989  0.58531169  0.58729388  1  -0.140702  0  -0.030694  -0.189661  0  3.950882  0
C  C85  1  0.50890872  0.66387432  0.66352474  1  -0.075302  0  -0.022212  -0.114884  0  3.974176  0
C  C86  1  0.60314619  0.64167285  0.60874250  1  -0.205277  0  -0.019531  0.004744  0  4.074314  0
C  C87  1  0.64639523  0.60795875  0.64214868  1  -0.110871  0  -0.028355  -0.085778  0  4.090881  0
C  C88  1  0.07605157  0.22546167  0.62982477  1  0.132962  0  0.011103  0.103449  0  4.086383  0
C  C89  1  0.17407292  0.02366697  0.62137097  1  0.008  0  -0.086823  -0.13128  0  3.956481  0
C  C90  1  0.08566476  0.24188603  0.58717757  1  -0.056544  0  -0.030986  -0.189982  0  3.949393  0
C  C91  1  0.16393249  0.00873571  0.66376808  1  -0.081829  0  -0.022385  -0.115761  0  3.974123  0
C  C92  1  0.14202864  0.10283262  0.60886799  1  -0.163386  0  -0.019219  0.004855  0  4.075883  0
C  C93  1  0.10827045  0.14609926  0.64218280  1  -0.146287  0  -0.028444  -0.085536  0  4.089465  0
C  C94  1  0.84300126  0.80088330  0.39706104  1  0.108884  0  0.010109  0.101397  0  4.089774  0
C  C95  1  0.90483827  0.94972477  0.35253292  1  0.052114  0  -0.086257  -0.129926  0  3.952003  0
C  C96  1  0.91163363  0.75836988  0.41369867  1  -0.107348  0  -0.030425  -0.18895  0  3.94766  0
C  C97  1  0.83614164  0.99095664  0.33643575  1  -0.164158  0  -0.021821  -0.114004  0  3.971098  0
C  C98  1  0.90760358  0.88015046  0.37470079  1  -0.190039  0  -0.019336  0.003895  0  4.0721  0
C  C99  1  0.84074772  0.87033836  0.37484201  1  -0.100105  0  -0.028573  -0.084765  0  4.090065  0
C  C100  1  0.65273682  0.15262787  0.15164800  1  -0.028877  0  -0.035988  -0.191784  0  3.97624  0
C  C101  1  0.59871810  0.09879487  0.09800460  1  -0.017129  0  -0.010959  -0.004301  0  3.988124  0
C  C102  1  0.66837595  0.16846662  0.10837964  1  0.57479  0  0.097398  0.321403  0  4.048626  0
C  C103  1  0.58287915  0.08296615  0.14083203  1  -0.034253  0  -0.097947  -0.133983  0  4.005724  0
C  C104  1  0.64091624  0.14107150  0.08202979  1  0.059587  0  -0.09047  -0.209595  0  3.903669  0
C  C105  1  0.60979282  0.10980452  0.16698966  1  -0.062011  0  -0.081284  -0.063305  0  4.008697  0
C  C106  1  0.67393654  0.52415421  0.12011710  1  0.161615  0  0.010156  0.102336  0  4.087843  0
C  C107  1  0.57629770  0.72605895  0.12856094  1  0.007905  0  -0.086843  -0.132161  0  3.955825  0
C  C108  1  0.66451879  0.50763629  0.16277218  1  -0.140119  0  -0.031025  -0.190889  0  3.944684  0
C  C109  1  0.58637808  0.74112843  0.08616428  1  -0.080568  0  -0.021851  -0.113783  0  3.968065  0
C  C110  1  0.60817923  0.64683108  0.14106284  1  -0.162214  0  -0.020049  0.004155  0  4.073719  0
C  C111  1  0.64179504  0.60355407  0.10775619  1  -0.110227  0  -0.028397  -0.085198  0  4.087877  0
C  C112  1  0.08210912  0.12363598  0.17813015  1  0.08022  0  0.009923  0.102779  0  4.087432  0
C  C113  1  0.17027481  0.12485583  0.07277300  1  0.085161  0  -0.086143  -0.130969  0  3.953434  0
C  C114  1  0.00986103  0.16258270  0.16512243  1  -0.088202  0  -0.030943  -0.190759  0  3.946534  0
C  C115  1  0.24134988  0.08619315  0.08649810  1  -0.177669  0  -0.021683  -0.113652  0  3.969224  0
C  C116  1  0.11187636  0.13865935  0.10617854  1  -0.145634  0  -0.01949  0.004972  0  4.069589  0
C  C117  1  0.14022730  0.11000476  0.14453455  1  -0.182825  0  -0.029556  -0.086027  0  4.090929  0
C  C118  1  0.34643817  0.84944808  0.84779216  1  -0.018128  0  -0.036158  -0.192852  0  3.977649  0
C  C119  1  0.40076726  0.90249479  0.90163194  1  -0.035425  0  -0.01034  -0.003643  0  3.98833  0
C  C120  1  0.30132887  0.92203106  0.86158076  1  0.501996  0  0.096721  0.320646  0  4.051022  0
C  C121  1  0.44576839  0.83044825  0.88816647  1  0.006675  0  -0.097398  -0.13392  0  4.001022  0
C  C122  1  0.32943983  0.94764488  0.88847491  1  0.006623  0  -0.091642  -0.210992  0  3.908822  0
C  C123  1  0.41840770  0.80488949  0.86159440  1  -3.8e-05  0  -0.080381  -0.061395  0  4.001995  0
C  C124  1  0.40678747  0.44897390  0.85283995  1  0.165009  0  0.010061  0.102193  0  4.0889  0
C  C125  1  0.34503501  0.30014814  0.89757536  1  0.098672  0  -0.086541  -0.1308  0  3.955512  0
C  C126  1  0.33811402  0.49147118  0.83622981  1  -0.104226  0  -0.030494  -0.188999  0  3.946154  0
C  C127  1  0.41371456  0.25892290  0.91366946  1  -0.187696  0  -0.022352  -0.114706  0  3.971264  0
C  C128  1  0.34230785  0.36963606  0.87530428  1  -0.159152  0  -0.019997  0.003524  0  4.07346  0
C  C129  1  0.40916394  0.37947652  0.87509372  1  -0.179417  0  -0.029206  -0.085683  0  4.089071  0
C  C130  1  0.94519532  0.79489658  0.84913574  1  0.19613  0  0.010439  0.103498  0  4.088025  0
C  C131  1  0.80372789  0.95325266  0.90113151  1  0.046452  0  -0.086329  -0.13065  0  3.951557  0
C  C132  1  0.99137454  0.83394750  0.83609826  1  -0.145309  0  -0.031215  -0.191054  0  3.946837  0
C  C133  1  0.75886371  0.91335469  0.91364192  1  -0.183599  0  -0.021753  -0.115076  0  3.969863  0
C  C134  1  0.87191587  0.91010969  0.87755797  1  -0.146723  0  -0.019633  0.005302  0  4.070244  0
C  C135  1  0.87710336  0.83833578  0.87277422  1  -0.165126  0  -0.029067  -0.087345  0  4.09069  0
S  S136  1  0.29885621  0.32607617  0.39716668  1  0.289691  0  0.08856  0.139928  0  2.735594  0
S  S137  1  0.45110342  0.42615899  0.35303867  1  0.311877  0  0.092799  0.147018  0  2.764779  0
S  S138  1  0.66056618  0.63351158  0.56244776  1  0.293025  0  0.09  0.142299  0  2.736287  0
S  S139  1  0.59017691  0.61560278  0.68863173  1  0.286568  0  0.09276  0.146675  0  2.766575  0
S  S140  1  0.13393244  0.16014889  0.56250512  1  0.278039  0  0.088372  0.139627  0  2.738233  0
S  S141  1  0.11572088  0.08997899  0.68873332  1  0.284365  0  0.092547  0.146864  0  2.763552  0
S  S142  1  0.97296934  0.80363383  0.40195807  1  0.301691  0  0.090522  0.142951  0  2.734385  0
S  S143  1  0.77467147  0.94604195  0.34789940  1  0.301034  0  0.090347  0.143025  0  2.766947  0
S  S144  1  0.61627435  0.58944955  0.18743743  1  0.279358  0  0.08925  0.14091  0  2.734178  0
S  S145  1  0.63437001  0.65979131  0.06120967  1  0.279912  0  0.091371  0.144512  0  2.76241  0
S  S146  1  0.01364747  0.18228367  0.11177859  1  0.319928  0  0.091048  0.143459  0  2.732162  0
S  S147  1  0.23808938  0.06624045  0.13972635  1  0.311317  0  0.089056  0.141424  0  2.76688  0
S  S148  1  0.27688416  0.44609431  0.84803535  1  0.278758  0  0.088838  0.140427  0  2.735514  0
S  S149  1  0.47528405  0.30375925  0.90203847  1  0.291694  0  0.090804  0.144098  0  2.76413  0
S  S150  1  0.95104148  0.92364025  0.85288886  1  0.294232  0  0.089765  0.14174  0  2.733244  0
S  S151  1  0.79871067  0.82366723  0.89708200  1  0.3052  0  0.090784  0.144482  0  2.765191  0
Cl  Cl152  1  0.28562155  0.54364056  0.41111794  1  -0.156291  0  0.011134  -0.024661  0  1.495655  0
Cl  Cl153  1  0.79002696  0.53158012  0.66482780  1  -0.15027  0  0.010398  -0.025926  0  1.498308  0
Cl  Cl154  1  0.03188320  0.28955223  0.66466380  1  -0.163624  0  0.009995  -0.026457  0  1.497601  0
Cl  Cl155  1  0.76867801  0.77615317  0.40157175  1  -0.153529  0  0.01134  -0.024281  0  1.496139  0
Cl  Cl156  1  0.71778893  0.45997843  0.08529969  1  -0.16098  0  0.010476  -0.025308  0  1.496173  0
Cl  Cl157  1  0.10249361  0.09424091  0.22768911  1  -0.160717  0  0.006143  -0.03086  0  1.493753  0
Cl  Cl158  1  0.48117435  0.47366370  0.84824193  1  -0.155181  0  0.009352  -0.027012  0  1.494707  0
Cl  Cl159  1  0.96442547  0.70601603  0.83907237  1  -0.158559  0  0.008671  -0.02804  0  1.49489  0
O  O160  1  0.00069061  0.49856106  0.49987515  1  -1.23184  0  -0.571389  -1.028041  0  2.532503  0
O  O161  1  0.07866188  0.31406569  0.52271128  1  -1.178698  0  -0.320886  -0.548562  0  2.321852  0
O  O162  1  0.03144719  0.53165679  0.58535900  1  -1.151185  0  -0.30855  -0.531352  0  2.342552  0
O  O163  1  0.15484115  0.50547641  0.45036950  1  -1.167041  0  -0.317325  -0.543469  0  2.380943  0
O  O164  1  0.02638128  0.37497566  0.58027652  1  -1.170541  0  -0.315796  -0.54035  0  2.381232  0
O  O165  1  0.15436625  0.39102089  0.44634645  1  -1.178647  0  -0.320582  -0.548891  0  2.321592  0
O  O166  1  0.08489180  0.58638445  0.53028721  1  -1.181422  0  -0.31148  -0.560081  0  2.370013  0
O  O167  1  0.00409138  0.65837118  0.45007052  1  -1.165321  0  -0.32161  -0.546936  0  2.326252  0
O  O168  1  0.88673178  0.49645493  0.44238907  1  -1.17263  0  -0.312017  -0.559667  0  2.372206  0
O  O169  1  0.89199892  0.65155537  0.44740538  1  -1.160888  0  -0.317  -0.543738  0  2.378336  0
O  O170  1  0.99588554  0.38741925  0.44185547  1  -1.171911  0  -0.309381  -0.535089  0  2.336518  0
O  O171  1  0.87573670  0.52632997  0.58038015  1  -1.158026  0  -0.314698  -0.539583  0  2.381945  0
O  O172  1  0.81428164  0.57752257  0.52289626  1  -1.173278  0  -0.322206  -0.547437  0  2.328892  0
O  O173  1  0.74941046  0.25054239  0.25080186  1  -1.218869  0  -0.570349  -1.028136  0  2.525768  0
O  O174  1  0.59630857  0.35835843  0.30314191  1  -1.180721  0  -0.31757  -0.544551  0  2.331378  0
O  O175  1  0.66464976  0.16445179  0.21900388  1  -1.176398  0  -0.309931  -0.534628  0  2.335339  0
O  O176  1  0.72511830  0.37426998  0.16992246  1  -1.161844  0  -0.318146  -0.545022  0  2.375826  0
O  O177  1  0.59281904  0.24474089  0.30016727  1  -1.173584  0  -0.315839  -0.538899  0  2.310757  0
O  O178  1  0.67190741  0.43561212  0.22725648  1  -1.176901  0  -0.319671  -0.545754  0  2.323091  0
O  O179  1  0.72035362  0.21865323  0.16479701  1  -1.160699  0  -0.310774  -0.559113  0  2.365366  0
O  O180  1  0.87718230  0.22292263  0.16898862  1  -1.161306  0  -0.322095  -0.547482  0  2.321324  0
O  O181  1  0.86204238  0.25454263  0.30929637  1  -1.1733  0  -0.313245  -0.543934  0  2.341856  0
O  O182  1  0.93259947  0.17309546  0.22844700  1  -1.138692  0  -0.315854  -0.543091  0  2.373909  0
O  O183  1  0.75315535  0.36418240  0.30837426  1  -1.173169  0  -0.312551  -0.543371  0  2.338727  0
O  O184  1  0.74505840  0.09335407  0.30010364  1  -1.173509  0  -0.319793  -0.547394  0  2.33147  0
O  O185  1  0.85840830  0.09685236  0.30402623  1  -1.153557  0  -0.314456  -0.535337  0  2.312652  0
O  O186  1  0.24983781  0.74967485  0.74949666  1  -1.21884  0  -0.57056  -1.028458  0  2.527883  0
O  O187  1  0.37572129  0.72509368  0.66849202  1  -1.173222  0  -0.315026  -0.537109  0  2.31587  0
O  O188  1  0.36233726  0.75499256  0.80792509  1  -1.175594  0  -0.308128  -0.532194  0  2.339185  0
O  O189  1  0.17253511  0.93345792  0.72738480  1  -1.183727  0  -0.320372  -0.546829  0  2.332946  0
O  O190  1  0.43389412  0.67348903  0.72714196  1  -1.170461  0  -0.317637  -0.543123  0  2.334396  0
O  O191  1  0.22478202  0.87572389  0.66873057  1  -1.159757  0  -0.314878  -0.536896  0  2.314753  0
O  O192  1  0.25239563  0.86312869  0.80794520  1  -1.176961  0  -0.31136  -0.56067  0  2.363551  0
O  O193  1  0.09540908  0.85878217  0.80368050  1  -1.176623  0  -0.323495  -0.54966  0  2.323316  0
O  O194  1  0.16558400  0.66360552  0.71808944  1  -1.156434  0  -0.311699  -0.541815  0  2.338719  0
O  O195  1  0.09516733  0.74445003  0.79925947  1  -1.173065  0  -0.314775  -0.542239  0  2.3735  0
O  O196  1  0.21930296  0.71936781  0.66344053  1  -1.167437  0  -0.314234  -0.545129  0  2.341958  0
O  O197  1  0.35765261  0.59835553  0.80274586  1  -1.152876  0  -0.316372  -0.542716  0  2.376448  0
O  O198  1  0.24564183  0.59150152  0.79978110  1  -1.16804  0  -0.319722  -0.545002  0  2.323667  0
O  O199  1  0.50000348  0.00010819  0.99994991  1  -1.225798  0  -0.570088  -1.03004  0  2.521155  0
O  O200  1  0.50503019  0.15628618  0.94971496  1  -1.17199  0  -0.318551  -0.544518  0  2.332397  0
O  O201  1  0.38618164  0.99676250  0.94149581  1  -1.169728  0  -0.314022  -0.546284  0  2.338718  0
O  O202  1  0.65294078  0.89190186  0.94661273  1  -1.155789  0  -0.318323  -0.544797  0  2.329343  0
O  O203  1  0.39084423  0.15367193  0.94684727  1  -1.156444  0  -0.315821  -0.53741  0  2.310621  0
O  O204  1  0.65674732  0.00524904  0.94979242  1  -1.17242  0  -0.315085  -0.53671  0  2.311431  0
O  O205  1  0.49539230  0.88750822  0.94135382  1  -1.174587  0  -0.312072  -0.542538  0  2.335371  0
O  O206  1  0.57713912  0.81632120  0.02246613  1  -1.184163  0  -0.317634  -0.543301  0  2.330436  0
O  O207  1  0.53165890  0.03157409  0.08563216  1  -1.170557  0  -0.312509  -0.543588  0  2.335932  0
O  O208  1  0.52605238  0.87439845  0.08105681  1  -1.174598  0  -0.315559  -0.537943  0  2.309874  0
O  O209  1  0.58631755  0.08602672  0.03082436  1  -1.175186  0  -0.312351  -0.543552  0  2.33751  0
O  O210  1  0.31557167  0.07811209  0.02238516  1  -1.141863  0  -0.314574  -0.536756  0  2.31278  0
O  O211  1  0.37449492  0.02589666  0.08076435  1  -1.174547  0  -0.31916  -0.546563  0  2.331277  0
O  O212  1  0.78199753  0.51800164  0.39977742  1  -1.152318  0  -0.355721  -0.443243  0  2.24167  0
O  O213  1  0.15942690  0.65929554  0.54079369  1  -1.154034  0  -0.355946  -0.443419  0  2.242982  0
O  O214  1  0.70881688  0.20902852  0.09101855  1  -1.157106  0  -0.354906  -0.44231  0  2.24363  0
O  O215  1  0.23188419  0.96831133  0.85000117  1  -1.142686  0  -0.355749  -0.443481  0  2.241179  0
