# generated using pymatgen
data_Zn5H26(C21O10)2
_symmetry_space_group_name_H-M   'P 1'
_cell_length_a   5.10793556
_cell_length_b   13.43953926
_cell_length_c   17.21335279
_cell_angle_alpha   96.98231993
_cell_angle_beta   104.79853208
_cell_angle_gamma   91.26074277
_symmetry_Int_Tables_number   1
_chemical_formula_structural   Zn5H26(C21O10)2
_chemical_formula_sum   'Zn5 H26 C42 O20'
_cell_volume   1132.26438199
_cell_formula_units_Z   1
loop_
 _symmetry_equiv_pos_site_id
 _symmetry_equiv_pos_as_xyz
  1  'x, y, z'
loop_
 _atom_site_type_symbol
 _atom_site_label
 _atom_site_symmetry_multiplicity
 _atom_site_fract_x
 _atom_site_fract_y
 _atom_site_fract_z
 _atom_site_occupancy
 _atom_site_pbe_bader_charge
 _atom_site_pbe_bader_spin_density
 _atom_site_pbe_cm5_charge
 _atom_site_pbe_ddec_charge
 _atom_site_pbe_ddec_spin_density
 _atom_site_pbe_ddec_sum_bond_order
 _atom_site_pbe_magmom
Zn  Zn0  1  0.92159596  0.10943857  0.39418322  1  1.303393  0  0.656533  0.964996  0  2.351636  0
Zn  Zn1  1  0.07847273  0.89056054  0.60583067  1  1.303748  0  0.656504  0.964966  0  2.351658  0
Zn  Zn2  1  0.26141522  0.00195460  0.30657946  1  1.325617  0  0.671558  0.985533  0  2.178897  0
Zn  Zn3  1  0.73857705  0.99804878  0.69342056  1  1.325559  0  0.671511  0.985439  0  2.178899  0
Zn  Zn4  1  0.50003609  0.00000116  0.50000082  1  1.360839  0  0.639449  1.045124  0  2.180011  0
H  H5  1  0.06373487  0.64527367  0.43903489  1  0.081735  0  0.106428  0.11102  0  0.987457  0
H  H6  1  0.93632034  0.35470278  0.56096153  1  0.081933  0  0.106443  0.11098  0  0.987581  0
H  H7  1  0.03979231  0.51484292  0.32162386  1  0.086163  0  0.105934  0.12376  0  1.012492  0
H  H8  1  0.96019624  0.48514529  0.67836238  1  0.086194  0  0.105887  0.123686  0  1.01258  0
H  H9  1  0.25352059  0.60932239  0.20401677  1  0.095841  0  0.108365  0.123818  0  0.997147  0
H  H10  1  0.74644921  0.39068666  0.79599723  1  0.095499  0  0.108368  0.123898  0  0.997352  0
H  H11  1  0.29666706  0.74983490  0.31672451  1  0.107447  0  0.106245  0.111738  0  0.998883  0
H  H12  1  0.70338419  0.25017576  0.68329784  1  0.107808  0  0.106273  0.111804  0  0.998928  0
H  H13  1  0.74359702  0.34268455  0.26745684  1  0.115413  0  0.113626  0.139782  0  0.995905  0
H  H14  1  0.25633435  0.65731021  0.73252990  1  0.115557  0  0.113639  0.139771  0  0.995968  0
H  H15  1  0.29423591  0.21825530  0.13414924  1  0.105576  0  0.113705  0.138846  0  0.995098  0
H  H16  1  0.70571621  0.78174156  0.86584035  1  0.105845  0  0.113696  0.138828  0  0.995239  0
H  H17  1  0.90443006  0.49199410  0.07482131  1  0.09913  0  0.11673  0.145358  0  0.995081  0
H  H18  1  0.09552221  0.50800351  0.92516835  1  0.099143  0  0.116732  0.145284  0  0.995088  0
H  H19  1  0.98063049  0.18040487  0.99430746  1  0.075023  0  0.105978  0.124417  0  1.007716  0
H  H20  1  0.01933391  0.81958217  0.00568623  1  0.075156  0  0.105989  0.124403  0  1.007793  0
H  H21  1  0.04284962  0.06066211  0.87966221  1  0.123023  0  0.107736  0.114019  0  0.99694  0
H  H22  1  0.95714426  0.93933138  0.12032893  1  0.123126  0  0.107762  0.114068  0  0.996866  0
H  H23  1  0.66741585  0.25864265  0.84880050  1  0.070105  0  0.102371  0.102599  0  1.038559  0
H  H24  1  0.33256135  0.74136542  0.15120233  1  0.069927  0  0.102354  0.102586  0  1.038443  0
H  H25  1  0.58463128  0.38589155  0.95764638  1  0.072568  0  0.106098  0.124344  0  1.00568  0
H  H26  1  0.41531386  0.61411759  0.04235714  1  0.072542  0  0.106078  0.124309  0  1.00573  0
H  H27  1  0.98441308  0.93050992  0.39923386  1  0.604181  0  0.296472  0.394528  0  0.920866  0
H  H28  1  0.01561263  0.06948868  0.60076874  1  0.60416  0  0.296432  0.394437  0  0.9209  0
H  H29  1  0.48752156  0.15324509  0.42130138  1  0.587231  0  0.299949  0.382838  0  0.923127  0
H  H30  1  0.51255336  0.84675822  0.57869589  1  0.586972  0  0.299909  0.382821  0  0.9231  0
C  C31  1  0.72440855  0.79511851  0.44883212  1  1.529409  0  0.211442  0.590996  0  4.195441  0
C  C32  1  0.27567049  0.20488410  0.55117061  1  1.529728  0  0.211378  0.590982  0  4.195099  0
C  C33  1  0.68665635  0.70803737  0.38433604  1  -0.031959  0  -0.036677  -0.081736  0  4.020047  0
C  C34  1  0.31339197  0.29196186  0.61567290  1  -0.031498  0  -0.036574  -0.081792  0  4.019867  0
C  C35  1  0.88828677  0.63837781  0.38661417  1  -0.002205  0  -0.081361  -0.061412  0  3.986978  0
C  C36  1  0.11173996  0.36160649  0.61338668  1  -0.002547  0  -0.081442  -0.061348  0  3.98702  0
C  C37  1  0.87392437  0.56436146  0.32134493  1  -0.040196  0  -0.10802  -0.219991  0  4.007578  0
C  C38  1  0.12605676  0.43562772  0.67865189  1  -0.03915  0  -0.10789  -0.219814  0  4.007568  0
C  C39  1  0.64849623  0.55810196  0.25422248  1  0.423023  0  0.091795  0.273283  0  4.029495  0
C  C40  1  0.35148133  0.44189857  0.74577798  1  0.42181  0  0.091902  0.273415  0  4.029065  0
C  C41  1  0.43260231  0.62032433  0.25513478  1  -0.039458  0  -0.099277  -0.199461  0  4.001871  0
C  C42  1  0.56740033  0.37967835  0.74487522  1  -0.039292  0  -0.099378  -0.19971  0  4.00191  0
C  C43  1  0.45596692  0.69711950  0.31837167  1  -0.014196  0  -0.079486  -0.058168  0  3.990019  0
C  C44  1  0.54407185  0.30288209  0.68163853  1  -0.014849  0  -0.079563  -0.058276  0  3.990182  0
C  C45  1  0.80926778  0.42603346  0.17347135  1  0.404886  0  0.083282  0.270699  0  4.074358  0
C  C46  1  0.19071924  0.57397445  0.82652578  1  0.404884  0  0.083144  0.270654  0  4.074257  0
C  C47  1  0.84729841  0.34756329  0.22011948  1  -0.006556  0  -0.095901  -0.227788  0  3.968023  0
C  C48  1  0.15265707  0.65243958  0.77987261  1  -0.006076  0  -0.095802  -0.227727  0  3.968075  0
C  C49  1  0.02242339  0.27314982  0.20530132  1  -0.028257  0  -0.012992  0.011695  0  3.983362  0
C  C50  1  0.97753041  0.72684411  0.79469452  1  -0.029017  0  -0.01299  0.01186  0  3.983053  0
C  C51  1  0.15598831  0.27614421  0.14383870  1  0.020886  0  -0.09574  -0.229481  0  3.947654  0
C  C52  1  0.84396646  0.72385423  0.85615818  1  0.020086  0  -0.095774  -0.2298  0  3.94782  0
C  C53  1  0.10824762  0.35479292  0.09683732  1  0.415808  0  0.088457  0.275482  0  4.059063  0
C  C54  1  0.89173453  0.64521055  0.90316198  1  0.416501  0  0.08858  0.27592  0  4.058968  0
C  C55  1  0.93775572  0.43071596  0.11164036  1  0.078074  0  -0.096845  -0.289737  0  3.942913  0
C  C56  1  0.06223263  0.56928821  0.88835887  1  0.078058  0  -0.096935  -0.289949  0  3.942871  0
C  C57  1  0.27939823  0.29051999  0.98221143  1  0.367932  0  0.086178  0.263928  0  4.034925  0
C  C58  1  0.72056085  0.70947920  0.01778816  1  0.367192  0  0.086209  0.263893  0  4.035066  0
C  C59  1  0.13056783  0.19804580  0.96238996  1  0.069535  0  -0.106225  -0.217145  0  4.002946  0
C  C60  1  0.86940597  0.80194789  0.03760265  1  0.069674  0  -0.106203  -0.216967  0  4.002878  0
C  C61  1  0.16629616  0.13077937  0.89799777  1  -0.084177  0  -0.078809  -0.054225  0  3.970222  0
C  C62  1  0.83369192  0.86921424  0.10199878  1  -0.084196  0  -0.078833  -0.054355  0  3.970196  0
C  C63  1  0.35578946  0.15318087  0.85552848  1  -0.006361  0  -0.031725  -0.071748  0  3.989545  0
C  C64  1  0.64421945  0.84682393  0.14447636  1  -0.006156  0  -0.031715  -0.071742  0  3.989727  0
C  C65  1  0.51379711  0.24363220  0.87984209  1  0.00464  0  -0.084404  -0.065799  0  4.009954  0
C  C66  1  0.48618754  0.75637351  0.12015758  1  0.003967  0  -0.084395  -0.065813  0  4.009732  0
C  C67  1  0.47264944  0.31323169  0.94133501  1  -0.027049  0  -0.108756  -0.210691  0  4.004937  0
C  C68  1  0.52731328  0.68676665  0.05865953  1  -0.026576  0  -0.108744  -0.210605  0  4.00515  0
C  C69  1  0.06175215  0.19044304  0.25741139  1  1.560756  0  0.221184  0.598241  0  4.150168  0
C  C70  1  0.93819496  0.80955700  0.74258740  1  1.560665  0  0.221091  0.598086  0  4.150644  0
C  C71  1  0.38772172  0.08474236  0.78399586  1  1.531419  0  0.218196  0.61086  0  4.149069  0
C  C72  1  0.61230772  0.91526518  0.21600372  1  1.531848  0  0.218191  0.610735  0  4.149415  0
O  O73  1  0.61757322  0.87691670  0.42957857  1  -1.18792  0  -0.319596  -0.583804  0  2.331835  0
O  O74  1  0.38253824  0.12308706  0.57042138  1  -1.188132  0  -0.319741  -0.583861  0  2.331582  0
O  O75  1  0.86831651  0.78342940  0.51953639  1  -1.191679  0  -0.331641  -0.573255  0  2.329554  0
O  O76  1  0.13176457  0.21657320  0.48046708  1  -1.192028  0  -0.331488  -0.57315  0  2.329773  0
O  O77  1  0.62466840  0.49807470  0.18187443  1  -1.104427  0  -0.145682  -0.213402  0  2.608918  0
O  O78  1  0.37531455  0.50193253  0.81812525  1  -1.103917  0  -0.145647  -0.213269  0  2.60868  0
O  O79  1  0.23810142  0.36838998  0.03733066  1  -1.10454  0  -0.148035  -0.213974  0  2.601605  0
O  O80  1  0.76186275  0.63160535  0.96266489  1  -1.104593  0  -0.148148  -0.214156  0  2.601538  0
O  O81  1  0.20126980  0.02024529  0.74546040  1  -1.199597  0  -0.31593  -0.591676  0  2.324679  0
O  O82  1  0.79879566  0.97976182  0.25453361  1  -1.199772  0  -0.316036  -0.591694  0  2.324405  0
O  O83  1  0.61422290  0.09717393  0.76488630  1  -1.154047  0  -0.319416  -0.55973  0  2.366818  0
O  O84  1  0.38582845  0.90285144  0.23511467  1  -1.15419  0  -0.319318  -0.559593  0  2.367376  0
O  O85  1  0.22421617  0.12309075  0.24617910  1  -1.153824  0  -0.309614  -0.539433  0  2.308737  0
O  O86  1  0.77571329  0.87691102  0.75382380  1  -1.153754  0  -0.309578  -0.539378  0  2.308713  0
O  O87  1  0.92694252  0.19552898  0.31061772  1  -1.154318  0  -0.314496  -0.540524  0  2.380002  0
O  O88  1  0.07299790  0.80447648  0.68938745  1  -1.154258  0  -0.314399  -0.540369  0  2.380536  0
O  O89  1  0.12451761  0.98422379  0.40681138  1  -1.208029  0  -0.559484  -0.857666  0  2.291376  0
O  O90  1  0.87552886  0.01576785  0.59319095  1  -1.208364  0  -0.559435  -0.857621  0  2.291563  0
O  O91  1  0.56361608  0.08837258  0.41123566  1  -1.200132  0  -0.557847  -0.84446  0  2.252595  0
O  O92  1  0.43644416  0.91162578  0.58877290  1  -1.199951  0  -0.5578  -0.844436  0  2.252757  0
