# generated using pymatgen
data_ZnH12C14N6O7
_symmetry_space_group_name_H-M   'P 1'
_cell_length_a   9.61186548
_cell_length_b   9.60140627
_cell_length_c   10.19714592
_cell_angle_alpha   83.12865419
_cell_angle_beta   68.53854381
_cell_angle_gamma   74.46336297
_symmetry_Int_Tables_number   1
_chemical_formula_structural   ZnH12C14N6O7
_chemical_formula_sum   'Zn2 H24 C28 N12 O14'
_cell_volume   843.56963787
_cell_formula_units_Z   2
loop_
 _symmetry_equiv_pos_site_id
 _symmetry_equiv_pos_as_xyz
  1  'x, y, z'
loop_
 _atom_site_type_symbol
 _atom_site_label
 _atom_site_symmetry_multiplicity
 _atom_site_fract_x
 _atom_site_fract_y
 _atom_site_fract_z
 _atom_site_occupancy
 _atom_site_hle17_bader_spin_density
 _atom_site_hle17_ddec_charge
 _atom_site_hle17_ddec_spin_density
 _atom_site_hle17_ddec_sum_bond_order
 _atom_site_hle17_magmom
 _atom_site_hse06_10hf_bader_spin_density
 _atom_site_hse06_10hf_ddec_charge
 _atom_site_hse06_10hf_ddec_spin_density
 _atom_site_hse06_10hf_ddec_sum_bond_order
 _atom_site_hse06_10hf_magmom
 _atom_site_hse06_bader_spin_density
 _atom_site_hse06_ddec_charge
 _atom_site_hse06_ddec_spin_density
 _atom_site_hse06_ddec_sum_bond_order
 _atom_site_hse06_magmom
 _atom_site_pbe_bader_spin_density
 _atom_site_pbe_cm5_charge
 _atom_site_pbe_ddec_charge
 _atom_site_pbe_ddec_spin_density
 _atom_site_pbe_ddec_sum_bond_order
 _atom_site_pbe_magmom
Zn  Zn0  1  0.30302900  0.39453319  0.03202395  1  0  1.142385  0  1.740303  0  0  0.951846  0  2.230273  0  0  1.001821  0  2.167311  0  0  0.706685  0.914717  0  2.275767  0
Zn  Zn1  1  0.69696092  0.60547867  0.96797659  1  0  1.14236  0  1.740197  0  0  0.951864  0  2.230181  0  0  1.001843  0  2.167216  0  0  0.706703  0.914729  0  2.275681  0
H  H2  1  0.41858318  0.02345992  0.18388725  1  0  0.428185  0  0.872481  0  0  0.397352  0  0.935373  0  0  0.407775  0  0.920091  0  0  0.284323  0.389937  0  0.946197  0
H  H3  1  0.58141834  0.97653915  0.81610500  1  0  0.428183  0  0.872469  0  0  0.397338  0  0.935385  0  0  0.407763  0  0.9201  0  0  0.284335  0.389924  0  0.946208  0
H  H4  1  0.47278225  0.14969294  0.22843959  1  0  0.428686  0  0.849894  0  0  0.401793  0  0.91114  0  0  0.411088  0  0.897414  0  0  0.295474  0.395053  0  0.921106  0
H  H5  1  0.52721753  0.85030825  0.77155202  1  0  0.428661  0  0.849895  0  0  0.401748  0  0.9112  0  0  0.411044  0  0.897474  0  0  0.295444  0.395007  0  0.921167  0
H  H6  1  0.58085472  0.67925442  0.41200832  1  0  0.348576  0  0.849802  0  0  0.340972  0  0.895613  0  0  0.347725  0  0.889898  0  0  0.327933  0.336168  0  0.899739  0
H  H7  1  0.41915480  0.32073633  0.58799301  1  0  0.348595  0  0.849737  0  0  0.340981  0  0.895568  0  0  0.34774  0  0.889851  0  0  0.327943  0.336171  0  0.899694  0
H  H8  1  0.68071973  0.55591635  0.27234180  1  0  0.36127  0  0.903348  0  0  0.337289  0  0.97315  0  0  0.3467  0  0.964527  0  0  0.301146  0.330697  0  0.979234  0
H  H9  1  0.31928900  0.44408091  0.72765801  1  0  0.361246  0  0.903365  0  0  0.337276  0  0.973152  0  0  0.346687  0  0.964531  0  0  0.301119  0.330685  0  0.979233  0
H  H10  1  0.95178224  0.45254215  0.22645805  1  0  0.33376  0  0.932019  0  0  0.308106  0  0.999279  0  0  0.318887  0  0.990399  0  0  0.308799  0.300618  0  1.005346  0
H  H11  1  0.04822569  0.54744638  0.77354508  1  0  0.333781  0  0.931991  0  0  0.308089  0  0.999307  0  0  0.318901  0  0.990362  0  0  0.308824  0.300601  0  1.005371  0
H  H12  1  0.78730804  0.83591878  0.66419064  1  0  0.358909  0  0.917492  0  0  0.337188  0  0.983805  0  0  0.346826  0  0.975349  0  0  0.293803  0.330354  0  0.989804  0
H  H13  1  0.21269849  0.16407835  0.33580602  1  0  0.359033  0  0.917264  0  0  0.337296  0  0.983611  0  0  0.346935  0  0.975152  0  0  0.293842  0.330462  0  0.989611  0
H  H14  1  0.98451839  0.78484586  0.64152914  1  0  0.333885  0  0.900096  0  0  0.318627  0  0.958257  0  0  0.326287  0  0.95221  0  0  0.305471  0.313107  0  0.962804  0
H  H15  1  0.01548591  0.21515122  0.35847024  1  0  0.33388  0  0.900129  0  0  0.318615  0  0.958278  0  0  0.326275  0  0.952233  0  0  0.305454  0.313063  0  0.962876  0
H  H16  1  0.26486877  0.65964681  0.44972362  1  0  0.325126  0  0.829359  0  0  0.319569  0  0.865497  0  0  0.325797  0  0.862118  0  0  0.355793  0.315082  0  0.868203  0
H  H17  1  0.73514205  0.34035481  0.55026906  1  0  0.325187  0  0.829322  0  0  0.319611  0  0.86546  0  0  0.325836  0  0.86209  0  0  0.355793  0.315123  0  0.868169  0
H  H18  1  0.43677042  0.49004075  0.24779802  1  0  0.117958  0  0.948965  0  0  0.122388  0  1.013572  0  0  0.126541  0  1.008466  0  0  0.146874  0.119159  0  1.017641  0
H  H19  1  0.56323978  0.50996300  0.75219265  1  0  0.117906  0  0.949116  0  0  0.122342  0  1.013678  0  0  0.126488  0  1.008581  0  0  0.146876  0.119112  0  1.017746  0
H  H20  1  0.79430246  0.90717092  0.15573482  1  0  0.112004  0  0.924237  0  0  0.124423  0  0.978296  0  0  0.128042  0  0.975926  0  0  0.11195  0.121926  0  0.979668  0
H  H21  1  0.20569054  0.09283791  0.84427582  1  0  0.112024  0  0.924261  0  0  0.124441  0  0.978351  0  0  0.128058  0  0.975987  0  0  0.111973  0.121948  0  0.979722  0
H  H22  1  0.88657138  0.02414454  0.30225809  1  0  0.100907  0  0.931961  0  0  0.112203  0  0.987882  0  0  0.116285  0  0.985492  0  0  0.10264  0.109166  0  0.99005  0
H  H23  1  0.11342606  0.97585682  0.69775294  1  0  0.100841  0  0.932118  0  0  0.112156  0  0.988005  0  0  0.116228  0  0.985629  0  0  0.102616  0.109123  0  0.990169  0
H  H24  1  0.17065738  0.96178177  0.26203954  1  0  0.095039  0  0.962604  0  0  0.106293  0  1.025215  0  0  0.109654  0  1.022914  0  0  0.103096  0.103896  0  1.026553  0
H  H25  1  0.82934362  0.03821517  0.73795806  1  0  0.095019  0  0.962667  0  0  0.106268  0  1.025288  0  0  0.10963  0  1.022986  0  0  0.103095  0.103876  0  1.026618  0
C  C26  1  0.80857959  0.62479760  0.36686022  1  0  0.67212  0  3.831054  0  0  0.610315  0  4.132692  0  0  0.639599  0  4.13666  0  0  0.358558  0.590646  0  4.129165  0
C  C27  1  0.19142534  0.37519736  0.63314216  1  0  0.672071  0  3.831313  0  0  0.610225  0  4.133013  0  0  0.639505  0  4.136987  0  0  0.358502  0.590554  0  4.129486  0
C  C28  1  0.07506944  0.55598047  0.29775077  1  0  0.354146  0  3.866994  0  0  0.31166  0  4.13806  0  0  0.327081  0  4.157243  0  0  0.223679  0.301577  0  4.12494  0
C  C29  1  0.92493645  0.44401885  0.70224780  1  0  0.354308  0  3.86656  0  0  0.311731  0  4.13777  0  0  0.327149  0  4.156956  0  0  0.22371  0.301648  0  4.124653  0
C  C30  1  0.07024578  0.63899078  0.40235709  1  0  -0.084397  0  3.76077  0  0  -0.086275  0  4.017939  0  0  -0.095182  0  4.040667  0  0  0.078556  -0.080664  0  4.002792  0
C  C31  1  0.92976138  0.36101184  0.59763966  1  0  -0.084537  0  3.760988  0  0  -0.086404  0  4.018178  0  0  -0.095306  0  4.040906  0  0  0.078506  -0.080789  0  4.003028  0
C  C32  1  0.92395156  0.71920019  0.49046199  1  0  0.486577  0  3.895491  0  0  0.445051  0  4.18049  0  0  0.470206  0  4.189212  0  0  0.249419  0.42842  0  4.174171  0
C  C33  1  0.07605608  0.28079701  0.50953625  1  0  0.486661  0  3.895404  0  0  0.445144  0  4.180389  0  0  0.470302  0  4.189106  0  0  0.249488  0.428513  0  4.174067  0
C  C34  1  0.31171122  0.52650873  0.28174455  1  0  0.314896  0  3.546258  0  0  0.243655  0  3.830353  0  0  0.263794  0  3.835561  0  0  0.183903  0.230589  0  3.826548  0
C  C35  1  0.68829137  0.47349044  0.71825223  1  0  0.314821  0  3.546583  0  0  0.243648  0  3.830541  0  0  0.263791  0  3.835758  0  0  0.183851  0.230591  0  3.826725  0
C  C36  1  0.23281589  0.82877805  0.08604125  1  0  -0.096782  0  3.735918  0  0  -0.079354  0  3.97179  0  0  -0.088167  0  3.995394  0  0  -0.022465  -0.073501  0  3.95563  0
C  C37  1  0.76717674  0.17122078  0.91395800  1  0  -0.096812  0  3.735787  0  0  -0.079376  0  3.971738  0  0  -0.088187  0  3.995346  0  0  -0.022469  -0.073525  0  3.95558  0
C  C38  1  0.18175698  0.77014987  0.99632793  1  0  -0.05836  0  3.653297  0  0  -0.054157  0  3.888127  0  0  -0.054402  0  3.906628  0  0  -0.000665  -0.055504  0  3.877735  0
C  C39  1  0.81823642  0.22985010  0.00367287  1  0  -0.058448  0  3.653434  0  0  -0.054298  0  3.888359  0  0  -0.054559  0  3.906887  0  0  -0.000741  -0.055645  0  3.877966  0
C  C40  1  0.02168187  0.79796309  0.02599783  1  0  -0.097512  0  3.742528  0  0  -0.079992  0  3.978731  0  0  -0.088963  0  4.002137  0  0  -0.019846  -0.074765  0  3.964225  0
C  C41  1  0.97830466  0.20204114  0.97401363  1  0  -0.097634  0  3.742846  0  0  -0.080028  0  3.979044  0  0  -0.088993  0  4.002454  0  0  -0.019888  -0.074803  0  3.964543  0
C  C42  1  0.91698550  0.88747337  0.13688337  1  0  -0.040303  0  3.703688  0  0  -0.070591  0  3.961496  0  0  -0.068424  0  3.980276  0  0  -0.076829  -0.070561  0  3.947793  0
C  C43  1  0.08300736  0.11253216  0.86312576  1  0  -0.040208  0  3.703473  0  0  -0.070576  0  3.961353  0  0  -0.068407  0  3.980121  0  0  -0.076809  -0.070551  0  3.947656  0
C  C44  1  0.96908800  0.95150410  0.21922821  1  0  -0.071256  0  3.768298  0  0  -0.088508  0  4.036371  0  0  -0.091924  0  4.056005  0  0  -0.094543  -0.086699  0  4.022843  0
C  C45  1  0.03090438  0.04849925  0.78078234  1  0  -0.07137  0  3.768316  0  0  -0.088605  0  4.036414  0  0  -0.092015  0  4.056048  0  0  -0.094643  -0.086798  0  4.022887  0
C  C46  1  0.12650338  0.91978627  0.19468443  1  0  -0.06256  0  3.731413  0  0  -0.092386  0  3.988952  0  0  -0.090474  0  4.008194  0  0  -0.0876  -0.091865  0  3.974235  0
C  C47  1  0.87349429  0.08021057  0.80531530  1  0  -0.062364  0  3.731317  0  0  -0.092168  0  3.988798  0  0  -0.090251  0  4.008029  0  0  -0.087487  -0.091659  0  3.974094  0
C  C48  1  0.39782561  0.78371603  0.07812326  1  0  0.647916  0  3.931903  0  0  0.593235  0  4.230344  0  0  0.627085  0  4.224369  0  0  0.204003  0.570112  0  4.233917  0
C  C49  1  0.60216606  0.21628604  0.92187592  1  0  0.648043  0  3.931974  0  0  0.593289  0  4.230492  0  0  0.627141  0  4.224516  0  0  0.204055  0.570164  0  4.234067  0
C  C50  1  0.29553756  0.68337261  0.86859862  1  0  0.694903  0  3.889017  0  0  0.634219  0  4.20454  0  0  0.669732  0  4.192883  0  0  0.209628  0.61036  0  4.211282  0
C  C51  1  0.70445826  0.31662299  0.13139601  1  0  0.695022  0  3.888709  0  0  0.634282  0  4.204364  0  0  0.669796  0  4.19271  0  0  0.209696  0.610425  0  4.211109  0
C  C52  1  0.95767196  0.73014991  0.94366182  1  0  0.676122  0  3.86961  0  0  0.621202  0  4.165968  0  0  0.655905  0  4.15792  0  0  0.219701  0.597793  0  4.170602  0
C  C53  1  0.04231869  0.26985554  0.05634710  1  0  0.67583  0  3.869938  0  0  0.620905  0  4.166324  0  0  0.655607  0  4.158279  0  0  0.219594  0.597495  0  4.170957  0
N  N54  1  0.79814804  0.71117242  0.46482780  1  0  -0.552186  0  2.949703  0  0  -0.51574  0  3.227287  0  0  -0.538729  0  3.233737  0  0  -0.343207  -0.50013  0  3.222541  0
N  N55  1  0.20185751  0.28882038  0.53517463  1  0  -0.552118  0  2.949621  0  0  -0.515681  0  3.227262  0  0  -0.538672  0  3.233711  0  0  -0.34313  -0.500071  0  3.222517  0
N  N56  1  0.67864812  0.60881430  0.35595533  1  0  -0.68604  0  3.024605  0  0  -0.656834  0  3.264402  0  0  -0.676759  0  3.255972  0  0  -0.561721  -0.642846  0  3.270145  0
N  N57  1  0.32135808  0.39117633  0.64404617  1  0  -0.686  0  3.024572  0  0  -0.656769  0  3.264369  0  0  -0.6767  0  3.255947  0  0  -0.561661  -0.642771  0  3.270108  0
N  N58  1  0.94565785  0.54472685  0.27981466  1  0  -0.476554  0  3.307994  0  0  -0.411159  0  3.54714  0  0  -0.433686  0  3.554546  0  0  -0.374331  -0.39587  0  3.541787  0
N  N59  1  0.05435088  0.45527039  0.72018418  1  0  -0.476616  0  3.307972  0  0  -0.41121  0  3.547304  0  0  -0.43375  0  3.554673  0  0  -0.37442  -0.39592  0  3.541952  0
N  N60  1  0.90256832  0.80076617  0.59627164  1  0  -0.64032  0  3.072143  0  0  -0.602866  0  3.307986  0  0  -0.625532  0  3.304331  0  0  -0.555257  -0.587665  0  3.310428  0
N  N61  1  0.09743870  0.19923315  0.40372361  1  0  -0.640436  0  3.071909  0  0  -0.602952  0  3.307729  0  0  -0.625619  0  3.304071  0  0  -0.555296  -0.587723  0  3.310222  0
N  N62  1  0.22371954  0.61745923  0.38899493  1  0  -0.290281  0  3.396374  0  0  -0.235896  0  3.638271  0  0  -0.250187  0  3.650489  0  0  -0.363303  -0.226426  0  3.63039  0
N  N63  1  0.77628683  0.38254228  0.61100223  1  0  -0.290342  0  3.396572  0  0  -0.235936  0  3.638409  0  0  -0.25024  0  3.650648  0  0  -0.363289  -0.226467  0  3.630522  0
N  N64  1  0.22375296  0.48814324  0.22268648  1  0  -0.465373  0  3.158982  0  0  -0.388808  0  3.46949  0  0  -0.411318  0  3.473496  0  0  -0.342315  -0.373228  0  3.466195  0
N  N65  1  0.77625026  0.51185378  0.77731132  1  0  -0.465312  0  3.158819  0  0  -0.388749  0  3.469345  0  0  -0.411254  0  3.473344  0  0  -0.342294  -0.373176  0  3.466048  0
O  O66  1  0.47733459  0.66964527  0.00464330  1  0  -0.659908  0  2.146521  0  0  -0.576824  0  2.430388  0  0  -0.609251  0  2.418498  0  0  -0.320359  -0.553943  0  2.438101  0
O  O67  1  0.52265966  0.33036332  0.99534634  1  0  -0.660054  0  2.146709  0  0  -0.576824  0  2.43049  0  0  -0.609248  0  2.418598  0  0  -0.32034  -0.553943  0  2.438205  0
O  O68  1  0.44832711  0.84696282  0.14516558  1  0  -0.626559  0  1.946483  0  0  -0.575676  0  2.164523  0  0  -0.597691  0  2.153062  0  0  -0.325776  -0.560131  0  2.172429  0
O  O69  1  0.55166486  0.15303821  0.85483656  1  0  -0.626579  0  1.946549  0  0  -0.57569  0  2.164638  0  0  -0.597706  0  2.153174  0  0  -0.325815  -0.560145  0  2.172544  0
O  O70  1  0.30837528  0.54418045  0.87318636  1  0  -0.713145  0  2.095664  0  0  -0.633099  0  2.374052  0  0  -0.6633  0  2.356328  0  0  -0.339483  -0.611779  0  2.385779  0
O  O71  1  0.69162243  0.45581631  0.12680748  1  0  -0.713202  0  2.095476  0  0  -0.633123  0  2.373867  0  0  -0.66333  0  2.356157  0  0  -0.339504  -0.61179  0  2.385562  0
O  O72  1  0.36724362  0.74916116  0.76351985  1  0  -0.608341  0  1.866747  0  0  -0.567512  0  2.082791  0  0  -0.590695  0  2.071866  0  0  -0.328719  -0.551483  0  2.090073  0
O  O73  1  0.63275221  0.25083440  0.23647184  1  0  -0.608384  0  1.866749  0  0  -0.567534  0  2.082818  0  0  -0.590723  0  2.071911  0  0  -0.328763  -0.551507  0  2.090099  0
O  O74  1  0.03470565  0.70190829  0.81504309  1  0  -0.627676  0  2.032542  0  0  -0.572076  0  2.258206  0  0  -0.595986  0  2.249462  0  0  -0.316012  -0.555232  0  2.263849  0
O  O75  1  0.96528910  0.29809078  0.18496815  1  0  -0.627457  0  2.032617  0  0  -0.571919  0  2.258299  0  0  -0.595813  0  2.249574  0  0  -0.315886  -0.555071  0  2.263937  0
O  O76  1  0.82643267  0.70299802  0.01378174  1  0  -0.637591  0  2.08943  0  0  -0.563883  0  2.379204  0  0  -0.591915  0  2.360724  0  0  -0.316358  -0.544593  0  2.392276  0
O  O77  1  0.17355515  0.29700948  0.98622594  1  0  -0.637403  0  2.089563  0  0  -0.563636  0  2.379208  0  0  -0.591665  0  2.360735  0  0  -0.316297  -0.544347  0  2.392279  0
O  O78  1  0.38636061  0.12533267  0.21451526  1  0  -0.838237  0  1.832708  0  0  -0.785794  0  1.993651  0  0  -0.804297  0  1.964298  0  0  -0.582671  -0.772538  0  2.014777  0
O  O79  1  0.61363819  0.87466418  0.78548212  1  0  -0.838184  0  1.832658  0  0  -0.785722  0  1.993618  0  0  -0.804228  0  1.964262  0  0  -0.582658  -0.772465  0  2.01474  0
