# generated using pymatgen
data_CuH16C18SN4O7
_symmetry_space_group_name_H-M   'P 1'
_cell_length_a   10.45889992
_cell_length_b   10.90764461
_cell_length_c   11.72218712
_cell_angle_alpha   64.91132339
_cell_angle_beta   77.79103899
_cell_angle_gamma   68.25132273
_symmetry_Int_Tables_number   1
_chemical_formula_structural   CuH16C18SN4O7
_chemical_formula_sum   'Cu2 H32 C36 S2 N8 O14'
_cell_volume   1122.55887281
_cell_formula_units_Z   2
loop_
 _symmetry_equiv_pos_site_id
 _symmetry_equiv_pos_as_xyz
  1  'x, y, z'
loop_
 _atom_site_type_symbol
 _atom_site_label
 _atom_site_symmetry_multiplicity
 _atom_site_fract_x
 _atom_site_fract_y
 _atom_site_fract_z
 _atom_site_occupancy
 _atom_site_hle17_ddec_charge
 _atom_site_hle17_ddec_spin_density
 _atom_site_hle17_ddec_sum_bond_order
 _atom_site_hle17_magmom
 _atom_site_hse06_10hf_ddec_charge
 _atom_site_hse06_10hf_ddec_spin_density
 _atom_site_hse06_10hf_ddec_sum_bond_order
 _atom_site_hse06_10hf_magmom
 _atom_site_hse06_ddec_charge
 _atom_site_hse06_ddec_spin_density
 _atom_site_hse06_ddec_sum_bond_order
 _atom_site_hse06_magmom
 _atom_site_pbe_cm5_charge
 _atom_site_pbe_ddec_charge
 _atom_site_pbe_ddec_spin_density
 _atom_site_pbe_ddec_sum_bond_order
 _atom_site_pbe_magmom
Cu  Cu0  1  0.37404257  0.32759175  0.12796224  1  0.895059  -0.7409  1.763794  -0.519  0.872463  -0.816941  2.154448  -0.633  0.958763  -0.890029  2.089313  -0.715  0.746281  0.815855  -0.761987  2.202158  -0.577
Cu  Cu1  1  0.62595481  0.67241085  0.87203894  1  0.895166  0.740887  1.763625  0.519  0.8725  0.816942  2.15436  0.633  0.958852  0.890024  2.089114  0.715  0.746273  0.815896  0.761982  2.202064  0.577
H  H2  1  0.36039668  0.67069678  0.30719576  1  0.305602  2.9e-05  0.935571  0.0  0.281337  1.8e-05  1.008788  0.0  0.28986  1.2e-05  1.002421  0.0  0.302757  0.275334  -1e-05  1.013157  0.0
H  H3  1  0.63960753  0.32930250  0.69280559  1  0.305591  -3.1e-05  0.935552  0.0  0.281331  -1.9e-05  1.008758  0.0  0.289855  -1.2e-05  1.002393  0.0  0.302748  0.275327  1e-05  1.013128  0.0
H  H4  1  0.11309044  0.58716265  0.21264401  1  0.303573  4.9e-05  0.930568  0.0  0.282996  4.1e-05  0.998362  0.0  0.291205  3.9e-05  0.992274  0.0  0.302296  0.277054  3.2e-05  1.002849  0.0
H  H5  1  0.88690990  0.41283988  0.78735670  1  0.30359  -4.9e-05  0.930546  0.0  0.283034  -4.2e-05  0.998319  0.0  0.291241  -3.9e-05  0.992233  0.0  0.302327  0.27709  -3.2e-05  1.002807  0.0
H  H6  1  0.57373281  0.26075119  0.25393680  1  0.436227  0.000643  0.792729  0.001  0.426441  -5.9e-05  0.835564  0.0  0.435452  8.5e-05  0.827246  0.0  0.33409  0.419774  -0.000179  0.842031  0.0
H  H7  1  0.42626967  0.73925119  0.74605762  1  0.436206  -0.000643  0.792751  -0.001  0.426466  5.9e-05  0.83551  0.0  0.435478  -8.6e-05  0.827193  0.0  0.334092  0.419802  0.000179  0.841978  0.0
H  H8  1  0.46700380  0.41007764  0.25287212  1  0.434114  0.000455  0.872173  0.001  0.4008  -0.00018  0.940296  0.0  0.413162  -7.7e-05  0.9229  0.0  0.291875  0.391971  -0.000274  0.952683  0.0
H  H9  1  0.53300142  0.58992160  0.74712822  1  0.434093  -0.000456  0.87219  -0.001  0.400783  0.000179  0.940309  0.0  0.413144  7.7e-05  0.922912  0.0  0.291867  0.391955  0.000274  0.952693  0.0
H  H10  1  0.42722315  0.09888784  0.04295927  1  0.08655  -0.001168  0.940699  -0.002  0.094893  -0.001043  1.003626  -0.001  0.09618  -0.000755  1.002348  -0.001  0.12125  0.093602  -0.001185  1.004859  -0.001
H  H11  1  0.57276998  0.90111270  0.95704176  1  0.086431  0.001166  0.940763  0.002  0.094797  0.001044  1.003656  0.001  0.096081  0.000756  1.002387  0.001  0.121244  0.093506  0.001186  1.004887  0.001
H  H12  1  0.40460643  0.85538702  0.13326352  1  0.132206  -0.000808  0.963983  -0.001  0.139151  -0.000639  1.027077  -0.001  0.142961  -0.000435  1.025422  0.0  0.112423  0.135726  -0.000632  1.029325  -0.001
H  H13  1  0.59538996  0.14461239  0.86673741  1  0.132199  0.000805  0.964025  0.001  0.139145  0.000639  1.027114  0.001  0.142953  0.000434  1.025461  0.0  0.112413  0.13572  0.000632  1.02936  0.001
H  H14  1  0.32134499  0.88588150  0.49990793  1  0.13637  -0.000659  0.958137  -0.001  0.143378  -0.000496  1.014696  -0.001  0.148006  -0.000346  1.012069  0.0  0.114735  0.139847  -0.000532  1.016974  -0.001
H  H15  1  0.67865232  0.11412115  0.50009580  1  0.136399  0.000651  0.958208  0.001  0.143408  0.000495  1.014755  0.001  0.148035  0.000346  1.012128  0.0  0.114775  0.139875  0.000532  1.017031  0.001
H  H16  1  0.34601574  0.12961653  0.39263116  1  0.083609  -0.00107  0.955131  -0.002  0.089232  -0.000893  1.022945  -0.002  0.090452  -0.000632  1.021456  -0.001  0.117469  0.088297  -0.001103  1.024025  -0.002
H  H17  1  0.65398985  0.87038160  0.60736786  1  0.083595  0.001068  0.955135  0.002  0.089215  0.000893  1.022954  0.002  0.090434  0.000631  1.021465  0.001  0.117461  0.088281  0.001103  1.024035  0.002
H  H18  1  0.37906921  0.37896611  0.68892096  1  0.103339  -4e-06  0.952798  0.0  0.110368  -1e-05  1.019965  0.0  0.11346  -7e-06  1.018032  0.0  0.107559  0.108103  -3e-06  1.021236  0.0
H  H19  1  0.62092823  0.62103001  0.31107684  1  0.103345  6e-06  0.952836  0.0  0.110436  1e-05  1.019909  0.0  0.113523  7e-06  1.017992  0.0  0.107572  0.108144  3e-06  1.021203  0.0
H  H20  1  0.31123056  0.16791451  0.72316897  1  0.096887  -1e-05  0.93688  0.0  0.109556  -1.4e-05  0.989016  0.0  0.112575  -1.1e-05  0.988778  0.0  0.104645  0.107385  -1.3e-05  0.989322  0.0
H  H21  1  0.68876923  0.83208046  0.27682634  1  0.09683  7e-06  0.93703  0.0  0.109554  1.4e-05  0.989105  0.0  0.112569  1.1e-05  0.988872  0.0  0.10465  0.107382  1.3e-05  0.989412  0.0
H  H22  1  0.17289442  0.18362294  0.56420118  1  0.104894  -1.6e-05  0.936101  0.0  0.115848  -2e-05  0.991267  0.0  0.119855  -1.8e-05  0.988027  0.0  0.110178  0.112889  -1.5e-05  0.993658  0.0
H  H23  1  0.82710721  0.81637937  0.43578915  1  0.104812  1.5e-05  0.936  0.0  0.115778  2e-05  0.991161  0.0  0.119786  1.7e-05  0.987922  0.0  0.110165  0.112817  1.5e-05  0.993549  0.0
H  H24  1  0.17343137  0.61470512  0.34356133  1  0.104278  -2.8e-05  0.978483  0.0  0.11337  -2.7e-05  1.041511  0.0  0.116902  -1.9e-05  1.038984  0.0  0.111476  0.110753  -4e-05  1.043485  0.0
H  H25  1  0.82656984  0.38529511  0.65643161  1  0.104315  2.5e-05  0.978542  0.0  0.113358  2.7e-05  1.041603  0.0  0.116886  1.9e-05  1.039083  0.0  0.111461  0.110743  4e-05  1.04358  0.0
H  H26  1  0.04128298  0.71181029  0.00845023  1  0.140786  0.000701  0.929759  0.001  0.151164  0.000562  0.981511  0.001  0.154763  0.000403  0.98028  0.0  0.117329  0.148312  0.000684  0.983031  0.001
H  H27  1  0.95871472  0.28819446  0.99155174  1  0.14081  -0.000696  0.929719  -0.001  0.151183  -0.000562  0.981481  -0.001  0.154781  -0.000404  0.980251  0.0  0.117322  0.148328  -0.000684  0.983005  -0.001
H  H28  1  0.86803562  0.77422576  0.85963717  1  0.08762  0.00114  0.930764  0.002  0.097063  0.00099  0.988193  0.001  0.098423  0.000701  0.987121  0.001  0.121397  0.09593  0.001207  0.988901  0.002
H  H29  1  0.13195675  0.22578023  0.14036863  1  0.087651  -0.001141  0.93072  -0.002  0.097092  -0.000991  0.988156  -0.001  0.098449  -0.000701  0.987083  -0.001  0.121392  0.095951  -0.001207  0.988866  -0.002
H  H30  1  0.67778601  0.48844982  0.12871583  1  0.100321  0.00147  0.951313  0.003  0.105376  0.001051  1.016363  0.002  0.107614  0.000714  1.012835  0.001  0.119699  0.103262  0.001329  1.019305  0.002
H  H31  1  0.32220868  0.51155181  0.87128790  1  0.100374  -0.001466  0.951309  -0.003  0.105453  -0.001052  1.016344  -0.002  0.107688  -0.000715  1.01282  -0.001  0.119735  0.103339  -0.001329  1.019288  -0.002
H  H32  1  0.85076374  0.40161698  0.28055176  1  0.136603  0.000522  0.991726  0.001  0.14065  0.0004  1.053319  0.001  0.144709  0.000266  1.051217  0.0  0.110874  0.137539  0.000513  1.055068  0.001
H  H33  1  0.14923658  0.59838234  0.71944853  1  0.13661  -0.000523  0.991706  -0.001  0.140664  -0.0004  1.053286  -0.001  0.144724  -0.000267  1.051182  0.0  0.110877  0.137559  -0.000513  1.055038  -0.001
C  C34  1  0.40414975  0.04689651  0.14357362  1  0.13139  0.00625  3.739481  0.007  0.101562  0.000456  3.99816  0.001  0.113207  0.001525  4.016648  0.003  0.040486  0.094009  -0.000279  3.98592  0.0
C  C35  1  0.59584385  0.95310608  0.85642310  1  0.131554  -0.006241  3.739647  -0.007  0.101713  -0.000456  3.998319  -0.001  0.113356  -0.001525  4.016815  -0.003  0.040515  0.094164  0.000279  3.986077  0.0
C  C36  1  0.39209872  0.91182518  0.19460720  1  -0.217492  -0.008787  3.670756  -0.009  -0.23084  -0.003354  3.916281  -0.004  -0.241965  -0.003083  3.934699  -0.004  -0.085324  -0.223534  -0.003742  3.9047  -0.004
C  C37  1  0.60789470  0.08817431  0.80539506  1  -0.217532  0.008788  3.670872  0.009  -0.230827  0.003355  3.916405  0.004  -0.241953  0.003084  3.934825  0.004  -0.085319  -0.22352  0.003742  3.904823  0.004
C  C38  1  0.35942905  0.85034543  0.32538253  1  0.331967  0.007077  3.767191  0.007  0.31867  0.002232  4.014529  0.002  0.334636  0.002431  4.031695  0.003  0.130653  0.307694  0.001908  4.00278  0.002
C  C39  1  0.64056729  0.14965401  0.67462009  1  0.332007  -0.007082  3.767022  -0.007  0.318601  -0.002231  4.014518  -0.002  0.334564  -0.002431  4.031689  -0.003  0.130618  0.307625  -0.001907  4.002772  -0.002
C  C40  1  0.34401489  0.92966893  0.39873348  1  -0.213269  -0.010893  3.676032  -0.011  -0.230034  -0.004431  3.921388  -0.005  -0.241532  -0.003865  3.939909  -0.005  -0.08822  -0.222409  -0.004858  3.909264  -0.006
C  C41  1  0.65598639  0.07033039  0.60126750  1  -0.213334  0.010912  3.675989  0.011  -0.23008  0.004431  3.921391  0.005  -0.241577  0.003865  3.939909  0.005  -0.088253  -0.222453  0.004858  3.909267  0.006
C  C42  1  0.35772373  0.06471737  0.33928094  1  0.142141  0.005542  3.722667  0.006  0.1151  -0.000259  3.979656  0.0  0.126789  0.000991  3.998709  0.002  0.046659  0.107279  -0.00136  3.967154  -0.001
C  C43  1  0.64227888  0.93528084  0.66071940  1  0.142178  -0.005533  3.722568  -0.006  0.115151  0.00026  3.979539  0.0  0.12684  -0.000989  3.998596  -0.002  0.046682  0.107329  0.00136  3.967044  0.001
C  C44  1  0.32049180  0.63341396  0.49691620  1  0.556647  0.000705  3.779562  0.001  0.509516  0.000241  4.064054  0.0  0.538775  0.000202  4.063381  0.0  0.251981  0.489386  0.000236  4.0648  0.0
C  C45  1  0.67951141  0.36657891  0.50308448  1  0.556693  -0.0007  3.779727  -0.001  0.50942  -0.000241  4.064398  0.0  0.538666  -0.000201  4.063746  0.0  0.251945  0.489289  -0.000236  4.065136  0.0
C  C46  1  0.28327183  0.50711950  0.51280149  1  -0.05552  -0.000197  3.743141  0.0  -0.031801  -8.5e-05  3.978833  0.0  -0.039975  -6.3e-05  4.001252  0.0  -0.012643  -0.026801  -0.000122  3.964465  0.0
C  C47  1  0.71672823  0.49287764  0.48719630  1  -0.055418  0.000186  3.743101  0.0  -0.031597  8.9e-05  3.978698  0.0  -0.039768  5.9e-05  4.001122  0.0  -0.012608  -0.026602  0.000122  3.964317  0.0
C  C48  1  0.32073326  0.38209717  0.62051745  1  -0.044127  -2.8e-05  3.703645  0.0  -0.07399  -7e-06  3.958798  0.0  -0.070751  -9e-06  3.977512  0.0  -0.073621  -0.075725  -2.3e-05  3.945849  0.0
C  C49  1  0.67926320  0.61789897  0.37948051  1  -0.04415  2.1e-05  3.703556  0.0  -0.074077  7e-06  3.958654  0.0  -0.070839  1e-05  3.977358  0.0  -0.073608  -0.075789  2.3e-05  3.945705  0.0
C  C50  1  0.28242694  0.26501615  0.63900706  1  -0.071086  -5.4e-05  3.75751  0.0  -0.082591  -2.1e-05  4.012852  0.0  -0.087516  -2e-05  4.034316  0.0  -0.087658  -0.079486  -1.6e-05  3.997905  0.0
C  C51  1  0.71757248  0.73498315  0.36099083  1  -0.071061  5.8e-05  3.757496  0.0  -0.082632  1.8e-05  4.012858  0.0  -0.087551  2.2e-05  4.034322  0.0  -0.087675  -0.079528  1.6e-05  3.997899  0.0
C  C52  1  0.20627633  0.27270976  0.55064697  1  -0.051314  7.5e-05  3.708072  0.0  -0.076733  2.2e-05  3.953628  0.0  -0.074216  9e-06  3.972059  0.0  -0.073435  -0.077818  -1.5e-05  3.940576  0.0
C  C53  1  0.79372541  0.72728518  0.44934887  1  -0.051159  -6.9e-05  3.708002  0.0  -0.076584  -1.9e-05  3.953566  0.0  -0.074067  -8e-06  3.971998  0.0  -0.073402  -0.077665  1.5e-05  3.940511  0.0
C  C54  1  0.16776455  0.39773524  0.44233483  1  -0.0647  0.000184  3.770232  0.0  -0.041832  7.8e-05  4.009581  0.0  -0.051706  5.2e-05  4.036017  0.0  -0.01753  -0.035493  0.000138  3.991677  0.0
C  C55  1  0.83223695  0.60226716  0.55765976  1  -0.064751  -0.000197  3.77045  0.0  -0.041917  -7.6e-05  4.009796  0.0  -0.051794  -5.5e-05  4.036234  0.0  -0.017593  -0.035591  -0.000138  3.991901  0.0
C  C56  1  0.20573849  0.51504904  0.42462165  1  -0.075876  -6e-06  3.686674  0.0  -0.11319  -1e-05  3.932584  0.0  -0.110522  8e-06  3.952058  0.0  -0.076258  -0.114924  -2.9e-05  3.919808  0.0
C  C57  1  0.79426356  0.48494805  0.57537498  1  -0.076006  2.2e-05  3.686632  0.0  -0.113277  4e-06  3.932473  0.0  -0.110611  -3e-06  3.951954  0.0  -0.076268  -0.115015  2.9e-05  3.919701  0.0
C  C58  1  0.08372875  0.39828175  0.35340812  1  0.5307  -0.000469  3.825818  -0.001  0.481836  5.1e-05  4.124038  0.0  0.510023  5.6e-05  4.125125  0.0  0.239407  0.462952  1.9e-05  4.122666  0.0
C  C59  1  0.91627107  0.60171320  0.64658633  1  0.530708  0.00047  3.825464  0.001  0.48188  -5e-05  4.123663  0.0  0.510067  -5.8e-05  4.124755  0.0  0.239409  0.463013  -1.9e-05  4.12228  0.0
C  C60  1  0.96141395  0.55072578  0.15825496  1  0.325657  -0.007945  3.756761  -0.008  0.308793  -0.002427  4.010974  -0.003  0.323668  -0.002655  4.028984  -0.003  0.12153  0.298636  -0.002258  3.998651  -0.002
C  C61  1  0.03858476  0.44927572  0.84174559  1  0.325589  0.007945  3.756618  0.008  0.308758  0.002431  4.010841  0.003  0.323631  0.002652  4.028852  0.003  0.12148  0.298598  0.002258  3.998526  0.002
C  C62  1  0.96301152  0.65872769  0.03742888  1  -0.209453  0.01077  3.660147  0.011  -0.221597  0.004208  3.904941  0.005  -0.232689  0.003742  3.924959  0.004  -0.086747  -0.215005  0.004578  3.892378  0.005
C  C63  1  0.03698812  0.34127704  0.96257363  1  -0.209499  -0.010779  3.660103  -0.011  -0.221647  -0.004215  3.904896  -0.005  -0.232741  -0.003737  3.924917  -0.004  -0.086713  -0.215049  -0.004578  3.892322  -0.005
C  C64  1  0.86540903  0.69503120  0.95525394  1  0.122205  -0.005239  3.741388  -0.005  0.093711  0.000409  4.004515  0.0  0.104735  -0.000928  4.024451  -0.002  0.038584  0.086694  0.001397  3.990895  0.001
C  C65  1  0.13458632  0.30497471  0.04475053  1  0.122228  0.005252  3.741409  0.005  0.09375  -0.000405  4.004546  0.0  0.104779  0.000923  4.024473  0.002  0.038605  0.086749  -0.001397  3.990896  -0.001
C  C66  1  0.76188078  0.53261310  0.10403654  1  0.152267  -0.006376  3.691337  -0.007  0.122882  -0.000266  3.9515  -0.001  0.134781  -0.001683  3.968437  -0.003  0.040787  0.115225  0.000845  3.939949  0.0
C  C67  1  0.23811484  0.46738854  0.89596874  1  0.152218  0.006377  3.691418  0.007  0.1228  0.000266  3.951628  0.001  0.134699  0.001681  3.968564  0.003  0.040795  0.115144  -0.000844  3.940084  0.0
C  C68  1  0.85856362  0.48571199  0.18979109  1  -0.224726  0.012406  3.706766  0.013  -0.239089  0.004817  3.956863  0.006  -0.250567  0.004066  3.976088  0.005  -0.091135  -0.230961  0.005376  3.942803  0.006
C  C69  1  0.14143635  0.51428844  0.81021053  1  -0.22476  -0.012417  3.706709  -0.013  -0.239118  -0.004822  3.95682  -0.006  -0.250597  -0.004062  3.976045  -0.005  -0.091193  -0.230996  -0.005376  3.942776  -0.006
S  S70  1  0.34827704  0.64726855  0.08987437  1  1.548379  0.000263  5.831152  0.001  1.442765  -0.003442  6.371689  -0.003  1.501902  -0.003016  6.335734  -0.003  0.54923  1.400906  -0.003516  6.394645  -0.002
S  S71  1  0.65172561  0.35273608  0.91012595  1  1.548441  -0.000251  5.831255  -0.001  1.4428  0.003437  6.371806  0.003  1.501928  0.00302  6.335861  0.003  0.549155  1.400944  0.003515  6.394765  0.002
N  N72  1  0.38607026  0.12383646  0.21395021  1  -0.332199  -0.091316  3.366398  -0.111  -0.288672  -0.062964  3.671815  -0.082  -0.322735  -0.052269  3.694011  -0.072  -0.367432  -0.267379  -0.068595  3.658477  -0.086
N  N73  1  0.61392580  0.87616403  0.78605119  1  -0.332219  0.09131  3.366384  0.111  -0.288685  0.062963  3.671804  0.082  -0.32276  0.052268  3.693997  0.072  -0.367458  -0.267393  0.068593  3.658474  0.086
N  N74  1  0.76472127  0.63424263  0.98754091  1  -0.333707  0.100643  3.345953  0.122  -0.295637  0.065973  3.658886  0.086  -0.330835  0.054125  3.683093  0.075  -0.360435  -0.27376  0.072092  3.643867  0.091
N  N75  1  0.23527371  0.36576116  0.01246446  1  -0.333641  -0.100651  3.346056  -0.122  -0.295598  -0.065973  3.65902  -0.086  -0.330789  -0.054119  3.683238  -0.075  -0.360408  -0.273722  -0.07209  3.643998  -0.091
N  N76  1  0.34234570  0.71779686  0.37219490  1  -0.452939  0.000228  3.331613  0.0  -0.392411  0.000337  3.565776  0.0  -0.417383  0.000422  3.573943  0.0  -0.389958  -0.375147  0.000299  3.560073  0.0
N  N77  1  0.65765559  0.28220247  0.62780608  1  -0.453005  -0.000223  3.33149  0.0  -0.392417  -0.000332  3.565739  0.0  -0.417388  -0.000424  3.573916  0.0  -0.389953  -0.375153  -0.000298  3.560035  0.0
N  N78  1  0.05634796  0.51756225  0.24190220  1  -0.459096  -2.5e-05  3.317324  0.0  -0.40362  0.000161  3.565512  0.0  -0.428036  7.5e-05  3.573248  0.0  -0.390709  -0.387601  0.000221  3.560175  0.0
N  N79  1  0.94365432  0.48243705  0.75809862  1  -0.459068  3.5e-05  3.317116  0.0  -0.403662  -0.000153  3.565332  0.0  -0.428079  -7.9e-05  3.573071  0.0  -0.390767  -0.387643  -0.000222  3.560003  0.0
O  O80  1  0.34887207  0.53400923  0.04756879  1  -0.734361  -0.067282  2.1203  -0.086  -0.706564  -0.03941  2.438986  -0.054  -0.74272  -0.029674  2.421405  -0.043  -0.381843  -0.6803  -0.046857  2.45048  -0.063
O  O81  1  0.65112161  0.46599244  0.95243595  1  -0.734362  0.067259  2.120578  0.086  -0.706518  0.039407  2.439259  0.054  -0.742685  0.029682  2.421665  0.043  -0.381731  -0.680251  0.046856  2.450754  0.063
O  O82  1  0.43318570  0.57514884  0.20421563  1  -0.745547  -0.003697  1.976505  -0.005  -0.685636  -0.001017  2.216971  -0.002  -0.709967  -2.4e-05  2.20178  -0.001  -0.357779  -0.667512  -0.001766  2.226853  -0.003
O  O83  1  0.56682087  0.42485249  0.79578364  1  -0.745518  0.003722  1.976509  0.006  -0.685646  0.001022  2.217058  0.002  -0.709943  1.1e-05  2.201794  0.001  -0.357762  -0.667525  0.001766  2.226945  0.003
O  O84  1  0.20531802  0.72048708  0.12561770  1  -0.706856  -0.003094  1.880875  -0.004  -0.659003  -0.001945  2.105635  -0.003  -0.678664  -0.001235  2.087292  -0.002  -0.367924  -0.644092  -0.002556  2.117713  -0.004
O  O85  1  0.79468486  0.27951653  0.87438555  1  -0.706896  0.003097  1.88097  0.004  -0.659003  0.001943  2.105708  0.003  -0.678651  0.001236  2.087358  0.002  -0.367896  -0.64409  0.002554  2.117788  0.004
O  O86  1  0.41165531  0.74706351  0.98550864  1  -0.725375  -0.021302  1.934774  -0.025  -0.698109  -0.009604  2.203753  -0.012  -0.724119  -0.006102  2.18352  -0.008  -0.370696  -0.676789  -0.014934  2.216584  -0.019
O  O87  1  0.58834533  0.25293796  0.01449244  1  -0.725447  0.021291  1.934477  0.025  -0.698205  0.009606  2.203448  0.012  -0.72421  0.006103  2.183224  0.008  -0.370777  -0.676883  0.014939  2.216279  0.019
O  O88  1  0.47572950  0.30798369  0.26717811  1  -0.784258  -0.061963  1.927235  -0.079  -0.753881  -0.046518  2.143488  -0.064  -0.784979  -0.037132  2.113729  -0.054  -0.565207  -0.732905  -0.052301  2.165238  -0.069
O  O89  1  0.52427450  0.69201658  0.73281946  1  -0.784251  0.061964  1.927229  0.079  -0.753928  0.04652  2.143472  0.064  -0.785027  0.037133  2.113672  0.054  -0.565194  -0.732948  0.052302  2.165202  0.069
O  O90  1  0.32967124  0.65898353  0.58757460  1  -0.508536  -0.000358  1.913509  -0.001  -0.461118  0.000201  2.119661  0.0  -0.480599  0.000412  2.114  0.0  -0.272605  -0.447661  0.000282  2.123803  0.0
O  O91  1  0.67033704  0.34100505  0.41243035  1  -0.50852  0.000352  1.913733  0.001  -0.461035  -0.000205  2.119926  0.0  -0.480502  -0.000409  2.114259  0.0  -0.272546  -0.44758  -0.000281  2.124059  0.0
O  O92  1  0.04235151  0.29620310  0.37962857  1  -0.518952  0.000377  1.902389  0.0  -0.482566  1e-05  2.113666  0.0  -0.501399  -0.000195  2.108918  0.0  -0.288482  -0.469116  0.000423  2.116599  0.001
O  O93  1  0.95766415  0.70379467  0.62036120  1  -0.519039  -0.00038  1.901991  0.0  -0.482626  -1.4e-05  2.113198  0.0  -0.501461  0.000197  2.108455  0.0  -0.288461  -0.469172  -0.000423  2.116123  -0.001
