# generated using pymatgen
data_NaP3H27C24O11
_symmetry_space_group_name_H-M   'P 1'
_cell_length_a   7.94563578
_cell_length_b   12.67683405
_cell_length_c   14.02545234
_cell_angle_alpha   88.11097461
_cell_angle_beta   85.07226014
_cell_angle_gamma   79.88549656
_symmetry_Int_Tables_number   1
_chemical_formula_structural   NaP3H27C24O11
_chemical_formula_sum   'Na2 P6 H54 C48 O22'
_cell_volume   1385.39462311
_cell_formula_units_Z   2
loop_
 _symmetry_equiv_pos_site_id
 _symmetry_equiv_pos_as_xyz
  1  'x, y, z'
loop_
 _atom_site_type_symbol
 _atom_site_label
 _atom_site_symmetry_multiplicity
 _atom_site_fract_x
 _atom_site_fract_y
 _atom_site_fract_z
 _atom_site_occupancy
 _atom_site_hle17_bader_spin_density
 _atom_site_hle17_ddec_charge
 _atom_site_hle17_ddec_spin_density
 _atom_site_hle17_ddec_sum_bond_order
 _atom_site_hle17_magmom
 _atom_site_hse06_10hf_bader_spin_density
 _atom_site_hse06_10hf_ddec_charge
 _atom_site_hse06_10hf_ddec_spin_density
 _atom_site_hse06_10hf_ddec_sum_bond_order
 _atom_site_hse06_10hf_magmom
 _atom_site_hse06_bader_spin_density
 _atom_site_hse06_ddec_charge
 _atom_site_hse06_ddec_spin_density
 _atom_site_hse06_ddec_sum_bond_order
 _atom_site_hse06_magmom
 _atom_site_pbe_bader_spin_density
 _atom_site_pbe_cm5_charge
 _atom_site_pbe_ddec_charge
 _atom_site_pbe_ddec_spin_density
 _atom_site_pbe_ddec_sum_bond_order
 _atom_site_pbe_magmom
Na  Na0  1  0.20157478  0.51470191  0.05229077  1  0  0.927692  0  0.319612  0  0  0.894927  0  0.443593  0  0  0.904101  0  0.424031  0  0  0.662911  0.887947  0  0.457925  0
Na  Na1  1  0.79842530  0.48529636  0.94771171  1  0  0.927693  0  0.319617  0  0  0.894939  0  0.443569  0  0  0.904115  0  0.424001  0  0  0.662922  0.887959  0  0.457894  0
P  P2  1  0.07091255  0.25591707  0.78383429  1  0  1.496859  0  4.722323  0  0  1.334452  0  5.22857  0  0  1.384658  0  5.18708  0  0  0.398975  1.299486  0  5.256808  0
P  P3  1  0.92908241  0.74408603  0.21616404  1  0  1.496838  0  4.722412  0  0  1.334422  0  5.228678  0  0  1.38463  0  5.187187  0  0  0.398912  1.299461  0  5.256903  0
P  P4  1  0.96756816  0.45467825  0.36409913  1  0  1.477795  0  4.760429  0  0  1.308675  0  5.265418  0  0  1.357763  0  5.227775  0  0  0.385743  1.274538  0  5.290936  0
P  P5  1  0.03243612  0.54532321  0.63590233  1  0  1.477975  0  4.760307  0  0  1.30882  0  5.265407  0  0  1.357908  0  5.227754  0  0  0.385768  1.274704  0  5.290886  0
P  P6  1  0.53554392  0.75530328  0.99343109  1  0  1.491148  0  4.707263  0  0  1.336708  0  5.204964  0  0  1.386102  0  5.165663  0  0  0.400598  1.302231  0  5.231848  0
P  P7  1  0.46445720  0.24469579  0.00656918  1  0  1.491167  0  4.707315  0  0  1.336716  0  5.205017  0  0  1.386099  0  5.165754  0  0  0.40058  1.302244  0  5.231906  0
H  H8  1  0.13499067  0.42231678  0.48462225  1  0  0.437289  0  0.867053  0  0  0.402569  0  0.935247  0  0  0.414228  0  0.918572  0  0  0.30608  0.394425  0  0.946855  0
H  H9  1  0.86501067  0.57768630  0.51538145  1  0  0.437121  0  0.867227  0  0  0.402429  0  0.935399  0  0  0.414087  0  0.918727  0  0  0.305997  0.394281  0  0.947015  0
H  H10  1  0.17731654  0.34443340  0.65746354  1  0  0.444722  0  0.857432  0  0  0.409441  0  0.92603  0  0  0.421502  0  0.908911  0  0  0.307149  0.401024  0  0.937945  0
H  H11  1  0.82267824  0.65557050  0.34253763  1  0  0.444611  0  0.857548  0  0  0.409338  0  0.926147  0  0  0.421404  0  0.909019  0  0  0.307091  0.400922  0  0.93806  0
H  H12  1  0.51881480  0.56990586  0.07390542  1  0  0.354507  0  0.955415  0  0  0.332918  0  1.02797  0  0  0.342693  0  1.015014  0  0  0.292228  0.326036  0  1.03619  0
H  H13  1  0.48118696  0.43009080  0.92609560  1  0  0.354496  0  0.955436  0  0  0.332909  0  1.027986  0  0  0.342685  0  1.015025  0  0  0.292208  0.326025  0  1.036211  0
H  H14  1  0.97635394  0.43586870  0.78336133  1  0  0.432363  0  0.885662  0  0  0.394041  0  0.960947  0  0  0.406686  0  0.943053  0  0  0.30608  0.385279  0  0.973313  0
H  H15  1  0.02364508  0.56413358  0.21664180  1  0  0.43234  0  0.885695  0  0  0.394058  0  0.960915  0  0  0.406701  0  0.943024  0  0  0.306089  0.385294  0  0.973284  0
H  H16  1  0.69842965  0.82234732  0.09543236  1  0  0.465598  0  0.833856  0  0  0.428614  0  0.904922  0  0  0.441119  0  0.887311  0  0  0.30905  0.419896  0  0.917159  0
H  H17  1  0.30156976  0.17765336  0.90456724  1  0  0.465614  0  0.833828  0  0  0.428608  0  0.904931  0  0  0.441114  0  0.887319  0  0  0.309039  0.419891  0  0.917166  0
H  H18  1  0.05774907  0.57202873  0.85257756  1  0  0.373417  0  0.916502  0  0  0.352128  0  0.984623  0  0  0.361098  0  0.974363  0  0  0.299691  0.345816  0  0.991805  0
H  H19  1  0.94225355  0.42796954  0.14742551  1  0  0.373429  0  0.916498  0  0  0.352121  0  0.984643  0  0  0.361091  0  0.974382  0  0  0.299669  0.34581  0  0.991823  0
H  H20  1  0.29441520  0.78877115  0.08206299  1  0  0.424689  0  0.821077  0  0  0.40421  0  0.882552  0  0  0.412867  0  0.872743  0  0  0.339325  0.39809  0  0.889514  0
H  H21  1  0.70559076  0.21122870  0.91793772  1  0  0.424736  0  0.821037  0  0  0.404252  0  0.882513  0  0  0.412908  0  0.872705  0  0  0.339364  0.398131  0  0.889475  0
H  H22  1  0.49788004  0.20154594  0.70339430  1  0  0.105981  0  0.970847  0  0  0.114411  0  1.036614  0  0  0.117626  0  1.03458  0  0  0.102406  0.112054  0  1.038226  0
H  H23  1  0.50211450  0.79845397  0.29660201  1  0  0.105908  0  0.97081  0  0  0.114332  0  1.036617  0  0  0.117547  0  1.034581  0  0  0.102359  0.111972  0  1.03823  0
H  H24  1  0.69410845  0.28962279  0.78839376  1  0  0.085818  0  0.996114  0  0  0.093774  0  1.065677  0  0  0.096674  0  1.063539  0  0  0.107334  0.091586  0  1.067432  0
H  H25  1  0.30588401  0.71037552  0.21160556  1  0  0.085774  0  0.996177  0  0  0.093763  0  1.065685  0  0  0.096665  0  1.063545  0  0  0.107304  0.091571  0  1.067446  0
H  H26  1  0.12893858  0.08253866  0.65019752  1  0  0.088529  0  0.951919  0  0  0.09836  0  1.016233  0  0  0.101004  0  1.01483  0  0  0.104241  0.096459  0  1.017292  0
H  H27  1  0.87105936  0.91746283  0.34980356  1  0  0.088553  0  0.951861  0  0  0.09839  0  1.016168  0  0  0.101033  0  1.014768  0  0  0.104258  0.096488  0  1.017228  0
H  H28  1  0.93128698  0.99232418  0.56748076  1  0  0.090236  0  0.965866  0  0  0.100511  0  1.029808  0  0  0.103058  0  1.029389  0  0  0.100338  0.098698  0  1.030185  0
H  H29  1  0.06871623  0.00767649  0.43251936  1  0  0.090245  0  0.965859  0  0  0.100499  0  1.029828  0  0  0.103041  0  1.029413  0  0  0.100351  0.098684  0  1.030206  0
H  H30  1  0.50909990  0.29408023  0.54195229  1  0  0.100862  0  0.942335  0  0  0.114538  0  0.996953  0  0  0.117182  0  0.996256  0  0  0.104677  0.112616  0  0.997593  0
H  H31  1  0.49090416  0.70591723  0.45804716  1  0  0.100914  0  0.942385  0  0  0.114592  0  0.997002  0  0  0.117234  0  0.996312  0  0  0.104695  0.112674  0  0.997639  0
H  H32  1  0.66988645  0.44134208  0.49851990  1  0  0.091957  0  0.961924  0  0  0.102159  0  1.025502  0  0  0.10491  0  1.023996  0  0  0.105924  0.100184  0  1.026623  0
H  H33  1  0.33011555  0.55865379  0.50148327  1  0  0.091939  0  0.96193  0  0  0.10215  0  1.025504  0  0  0.104902  0  1.023995  0  0  0.105903  0.10017  0  1.026626  0
H  H34  1  0.98995116  0.24112612  0.28741361  1  0  0.088231  0  0.959581  0  0  0.100274  0  1.020882  0  0  0.10245  0  1.020526  0  0  0.10493  0.098696  0  1.02121  0
H  H35  1  0.01004929  0.75887536  0.71258519  1  0  0.088263  0  0.959565  0  0  0.100304  0  1.020864  0  0  0.102479  0  1.020509  0  0  0.104943  0.098723  0  1.021197  0
H  H36  1  0.82798470  0.09533770  0.33023158  1  0  0.089214  0  0.973584  0  0  0.100909  0  1.034501  0  0  0.103084  0  1.034525  0  0  0.099897  0.099365  0  1.034535  0
H  H37  1  0.17201554  0.90466458  0.66976650  1  0  0.089275  0  0.973499  0  0  0.100935  0  1.034452  0  0  0.103111  0  1.034477  0  0  0.099924  0.099391  0  1.034494  0
H  H38  1  0.67629077  0.75434184  0.64272323  1  0  0.105516  0  0.959593  0  0  0.114404  0  1.022513  0  0  0.117727  0  1.021035  0  0  0.101988  0.111892  0  1.02382  0
H  H39  1  0.32370378  0.24565806  0.35727522  1  0  0.105583  0  0.959556  0  0  0.114443  0  1.022501  0  0  0.117768  0  1.021019  0  0  0.102013  0.111948  0  1.023793  0
H  H40  1  0.68312086  0.67154441  0.80429594  1  0  0.097681  0  0.955669  0  0  0.106274  0  1.021478  0  0  0.109739  0  1.018904  0  0  0.111045  0.103748  0  1.023374  0
H  H41  1  0.31687284  0.32845390  0.19570117  1  0  0.097647  0  0.955695  0  0  0.106254  0  1.021492  0  0  0.109722  0  1.018914  0  0  0.111038  0.10373  0  1.023395  0
H  H42  1  0.40088549  0.96710514  0.92364698  1  0  0.10605  0  0.939685  0  0  0.118508  0  0.994829  0  0  0.121779  0  0.992524  0  0  0.109469  0.116138  0  0.996552  0
H  H43  1  0.59911875  0.03289633  0.07635091  1  0  0.106082  0  0.939592  0  0  0.118516  0  0.994776  0  0  0.121788  0  0.99247  0  0  0.109498  0.116149  0  0.996487  0
H  H44  1  0.39102439  0.04822477  0.76268056  1  0  0.096959  0  0.96717  0  0  0.105968  0  1.033116  0  0  0.108674  0  1.032174  0  0  0.101098  0.103933  0  1.034028  0
H  H45  1  0.60898385  0.95177588  0.23731716  1  0  0.096952  0  0.967192  0  0  0.106007  0  1.033071  0  0  0.108714  0  1.032126  0  0  0.101111  0.103972  0  1.033977  0
H  H46  1  0.52156023  0.52342747  0.36038280  1  0  0.095253  0  0.973128  0  0  0.116288  0  1.039294  0  0  0.116567  0  1.040653  0  0  0.085853  0.116051  0  1.038365  0
H  H47  1  0.47844573  0.47657238  0.63961791  1  0  0.095277  0  0.972996  0  0  0.11627  0  1.039242  0  0  0.11655  0  1.040599  0  0  0.085841  0.116028  0  1.038313  0
H  H48  1  0.32623422  0.56624961  0.30641617  1  0  0.09873  0  0.968848  0  0  0.11776  0  1.034982  0  0  0.118728  0  1.035648  0  0  0.084297  0.116999  0  1.034603  0
H  H49  1  0.67377026  0.43375105  0.69358388  1  0  0.09872  0  0.968963  0  0  0.11778  0  1.035052  0  0  0.118749  0  1.035714  0  0  0.084305  0.117013  0  1.03468  0
H  H50  1  0.42586646  0.42969092  0.30271396  1  0  0.10869  0  0.965891  0  0  0.129684  0  1.026913  0  0  0.130668  0  1.028148  0  0  0.087575  0.128956  0  1.026076  0
H  H51  1  0.57414077  0.57030893  0.69728668  1  0  0.108705  0  0.965954  0  0  0.129693  0  1.026979  0  0  0.130669  0  1.028223  0  0  0.087598  0.128964  0  1.02614  0
H  H52  1  0.59438471  0.61348199  0.21077383  1  0  0.025981  0  0.942718  0  0  0.041668  0  1.008489  0  0  0.041904  0  1.007983  0  0  0.088844  0.041387  0  1.008946  0
H  H53  1  0.40561850  0.38651868  0.78922628  1  0  0.026048  0  0.942727  0  0  0.041688  0  1.008553  0  0  0.041925  0  1.008047  0  0  0.08884  0.041404  0  1.009015  0
H  H54  1  0.67229619  0.47422501  0.19939379  1  0  0.02209  0  0.944391  0  0  0.038703  0  1.008421  0  0  0.039357  0  1.007748  0  0  0.089564  0.038089  0  1.009077  0
H  H55  1  0.32770956  0.52577564  0.80060691  1  0  0.022126  0  0.944409  0  0  0.038752  0  1.008416  0  0  0.03941  0  1.007742  0  0  0.089576  0.038138  0  1.009068  0
H  H56  1  0.12910073  0.74126786  0.88692575  1  0  0.075062  0  0.937214  0  0  0.093185  0  0.998603  0  0  0.093811  0  0.998591  0  0  0.091662  0.09266  0  0.998668  0
H  H57  1  0.87089427  0.25873044  0.11307415  1  0  0.075086  0  0.937213  0  0  0.093209  0  0.998601  0  0  0.093838  0  0.99859  0  0  0.091665  0.092689  0  0.998669  0
H  H58  1  0.90531783  0.73988089  0.87800100  1  0  0.059606  0  0.979427  0  0  0.075705  0  1.050344  0  0  0.075775  0  1.051095  0  0  0.088307  0.075557  0  1.049915  0
H  H59  1  0.09467634  0.26011581  0.12199970  1  0  0.05961  0  0.979459  0  0  0.075717  0  1.050373  0  0  0.075781  0  1.051127  0  0  0.088326  0.075573  0  1.049945  0
H  H60  1  0.98783891  0.73617710  0.99241249  1  0  0.090513  0  0.963035  0  0  0.108865  0  1.024087  0  0  0.109817  0  1.023744  0  0  0.101049  0.108087  0  1.024394  0
H  H61  1  0.01215440  0.26382280  0.00758816  1  0  0.090516  0  0.963049  0  0  0.108871  0  1.024105  0  0  0.109828  0  1.023749  0  0  0.10105  0.108096  0  1.02441  0
C  C62  1  0.51681959  0.95583903  0.59331315  1  0  -0.017096  0  3.728668  0  0  -0.017827  0  3.97628  0  0  -0.018022  0  3.997561  0  0  -0.002999  -0.017707  0  3.961844  0
C  C63  1  0.48317898  0.04416006  0.40668583  1  0  -0.017049  0  3.728611  0  0  -0.017794  0  3.97625  0  0  -0.018  0  3.997541  0  0  -0.002979  -0.017675  0  3.961819  0
C  C64  1  0.57352460  0.09075674  0.47187178  1  0  -0.015297  0  3.709527  0  0  -0.016114  0  3.956379  0  0  -0.016464  0  3.977851  0  0  0.000275  -0.015888  0  3.941836  0
C  C65  1  0.42647650  0.90924233  0.52812707  1  0  -0.01523  0  3.709574  0  0  -0.016032  0  3.956412  0  0  -0.016392  0  3.977894  0  0  0.000298  -0.015801  0  3.941861  0
C  C66  1  0.59009030  0.04657389  0.56516470  1  0  -0.016929  0  3.708002  0  0  -0.015133  0  3.953122  0  0  -0.015557  0  3.974697  0  0  -0.000362  -0.014829  0  3.938475  0
C  C67  1  0.40990828  0.95342519  0.43483499  1  0  -0.017001  0  3.708038  0  0  -0.015165  0  3.953148  0  0  -0.015585  0  3.97473  0  0  -0.000363  -0.014859  0  3.938495  0
C  C68  1  0.70128105  0.09185288  0.62823778  1  0  0.073439  0  3.76475  0  0  0.090236  0  3.994968  0  0  0.090968  0  4.01895  0  0  0.0021  0.089783  0  3.978629  0
C  C69  1  0.29871687  0.90814861  0.37176116  1  0  0.073447  0  3.764735  0  0  0.090172  0  3.995053  0  0  0.090904  0  4.019034  0  0  0.00209  0.089715  0  3.978711  0
C  C70  1  0.63571507  0.17330101  0.69318995  1  0  -0.097764  0  3.702506  0  0  -0.120614  0  3.954878  0  0  -0.123828  0  3.97522  0  0  -0.083893  -0.118407  0  3.941066  0
C  C71  1  0.36428052  0.82669969  0.30680771  1  0  -0.097584  0  3.70233  0  0  -0.120423  0  3.954737  0  0  -0.123637  0  3.975086  0  0  -0.083775  -0.118216  0  3.940924  0
C  C72  1  0.74637454  0.22260273  0.74160420  1  0  -0.058353  0  3.788974  0  0  -0.078778  0  4.03131  0  0  -0.078691  0  4.053246  0  0  -0.085519  -0.078713  0  4.01649  0
C  C73  1  0.25362275  0.77739636  0.25839270  1  0  -0.058379  0  3.788897  0  0  -0.078812  0  4.03122  0  0  -0.078725  0  4.053151  0  0  -0.085537  -0.078742  0  4.016402  0
C  C74  1  0.92444466  0.19151158  0.72589255  1  0  -0.271035  0  3.821484  0  0  -0.228948  0  4.059546  0  0  -0.23965  0  4.082746  0  0  -0.030227  -0.22177  0  4.043925  0
C  C75  1  0.07555054  0.80849072  0.27410864  1  0  -0.27106  0  3.821411  0  0  -0.228975  0  4.059476  0  0  -0.239677  0  4.082676  0  0  -0.030261  -0.221799  0  4.043854  0
C  C76  1  0.99043548  0.10737645  0.66332916  1  0  -0.027004  0  3.758858  0  0  -0.047546  0  3.99944  0  0  -0.046636  0  4.019854  0  0  -0.078763  -0.048046  0  3.985558  0
C  C77  1  0.00956267  0.89262424  0.33667051  1  0  -0.027  0  3.758748  0  0  -0.047545  0  3.999323  0  0  -0.046639  0  4.019739  0  0  -0.078766  -0.048047  0  3.985446  0
C  C78  1  0.87958183  0.05769801  0.61598144  1  0  -0.105767  0  3.71069  0  0  -0.126278  0  3.957663  0  0  -0.12965  0  3.978395  0  0  -0.085495  -0.12397  0  3.943578  0
C  C79  1  0.12041778  0.94230187  0.38401675  1  0  -0.105788  0  3.710667  0  0  -0.126268  0  3.95769  0  0  -0.129634  0  3.978418  0  0  -0.085518  -0.12396  0  3.943608  0
C  C80  1  0.66026306  0.18293002  0.44133118  1  0  0.064522  0  3.779976  0  0  0.081219  0  4.01166  0  0  0.082269  0  4.035374  0  0  -0.00341  0.0806  0  3.995444  0
C  C81  1  0.33973826  0.81706825  0.55866768  1  0  0.064423  0  3.779976  0  0  0.08107  0  4.011704  0  0  0.082123  0  4.035418  0  0  -0.003463  0.080443  0  3.995515  0
C  C82  1  0.61551054  0.28196714  0.48676606  1  0  -0.100093  0  3.702874  0  0  -0.119202  0  3.948641  0  0  -0.122799  0  3.969606  0  0  -0.082984  -0.116794  0  3.934471  0
C  C83  1  0.38449351  0.71803032  0.51323196  1  0  -0.100086  0  3.702834  0  0  -0.119182  0  3.94861  0  0  -0.122779  0  3.969574  0  0  -0.082947  -0.11678  0  3.934448  0
C  C84  1  0.70519454  0.36518525  0.46191789  1  0  -0.03027  0  3.765612  0  0  -0.054087  0  4.012197  0  0  -0.053037  0  4.033252  0  0  -0.078127  -0.054702  0  3.997978  0
C  C85  1  0.29480806  0.63481302  0.53808304  1  0  -0.030198  0  3.765599  0  0  -0.054008  0  4.012195  0  0  -0.052957  0  4.033252  0  0  -0.078101  -0.054622  0  3.997972  0
C  C86  1  0.84120860  0.35143992  0.39040471  1  0  -0.268504  0  3.811383  0  0  -0.226423  0  4.054433  0  0  -0.237113  0  4.077118  0  0  -0.029853  -0.219312  0  4.039258  0
C  C87  1  0.15879359  0.64855995  0.60959762  1  0  -0.268657  0  3.811337  0  0  -0.226626  0  4.05449  0  0  -0.237317  0  4.077177  0  0  -0.029875  -0.219507  0  4.039296  0
C  C88  1  0.88432916  0.25333969  0.34314563  1  0  -0.029895  0  3.758066  0  0  -0.051418  0  3.998358  0  0  -0.050268  0  4.019144  0  0  -0.079529  -0.052052  0  3.984233  0
C  C89  1  0.11567489  0.74666258  0.65685440  1  0  -0.029928  0  3.758263  0  0  -0.051427  0  3.998545  0  0  -0.050277  0  4.019331  0  0  -0.079567  -0.052064  0  3.984419  0
C  C90  1  0.79377931  0.17069091  0.36796398  1  0  -0.110912  0  3.72523  0  0  -0.129423  0  3.969457  0  0  -0.133131  0  3.990751  0  0  -0.087715  -0.126934  0  3.955015  0
C  C91  1  0.20622348  0.82930656  0.63203483  1  0  -0.11089  0  3.725433  0  0  -0.129355  0  3.969678  0  0  -0.133064  0  3.990974  0  0  -0.087698  -0.126875  0  3.95524  0
C  C92  1  0.53339109  0.90755155  0.69097031  1  0  0.06547  0  3.786207  0  0  0.081204  0  4.019299  0  0  0.082081  0  4.043519  0  0  -0.003548  0.080708  0  4.002739  0
C  C93  1  0.46660853  0.09244834  0.30902858  1  0  0.065467  0  3.786153  0  0  0.081175  0  4.019307  0  0  0.082054  0  4.043529  0  0  -0.003531  0.080675  0  4.002754  0
C  C94  1  0.61625271  0.80146162  0.70409355  1  0  -0.114235  0  3.709214  0  0  -0.13508  0  3.960107  0  0  -0.139393  0  3.98114  0  0  -0.088456  -0.132098  0  3.945897  0
C  C95  1  0.38374228  0.19853668  0.29590493  1  0  -0.114248  0  3.709223  0  0  -0.13506  0  3.960148  0  0  -0.139375  0  3.981181  0  0  -0.088445  -0.132094  0  3.945946  0
C  C96  1  0.62016521  0.75445090  0.79540497  1  0  -0.029203  0  3.763496  0  0  -0.053713  0  4.010667  0  0  -0.052221  0  4.031079  0  0  -0.075649  -0.05455  0  3.996755  0
C  C97  1  0.37983231  0.24554739  0.20459408  1  0  -0.029153  0  3.763552  0  0  -0.053671  0  4.010704  0  0  -0.052177  0  4.031115  0  0  -0.07564  -0.054514  0  3.996817  0
C  C98  1  0.54155424  0.81315164  0.87514410  1  0  -0.278828  0  3.819431  0  0  -0.233641  0  4.0554  0  0  -0.245526  0  4.079506  0  0  -0.027939  -0.225649  0  4.039158  0
C  C99  1  0.45844769  0.18684903  0.12485466  1  0  -0.278899  0  3.819557  0  0  -0.233696  0  4.055519  0  0  -0.245581  0  4.079624  0  0  -0.027954  -0.225718  0  4.039298  0
C  C100  1  0.46118261  0.91985763  0.86251231  1  0  -0.016382  0  3.740465  0  0  -0.040489  0  3.981263  0  0  -0.038795  0  4.001163  0  0  -0.076018  -0.041503  0  3.967753  0
C  C101  1  0.53881807  0.08014305  0.13748722  1  0  -0.016373  0  3.740379  0  0  -0.040475  0  3.981212  0  0  -0.038781  0  4.001111  0  0  -0.076041  -0.041485  0  3.967693  0
C  C102  1  0.45761627  0.96627124  0.77134760  1  0  -0.107376  0  3.715018  0  0  -0.127832  0  3.965176  0  0  -0.131763  0  3.98635  0  0  -0.088099  -0.125156  0  3.950871  0
C  C103  1  0.54238587  0.03372863  0.22865117  1  0  -0.107414  0  3.715003  0  0  -0.127892  0  3.965185  0  0  -0.131824  0  3.986358  0  0  -0.08813  -0.125212  0  3.95087  0
C  C104  1  0.45018677  0.51213789  0.29898337  1  0  -0.326658  0  3.707453  0  0  -0.404879  0  3.95438  0  0  -0.408186  0  3.965546  0  0  -0.256803  -0.402358  0  3.946623  0
C  C105  1  0.54982151  0.48786276  0.70101719  1  0  -0.326686  0  3.707565  0  0  -0.404874  0  3.954446  0  0  -0.408174  0  3.965618  0  0  -0.25685  -0.402348  0  3.946684  0
C  C106  1  0.55427646  0.53475298  0.20783678  1  0  0.205025  0  3.662308  0  0  0.158102  0  3.932849  0  0  0.165182  0  3.939685  0  0  -0.082526  0.153368  0  3.928078  0
C  C107  1  0.44572845  0.46524608  0.79216400  1  0  0.204879  0  3.662605  0  0  0.157953  0  3.933182  0  0  0.165029  0  3.940019  0  0  -0.082575  0.153219  0  3.92841  0
C  C108  1  0.01655976  0.70937905  0.91856852  1  0  -0.021694  0  3.659473  0  0  -0.11131  0  3.92817  0  0  -0.105513  0  3.931815  0  0  -0.158923  -0.115069  0  3.925654  0
C  C109  1  0.98343568  0.29061764  0.08143283  1  0  -0.021743  0  3.659518  0  0  -0.111377  0  3.928201  0  0  -0.105578  0  3.931856  0  0  -0.158966  -0.115145  0  3.92569  0
O  O110  1  0.14915502  0.18207810  0.86029932  1  0  -0.80041  0  1.931601  0  0  -0.726682  0  2.164761  0  0  -0.752136  0  2.144792  0  0  -0.354253  -0.708715  0  2.178051  0
O  O111  1  0.85084271  0.81792419  0.13970175  1  0  -0.800387  0  1.931673  0  0  -0.726663  0  2.164822  0  0  -0.752118  0  2.144852  0  0  -0.354221  -0.708701  0  2.17811  0
O  O112  1  0.96662434  0.36415940  0.82507491  1  0  -0.805254  0  2.027678  0  0  -0.73627  0  2.272495  0  0  -0.756798  0  2.244795  0  0  -0.413214  -0.721853  0  2.291378  0
O  O113  1  0.03337108  0.63584209  0.17492629  1  0  -0.805201  0  2.027708  0  0  -0.736227  0  2.272489  0  0  -0.756756  0  2.244792  0  0  -0.413157  -0.72181  0  2.291371  0
O  O114  1  0.21284236  0.28117849  0.70504307  1  0  -0.75399  0  2.013618  0  0  -0.6825  0  2.242677  0  0  -0.704013  0  2.216722  0  0  -0.375018  -0.667345  0  2.26034  0
O  O115  1  0.78715157  0.71882382  0.29495677  1  0  -0.753916  0  2.013758  0  0  -0.68245  0  2.242817  0  0  -0.703945  0  2.216816  0  0  -0.374969  -0.667299  0  2.260478  0
O  O116  1  0.14180142  0.41596162  0.41142144  1  0  -0.742309  0  2.016481  0  0  -0.669086  0  2.2453  0  0  -0.69116  0  2.221465  0  0  -0.377318  -0.65345  0  2.261392  0
O  O117  1  0.85820183  0.58403904  0.58858224  1  0  -0.742169  0  2.016472  0  0  -0.668979  0  2.245249  0  0  -0.691045  0  2.22141  0  0  -0.377286  -0.65335  0  2.261337  0
O  O118  1  0.87207602  0.56080179  0.40737984  1  0  -0.844494  0  1.978928  0  0  -0.755926  0  2.208119  0  0  -0.781117  0  2.186773  0  0  -0.361812  -0.738185  0  2.222415  0
O  O119  1  0.12792511  0.43919729  0.59262257  1  0  -0.844573  0  1.979024  0  0  -0.755983  0  2.208219  0  0  -0.781164  0  2.186871  0  0  -0.361824  -0.738254  0  2.222505  0
O  O120  1  0.01146105  0.46299075  0.25605832  1  0  -0.831622  0  1.991256  0  0  -0.747502  0  2.233949  0  0  -0.773468  0  2.214442  0  0  -0.358056  -0.729331  0  2.247057  0
O  O121  1  0.98853924  0.53701153  0.74394547  1  0  -0.831692  0  1.991262  0  0  -0.747534  0  2.233957  0  0  -0.773506  0  2.214453  0  0  -0.357998  -0.729372  0  2.247055  0
O  O122  1  0.33384425  0.75648113  0.01997542  1  0  -0.72081  0  1.991001  0  0  -0.65944  0  2.213207  0  0  -0.678165  0  2.191966  0  0  -0.37207  -0.646265  0  2.227722  0
O  O123  1  0.66615731  0.24351634  0.98002630  1  0  -0.720873  0  1.990986  0  0  -0.659487  0  2.213201  0  0  -0.678211  0  2.191965  0  0  -0.372112  -0.646311  0  2.22771  0
O  O124  1  0.63735575  0.64406604  0.99757856  1  0  -0.877193  0  1.941184  0  0  -0.813823  0  2.193922  0  0  -0.837148  0  2.172911  0  0  -0.429494  -0.797305  0  2.207945  0
O  O125  1  0.36264768  0.35593382  0.00242157  1  0  -0.877199  0  1.941251  0  0  -0.813812  0  2.193984  0  0  -0.837141  0  2.172981  0  0  -0.429452  -0.797278  0  2.207974  0
O  O126  1  0.57783354  0.83635315  0.06524255  1  0  -0.775146  0  2.013636  0  0  -0.703824  0  2.245795  0  0  -0.727117  0  2.221886  0  0  -0.374587  -0.687386  0  2.261947  0
O  O127  1  0.42216586  0.16364753  0.93475633  1  0  -0.775149  0  2.013604  0  0  -0.703815  0  2.245784  0  0  -0.727101  0  2.221872  0  0  -0.374578  -0.687374  0  2.261934  0
O  O128  1  0.45678425  0.53337556  0.12591426  1  0  -0.638047  0  2.040487  0  0  -0.591013  0  2.27231  0  0  -0.605703  0  2.257596  0  0  -0.478371  -0.580559  0  2.28157  0
O  O129  1  0.54321962  0.46662270  0.87408660  1  0  -0.637995  0  2.040724  0  0  -0.590931  0  2.272494  0  0  -0.605621  0  2.25778  0  0  -0.478313  -0.580479  0  2.281758  0
O  O130  1  0.05027233  0.59350432  0.92023345  1  0  -0.62494  0  2.071832  0  0  -0.576619  0  2.315167  0  0  -0.590824  0  2.300985  0  0  -0.499732  -0.566494  0  2.3248  0
O  O131  1  0.94972649  0.40649396  0.07976910  1  0  -0.624923  0  2.071833  0  0  -0.576578  0  2.31519  0  0  -0.590785  0  2.301008  0  0  -0.499673  -0.566449  0  2.324825  0
