# generated using pymatgen
data_ZnH14C16(NO2)2
_symmetry_space_group_name_H-M   'P 1'
_cell_length_a   8.11875579
_cell_length_b   8.97568343
_cell_length_c   11.24852234
_cell_angle_alpha   91.28831346
_cell_angle_beta   106.65576714
_cell_angle_gamma   96.60403420
_symmetry_Int_Tables_number   1
_chemical_formula_structural   ZnH14C16(NO2)2
_chemical_formula_sum   'Zn2 H28 C32 N4 O8'
_cell_volume   778.76841107
_cell_formula_units_Z   2
loop_
 _symmetry_equiv_pos_site_id
 _symmetry_equiv_pos_as_xyz
  1  'x, y, z'
loop_
 _atom_site_type_symbol
 _atom_site_label
 _atom_site_symmetry_multiplicity
 _atom_site_fract_x
 _atom_site_fract_y
 _atom_site_fract_z
 _atom_site_occupancy
 _atom_site_hle17_bader_spin_density
 _atom_site_hle17_ddec_charge
 _atom_site_hle17_ddec_spin_density
 _atom_site_hle17_ddec_sum_bond_order
 _atom_site_hle17_magmom
 _atom_site_hse06_10hf_bader_spin_density
 _atom_site_hse06_10hf_ddec_charge
 _atom_site_hse06_10hf_ddec_spin_density
 _atom_site_hse06_10hf_ddec_sum_bond_order
 _atom_site_hse06_10hf_magmom
 _atom_site_hse06_bader_spin_density
 _atom_site_hse06_ddec_charge
 _atom_site_hse06_ddec_spin_density
 _atom_site_hse06_ddec_sum_bond_order
 _atom_site_hse06_magmom
 _atom_site_pbe_bader_spin_density
 _atom_site_pbe_cm5_charge
 _atom_site_pbe_ddec_charge
 _atom_site_pbe_ddec_spin_density
 _atom_site_pbe_ddec_sum_bond_order
 _atom_site_pbe_magmom
Zn  Zn0  1  0.48088113  0.86480210  0.74199036  1  0  0.961646  0  1.872944  0  0  0.770778  0  2.338808  0  0  0.821418  0  2.285269  0  0  0.675822  0.735616  0  2.37517  0
Zn  Zn1  1  0.51911217  0.13519762  0.25801184  1  0  0.961652  0  1.872968  0  0  0.770764  0  2.338827  0  0  0.821406  0  2.285275  0  0  0.675827  0.735605  0  2.375188  0
H  H2  1  0.94981839  0.06147247  0.61209558  1  0  0.109584  0  0.958104  0  0  0.116753  0  1.024142  0  0  0.120075  0  1.022935  0  0  0.103447  0.114472  0  1.024912  0
H  H3  1  0.05016892  0.93852858  0.38788581  1  0  0.109612  0  0.957998  0  0  0.116801  0  1.023987  0  0  0.120117  0  1.022791  0  0  0.103502  0.114516  0  1.024771  0
H  H4  1  0.38263241  0.38175609  0.90127622  1  0  0.125515  0  0.926651  0  0  0.135986  0  0.98108  0  0  0.140328  0  0.978407  0  0  0.111004  0.132767  0  0.983321  0
H  H5  1  0.61737513  0.61824379  0.09872369  1  0  0.125419  0  0.92662  0  0  0.135912  0  0.981033  0  0  0.140252  0  0.978363  0  0  0.111006  0.132696  0  0.983276  0
H  H6  1  0.65470217  0.01559000  0.99684256  1  0  0.100458  0  0.927611  0  0  0.110129  0  0.9882  0  0  0.112969  0  0.985048  0  0  0.125035  0.107979  0  0.990615  0
H  H7  1  0.34529614  0.98440864  0.00315979  1  0  0.100507  0  0.927544  0  0  0.110112  0  0.988186  0  0  0.112952  0  0.985036  0  0  0.124989  0.107917  0  0.990655  0
H  H8  1  0.86562757  0.23576424  0.08998607  1  0  0.113343  0  0.961224  0  0  0.123848  0  1.022785  0  0  0.126512  0  1.022832  0  0  0.110588  0.12196  0  1.022873  0
H  H9  1  0.13438203  0.76423225  0.91001774  1  0  0.113357  0  0.961348  0  0  0.123887  0  1.022843  0  0  0.126554  0  1.022887  0  0  0.11061  0.121997  0  1.022936  0
H  H10  1  0.88797322  0.33761029  0.72052381  1  0  0.105569  0  0.969529  0  0  0.11523  0  1.032956  0  0  0.117791  0  1.033405  0  0  0.106695  0.113347  0  1.032964  0
H  H11  1  0.11201969  0.66238611  0.27947377  1  0  0.105617  0  0.969577  0  0  0.115292  0  1.032977  0  0  0.117851  0  1.03343  0  0  0.10671  0.113421  0  1.032969  0
H  H12  1  0.67261190  0.11047393  0.64037456  1  0  0.084846  0  0.94638  0  0  0.090583  0  1.01686  0  0  0.093827  0  1.013131  0  0  0.117358  0.088155  0  1.019712  0
H  H13  1  0.32737014  0.88952796  0.35962441  1  0  0.084818  0  0.946419  0  0  0.090527  0  1.016938  0  0  0.093772  0  1.013209  0  0  0.117334  0.088096  0  1.01979  0
H  H14  1  0.07630237  0.49056597  0.88965861  1  0  0.083426  0  0.944162  0  0  0.098114  0  1.010482  0  0  0.099284  0  1.010508  0  0  0.095981  0.097223  0  1.010588  0
H  H15  1  0.92370521  0.50942493  0.11034196  1  0  0.083368  0  0.944159  0  0  0.098076  0  1.010489  0  0  0.099247  0  1.010508  0  0  0.095991  0.097176  0  1.01062  0
H  H16  1  0.14715155  0.40059299  0.02933647  1  0  0.089868  0  0.932026  0  0  0.106851  0  0.992987  0  0  0.107627  0  0.993661  0  0  0.098673  0.106216  0  0.992685  0
H  H17  1  0.85285313  0.59939562  0.97066520  1  0  0.089948  0  0.931961  0  0  0.106962  0  0.992888  0  0  0.107739  0  0.993559  0  0  0.09872  0.106326  0  0.992587  0
H  H18  1  0.84080109  0.79462109  0.81300171  1  0  0.074821  0  0.943692  0  0  0.083898  0  1.008641  0  0  0.086223  0  1.006878  0  0  0.116068  0.082185  0  1.010079  0
H  H19  1  0.15920313  0.20537417  0.18700626  1  0  0.074846  0  0.94364  0  0  0.083912  0  1.00862  0  0  0.086242  0  1.006843  0  0  0.11601  0.082167  0  1.010092  0
H  H20  1  0.04664187  0.68363349  0.71621737  1  0  0.119159  0  0.974795  0  0  0.126752  0  1.039932  0  0  0.130081  0  1.039032  0  0  0.107031  0.124296  0  1.040848  0
H  H21  1  0.95336086  0.31636962  0.28378960  1  0  0.119205  0  0.97472  0  0  0.126805  0  1.039876  0  0  0.130138  0  1.038966  0  0  0.10706  0.124332  0  1.040814  0
H  H22  1  0.62757596  0.59817905  0.37746326  1  0  0.122638  0  0.950009  0  0  0.132119  0  1.007095  0  0  0.135543  0  1.006576  0  0  0.109181  0.129578  0  1.007749  0
H  H23  1  0.37242772  0.40183082  0.62254230  1  0  0.122693  0  0.950001  0  0  0.132186  0  1.007069  0  0  0.135609  0  1.006552  0  0  0.109196  0.129646  0  1.007723  0
H  H24  1  0.43715389  0.70934806  0.48858101  1  0  0.076138  0  0.946437  0  0  0.086198  0  1.010482  0  0  0.088311  0  1.008648  0  0  0.116499  0.084623  0  1.011925  0
H  H25  1  0.56284641  0.29065615  0.51142635  1  0  0.076201  0  0.946637  0  0  0.086231  0  1.010705  0  0  0.088344  0  1.008871  0  0  0.116498  0.084655  0  1.012149  0
H  H26  1  0.09597929  0.65755182  0.50020575  1  0  0.093462  0  0.93428  0  0  0.109822  0  0.996052  0  0  0.110908  0  0.996276  0  0  0.097805  0.108975  0  0.995656  0
H  H27  1  0.90401941  0.34244915  0.49979052  1  0  0.093435  0  0.934287  0  0  0.109842  0  0.996019  0  0  0.110929  0  0.996243  0  0  0.097807  0.108992  0  0.995622  0
H  H28  1  0.91689287  0.56703037  0.37607586  1  0  0.091155  0  0.956184  0  0  0.105269  0  1.020689  0  0  0.107712  0  1.018493  0  0  0.095287  0.103363  0  1.022413  0
H  H29  1  0.08309811  0.43297956  0.62391543  1  0  0.091217  0  0.956154  0  0  0.105297  0  1.020697  0  0  0.107743  0  1.0185  0  0  0.095297  0.103388  0  1.022421  0
C  C30  1  0.19324973  0.96524746  0.64013023  1  0  0.654568  0  3.936318  0  0  0.614487  0  4.219789  0  0  0.648415  0  4.212701  0  0  0.187615  0.591571  0  4.223834  0
C  C31  1  0.80674301  0.03475584  0.35985416  1  0  0.654542  0  3.93584  0  0  0.614523  0  4.219245  0  0  0.648449  0  4.212154  0  0  0.187621  0.591608  0  4.223292  0
C  C32  1  0.02808486  0.01084208  0.56206823  1  0  -0.152548  0  3.659456  0  0  -0.170079  0  3.910141  0  0  -0.175593  0  3.925986  0  0  -0.083117  -0.166583  0  3.899112  0
C  C33  1  0.97190437  0.98915445  0.43791613  1  0  -0.152602  0  3.659225  0  0  -0.17013  0  3.909893  0  0  -0.175646  0  3.92574  0  0  -0.083207  -0.166635  0  3.898861  0
C  C34  1  0.42807147  0.61815908  0.85705033  1  0  0.649401  0  3.958911  0  0  0.60659  0  4.248439  0  0  0.640616  0  4.240783  0  0  0.188111  0.58362  0  4.252648  0
C  C35  1  0.57193564  0.38184748  0.14295409  1  0  0.649328  0  3.959166  0  0  0.606506  0  4.248737  0  0  0.640533  0  4.241082  0  0  0.188077  0.583535  0  4.252947  0
C  C36  1  0.45142770  0.49161309  0.94049518  1  0  -0.164407  0  3.675445  0  0  -0.183241  0  3.929495  0  0  -0.188498  0  3.943752  0  0  -0.084603  -0.17973  0  3.91983  0
C  C37  1  0.54858243  0.50838684  0.05950350  1  0  -0.164169  0  3.675349  0  0  -0.183018  0  3.929388  0  0  -0.188273  0  3.943648  0  0  -0.084595  -0.179513  0  3.919726  0
C  C38  1  0.70752425  0.09031922  0.93807071  1  0  0.154459  0  3.661825  0  0  0.121035  0  3.910167  0  0  0.129778  0  3.926826  0  0  0.057829  0.115457  0  3.898739  0
C  C39  1  0.29247248  0.90967718  0.06193036  1  0  0.154335  0  3.66197  0  0  0.120952  0  3.910283  0  0  0.129687  0  3.926943  0  0  0.057851  0.115411  0  3.898868  0
C  C40  1  0.82798297  0.21442544  0.98960300  1  0  -0.16382  0  3.67814  0  0  -0.180732  0  3.922287  0  0  -0.18988  0  3.944908  0  0  -0.079376  -0.174792  0  3.90692  0
C  C41  1  0.17202359  0.78556766  0.01040008  1  0  -0.16378  0  3.678293  0  0  -0.180723  0  3.922386  0  0  -0.18987  0  3.945001  0  0  -0.07938  -0.174779  0  3.907004  0
C  C42  1  0.89772355  0.30742258  0.91298452  1  0  0.165503  0  3.703467  0  0  0.18221  0  3.937063  0  0  0.187866  0  3.959418  0  0  0.01939  0.1785  0  3.921869  0
C  C43  1  0.10228018  0.69256830  0.08701434  1  0  0.165557  0  3.70343  0  0  0.182321  0  3.936975  0  0  0.187977  0  3.959329  0  0  0.019409  0.178608  0  3.921784  0
C  C44  1  0.83837113  0.26985462  0.78490636  1  0  -0.17416  0  3.707268  0  0  -0.188512  0  3.945076  0  0  -0.197198  0  3.96712  0  0  -0.084274  -0.182998  0  3.930614  0
C  C45  1  0.16162419  0.73014067  0.21509261  1  0  -0.174262  0  3.707354  0  0  -0.188676  0  3.945164  0  0  -0.19736  0  3.967203  0  0  -0.084329  -0.18317  0  3.930689  0
C  C46  1  0.71773292  0.14391647  0.73952852  1  0  0.125714  0  3.714388  0  0  0.093851  0  3.965979  0  0  0.101386  0  3.984139  0  0  0.046307  0.089125  0  3.953729  0
C  C47  1  0.28226009  0.85608101  0.26047267  1  0  0.125777  0  3.7145  0  0  0.093949  0  3.966037  0  0  0.101481  0  3.984193  0  0  0.046355  0.089233  0  3.953785  0
C  C48  1  0.03261177  0.44014808  0.96524938  1  0  -0.155044  0  3.676399  0  0  -0.197457  0  3.925502  0  0  -0.199177  0  3.937315  0  0  -0.154422  -0.196079  0  3.917203  0
C  C49  1  0.96739682  0.55984061  0.03474958  1  0  -0.155076  0  3.676388  0  0  -0.197576  0  3.925532  0  0  -0.199292  0  3.937341  0  0  -0.15448  -0.196199  0  3.917229  0
C  C50  1  0.79858112  0.74798115  0.71710189  1  0  0.12758  0  3.721179  0  0  0.095332  0  3.972836  0  0  0.102716  0  3.991908  0  0  0.042754  0.090477  0  3.960309  0
C  C51  1  0.20142111  0.25201857  0.28290755  1  0  0.127466  0  3.721382  0  0  0.095211  0  3.973058  0  0  0.102594  0  3.992141  0  0  0.042756  0.090383  0  3.960533  0
C  C52  1  0.91142430  0.68669524  0.66366887  1  0  -0.180366  0  3.70327  0  0  -0.197026  0  3.95012  0  0  -0.206332  0  3.972974  0  0  -0.08674  -0.190811  0  3.934916  0
C  C53  1  0.08857990  0.31330903  0.33633665  1  0  -0.180264  0  3.703367  0  0  -0.196956  0  3.950239  0  0  -0.206261  0  3.973096  0  0  -0.086717  -0.190727  0  3.935031  0
C  C54  1  0.85323893  0.63510675  0.53828762  1  0  0.171551  0  3.709119  0  0  0.188916  0  3.941803  0  0  0.194034  0  3.965511  0  0  0.019691  0.185612  0  3.925183  0
C  C55  1  0.14676401  0.36489754  0.46171586  1  0  0.171521  0  3.709081  0  0  0.188882  0  3.941807  0  0  0.194  0  3.965519  0  0  0.0197  0.185576  0  3.925181  0
C  C56  1  0.67900513  0.64086509  0.47414173  1  0  -0.175698  0  3.695875  0  0  -0.191602  0  3.938156  0  0  -0.200867  0  3.960372  0  0  -0.08339  -0.185351  0  3.923099  0
C  C57  1  0.32100373  0.35914486  0.52586226  1  0  -0.175734  0  3.696009  0  0  -0.191638  0  3.938293  0  0  -0.200901  0  3.960506  0  0  -0.083391  -0.185388  0  3.923238  0
C  C58  1  0.57340169  0.70219821  0.53493817  1  0  0.140885  0  3.716272  0  0  0.108484  0  3.967818  0  0  0.116562  0  3.986309  0  0  0.050257  0.103156  0  3.955139  0
C  C59  1  0.42660380  0.29780607  0.46506763  1  0  0.140629  0  3.716689  0  0  0.10824  0  3.968232  0  0  0.116315  0  3.986727  0  0  0.050124  0.102913  0  3.955555  0
C  C60  1  0.97653441  0.57734215  0.47707856  1  0  -0.162364  0  3.671067  0  0  -0.20396  0  3.915686  0  0  -0.205975  0  3.926853  0  0  -0.158812  -0.202386  0  3.907406  0
C  C61  1  0.02345948  0.42266105  0.52291496  1  0  -0.162306  0  3.671033  0  0  -0.203905  0  3.915615  0  0  -0.205922  0  3.926781  0  0  -0.158752  -0.202334  0  3.907363  0
N  N62  1  0.65297359  0.05506521  0.81471885  1  0  -0.333628  0  3.310726  0  0  -0.249555  0  3.58266  0  0  -0.269963  0  3.598539  0  0  -0.330279  -0.235951  0  3.571706  0
N  N63  1  0.34701601  0.94493560  0.18528259  1  0  -0.333605  0  3.31086  0  0  -0.249484  0  3.582655  0  0  -0.269877  0  3.598521  0  0  -0.330251  -0.235892  0  3.571697  0
N  N64  1  0.63222995  0.75744296  0.65364627  1  0  -0.336034  0  3.317816  0  0  -0.253229  0  3.586804  0  0  -0.273519  0  3.603822  0  0  -0.334002  -0.239449  0  3.575134  0
N  N65  1  0.36777279  0.24256017  0.34635981  1  0  -0.335887  0  3.31778  0  0  -0.25306  0  3.586737  0  0  -0.273352  0  3.603761  0  0  -0.333919  -0.23928  0  3.575057  0
O  O66  1  0.29638403  0.91064281  0.58600867  1  0  -0.649358  0  1.973568  0  0  -0.582196  0  2.231073  0  0  -0.610922  0  2.218212  0  0  -0.337327  -0.562116  0  2.239153  0
O  O67  1  0.70361174  0.08935485  0.41398067  1  0  -0.649448  0  1.973619  0  0  -0.582286  0  2.231094  0  0  -0.61101  0  2.218221  0  0  -0.337362  -0.562207  0  2.239176  0
O  O68  1  0.22815741  0.97779203  0.75713902  1  0  -0.621145  0  1.867887  0  0  -0.57072  0  2.086782  0  0  -0.59468  0  2.076726  0  0  -0.327851  -0.553985  0  2.093267  0
O  O69  1  0.77183052  0.02220448  0.24284595  1  0  -0.621089  0  1.867662  0  0  -0.570696  0  2.086548  0  0  -0.594657  0  2.076494  0  0  -0.327816  -0.55396  0  2.093034  0
O  O70  1  0.52804448  0.74351751  0.89406914  1  0  -0.644326  0  2.010043  0  0  -0.576629  0  2.270979  0  0  -0.605959  0  2.258483  0  0  -0.334392  -0.556082  0  2.278761  0
O  O71  1  0.47196354  0.25648676  0.10593987  1  0  -0.644261  0  2.010195  0  0  -0.57655  0  2.271136  0  0  -0.605882  0  2.258644  0  0  -0.334312  -0.555998  0  2.278909  0
O  O72  1  0.31267483  0.59833400  0.75341867  1  0  -0.628468  0  1.919313  0  0  -0.578391  0  2.150451  0  0  -0.601524  0  2.14011  0  0  -0.319888  -0.56204  0  2.157068  0
O  O73  1  0.68732514  0.40167698  0.24658613  1  0  -0.628491  0  1.919455  0  0  -0.578392  0  2.150554  0  0  -0.601527  0  2.140209  0  0  -0.319894  -0.562039  0  2.15717  0
