# generated using pymatgen
data_CoH10(C3O4)2
_symmetry_space_group_name_H-M   'P 1'
_cell_length_a   6.44001274
_cell_length_b   10.72768908
_cell_length_c   10.72761640
_cell_angle_alpha   75.11591710
_cell_angle_beta   73.20570666
_cell_angle_gamma   73.20444157
_symmetry_Int_Tables_number   1
_chemical_formula_structural   CoH10(C3O4)2
_chemical_formula_sum   'Co3 H30 C18 O24'
_cell_volume   666.99142203
_cell_formula_units_Z   3
loop_
 _symmetry_equiv_pos_site_id
 _symmetry_equiv_pos_as_xyz
  1  'x, y, z'
loop_
 _atom_site_type_symbol
 _atom_site_label
 _atom_site_symmetry_multiplicity
 _atom_site_fract_x
 _atom_site_fract_y
 _atom_site_fract_z
 _atom_site_occupancy
 _atom_site_hle17_ddec_charge
 _atom_site_hle17_ddec_spin_density
 _atom_site_hle17_ddec_sum_bond_order
 _atom_site_hle17_magmom
 _atom_site_hse06_10hf_ddec_charge
 _atom_site_hse06_10hf_ddec_spin_density
 _atom_site_hse06_10hf_ddec_sum_bond_order
 _atom_site_hse06_10hf_magmom
 _atom_site_hse06_ddec_charge
 _atom_site_hse06_ddec_spin_density
 _atom_site_hse06_ddec_sum_bond_order
 _atom_site_hse06_magmom
 _atom_site_pbe_cm5_charge
 _atom_site_pbe_ddec_charge
 _atom_site_pbe_ddec_spin_density
 _atom_site_pbe_ddec_sum_bond_order
 _atom_site_pbe_magmom
Co  Co0  1  0.23295425  0.23275716  0.24846903  1  1.174298  2.888595  1.799257  2.638  1.148334  2.877582  2.189128  2.696  1.212445  2.907145  2.120989  2.753  0.645856  1.096972  2.850215  2.238914  2.643
Co  Co1  1  0.76705784  0.75153632  0.76724352  1  1.174251  2.888568  1.799242  2.638  1.148285  2.877557  2.189127  2.696  1.2124  2.907125  2.120988  2.753  0.645841  1.096921  2.850193  2.238912  2.643
Co  Co2  1  0.99999555  0.20376778  0.79623471  1  1.182975  -2.947828  1.767267  -2.631  1.145707  -2.908665  2.167772  -2.691  1.215828  -2.940623  2.096918  -2.752  0.644942  1.089333  -2.880041  2.220759  -2.634
H  H3  1  0.50001754  0.86355578  0.13645340  1  0.118342  0.000286  0.937467  0.0  0.125751  0.000122  0.998233  0.0  0.130206  4.5e-05  0.99434  0.0  0.112205  0.122341  0.000225  1.001201  0.0
H  H4  1  0.29918524  0.71247808  0.55318392  1  0.10662  -9e-06  0.967439  0.0  0.113554  -0.000108  1.037368  0.0  0.117704  -0.00012  1.033022  0.0  0.110394  0.110086  -9.3e-05  1.041167  0.0
H  H5  1  0.70079024  0.44681328  0.28750964  1  0.106678  -1.3e-05  0.967295  0.0  0.113618  -0.000108  1.037233  0.0  0.117765  -0.000119  1.032889  0.0  0.110374  0.110148  -9.2e-05  1.041034  0.0
H  H6  1  0.20082911  0.75501395  0.98054231  1  0.110448  -0.000197  0.965169  0.0  0.117431  -0.000254  1.033221  0.0  0.121499  -0.000214  1.029351  0.0  0.112141  0.11405  -0.000295  1.036631  0.0
H  H7  1  0.79918982  0.01945957  0.24499660  1  0.110427  -0.000196  0.965239  0.0  0.117416  -0.000254  1.033276  0.0  0.12148  -0.000215  1.029417  0.0  0.112169  0.114036  -0.000295  1.036687  0.0
H  H8  1  0.99999635  0.60201410  0.39797756  1  0.112493  0.000216  0.932114  0.0  0.119284  0.00015  0.994991  0.0  0.123783  7.3e-05  0.990919  0.0  0.107892  0.115769  0.000241  0.998225  0.0
H  H9  1  0.03580123  0.10777600  0.46003093  1  0.424051  -0.000328  0.887064  -0.001  0.386758  -2.3e-05  0.96144  0.0  0.400029  -0.00012  0.942634  0.0  0.295625  0.377309  6.3e-05  0.974824  0.0
H  H10  1  0.96418215  0.53996442  0.89222726  1  0.424031  -0.000328  0.887017  -0.001  0.386799  -2.3e-05  0.961361  0.0  0.400064  -0.000119  0.942564  0.0  0.295651  0.377349  6.3e-05  0.974746  0.0
H  H11  1  0.85999961  0.25844384  0.44991146  1  0.43295  3.5e-05  0.851899  0.0  0.404049  0.000294  0.916524  0.001  0.414147  0.000147  0.902002  0.0  0.306578  0.396745  0.000422  0.927012  0.001
H  H12  1  0.13998592  0.55007910  0.74156041  1  0.433071  3.6e-05  0.851753  0.0  0.40418  0.000294  0.916354  0.001  0.414277  0.000147  0.901831  0.0  0.306622  0.396877  0.000422  0.926841  0.001
H  H13  1  0.55441786  0.09704072  0.39297325  1  0.436774  0.000202  0.8615  0.0  0.405441  0.000329  0.925826  0.001  0.41678  0.000175  0.909318  0.0  0.295736  0.397295  0.000472  0.937671  0.001
H  H14  1  0.44557106  0.60703397  0.90296932  1  0.43677  0.000203  0.861526  0.0  0.405461  0.00033  0.925808  0.001  0.416802  0.000176  0.909298  0.0  0.295704  0.397318  0.000473  0.937649  0.001
H  H15  1  0.54133000  0.25215851  0.36911948  1  0.427526  0.000503  0.841631  0.001  0.40186  0.000681  0.911653  0.001  0.411643  0.000496  0.897203  0.001  0.307196  0.394651  0.000846  0.921013  0.002
H  H16  1  0.45861396  0.63093169  0.74785208  1  0.427539  0.000505  0.841216  0.001  0.401888  0.000682  0.91152  0.001  0.411669  0.000496  0.897072  0.001  0.30725  0.394683  0.000846  0.920637  0.002
H  H17  1  0.59032841  0.20811811  0.04307018  1  0.43845  -0.000149  0.846165  -0.001  0.4104  0.000105  0.90578  0.0  0.420614  1.8e-05  0.891099  0.0  0.306274  0.402965  0.000172  0.916445  0.0
H  H18  1  0.40968636  0.95693902  0.79188266  1  0.438554  -0.000149  0.846046  -0.001  0.410491  0.000104  0.90566  0.0  0.420707  1.8e-05  0.890975  0.0  0.306287  0.403054  0.000171  0.916328  0.0
H  H19  1  0.42743449  0.35688464  0.04080117  1  0.420875  -0.000386  0.886911  -0.001  0.384345  1.5e-05  0.960383  0.0  0.397371  -9.1e-05  0.941654  0.0  0.289354  0.375001  0.000108  0.973792  0.0
H  H20  1  0.57256850  0.95919651  0.64311542  1  0.420847  -0.000386  0.887002  -0.001  0.384336  1.5e-05  0.960397  0.0  0.397361  -9.1e-05  0.941671  0.0  0.289397  0.374994  0.000108  0.973804  0.0
H  H21  1  0.93285285  0.22135419  0.11885405  1  0.433227  0.000644  0.856953  0.001  0.407683  0.000817  0.911412  0.002  0.417647  0.000676  0.897069  0.001  0.301206  0.400467  0.000927  0.921809  0.002
H  H22  1  0.06716926  0.88113819  0.77865023  1  0.433216  0.000644  0.856971  0.001  0.407736  0.000817  0.911336  0.002  0.417702  0.000676  0.896986  0.001  0.301194  0.40052  0.000927  0.921732  0.002
H  H23  1  0.91666448  0.37354528  0.11785818  1  0.433617  -8.3e-05  0.868989  -0.001  0.401708  0.000122  0.933994  0.0  0.413036  -1.2e-05  0.917636  0.0  0.295037  0.393647  0.000256  0.945602  0.0
H  H24  1  0.08334793  0.88214135  0.62645770  1  0.433755  -8.4e-05  0.868781  -0.001  0.40184  0.000122  0.93379  0.0  0.413174  -1.2e-05  0.917426  0.0  0.295069  0.393775  0.000255  0.945403  0.0
H  H25  1  0.66744058  0.41295110  0.74314868  1  0.424843  -0.000304  0.87431  -0.001  0.396629  -0.000513  0.933317  -0.001  0.40708  -0.000318  0.918321  -0.001  0.299615  0.389008  -0.000689  0.944214  -0.001
H  H26  1  0.33254731  0.25682432  0.58705360  1  0.424862  -0.000303  0.874278  -0.001  0.396536  -0.000513  0.933416  -0.001  0.406986  -0.000317  0.918422  -0.001  0.299525  0.388914  -0.000689  0.944312  -0.001
H  H27  1  0.85681067  0.45861766  0.78293602  1  0.439053  -0.000137  0.866155  -0.001  0.408623  -0.000332  0.928652  -0.001  0.42034  -0.000229  0.911807  -0.001  0.294474  0.400174  -0.000431  0.940712  -0.001
H  H28  1  0.14317546  0.21704667  0.54139107  1  0.439108  -0.000138  0.866082  -0.001  0.408552  -0.000332  0.92876  -0.001  0.420272  -0.00023  0.911911  -0.001  0.294412  0.400102  -0.000432  0.940821  -0.001
H  H29  1  0.29958097  0.25066048  0.92978455  1  0.440617  -0.000919  0.847764  -0.002  0.416719  -0.000829  0.898791  -0.002  0.427712  -0.000685  0.882786  -0.002  0.298854  0.408679  -0.00098  0.910494  -0.002
H  H30  1  0.70041683  0.07021189  0.74933722  1  0.440814  -0.000919  0.847483  -0.002  0.416914  -0.000829  0.898516  -0.002  0.427905  -0.000684  0.882517  -0.002  0.298946  0.408875  -0.00098  0.910222  -0.002
H  H31  1  0.31853380  0.33497846  0.78487922  1  0.410429  -0.000375  0.887758  -0.001  0.38159  -0.000381  0.95467  -0.001  0.39291  -0.00024  0.937912  -0.001  0.293219  0.373257  -0.000501  0.967066  -0.001
H  H32  1  0.68147199  0.21511194  0.66501419  1  0.410517  -0.000375  0.887717  -0.001  0.381656  -0.000381  0.95461  -0.001  0.392973  -0.00024  0.937857  -0.001  0.293237  0.373322  -0.0005  0.967008  -0.001
C  C33  1  0.38604607  0.80278335  0.34662186  1  -0.088722  0.004734  3.772212  0.007  -0.060946  0.001904  4.00876  0.003  -0.073643  0.00151  4.032834  0.002  -0.01814  -0.052833  0.002368  3.992865  0.004
C  C34  1  0.61395748  0.65338447  0.19722238  1  -0.088596  0.004734  3.77226  0.007  -0.061033  0.001904  4.009037  0.003  -0.073736  0.001509  4.033143  0.002  -0.018141  -0.052922  0.002369  3.993134  0.004
C  C35  1  0.50001796  0.78051641  0.21948784  1  -0.030109  -0.003388  3.68806  -0.005  -0.066286  -0.000909  3.93041  -0.001  -0.060604  -0.000578  3.948362  -0.001  -0.05965  -0.06941  -0.000931  3.918099  -0.001
C  C36  1  0.50000021  0.56745251  0.43254264  1  -0.093186  0.002316  3.74771  0.003  -0.068407  0.000597  3.997338  0.001  -0.080631  0.000439  4.020075  0.001  -0.021224  -0.060802  0.000784  3.982776  0.001
C  C37  1  0.38763862  0.69615584  0.45366817  1  -0.026022  -0.003431  3.643632  -0.004  -0.070651  -0.000868  3.901048  -0.001  -0.06337  -0.000488  3.916018  0.0  -0.064497  -0.075778  -0.001984  3.891873  -0.002
C  C38  1  0.61236303  0.54633282  0.30384154  1  -0.02603  -0.003414  3.643606  -0.004  -0.070643  -0.000868  3.90108  -0.001  -0.063355  -0.000488  3.916055  0.0  -0.064433  -0.075769  -0.001984  3.891899  -0.002
C  C39  1  0.26478717  0.94162122  0.36149128  1  0.666232  -0.003952  3.855894  -0.006  0.610676  -0.000758  4.161002  -0.001  0.647478  -0.0002  4.153475  0.0  0.219311  0.585052  -0.001678  4.165182  -0.003
C  C40  1  0.73522667  0.63851469  0.05837638  1  0.665963  -0.003945  3.856081  -0.006  0.61055  -0.000756  4.161091  -0.001  0.647325  -0.000198  4.153609  0.0  0.219273  0.584943  -0.001675  4.165246  -0.003
C  C41  1  0.49998365  0.45350116  0.54649064  1  0.678274  0.000253  3.837581  0.0  0.621183  0.000246  4.130883  0.0  0.655422  0.000179  4.123536  0.0  0.227955  0.597825  0.000289  4.135658  0.0
C  C42  1  0.11210243  0.66273376  0.18663573  1  -0.088199  0.003371  3.754724  0.005  -0.060606  0.001589  3.99189  0.002  -0.073529  0.001233  4.016155  0.002  -0.016795  -0.052361  0.001975  3.97607  0.003
C  C43  1  0.88790587  0.81335895  0.33726648  1  -0.088218  0.003373  3.754311  0.005  -0.060607  0.001589  3.99149  0.002  -0.073527  0.001232  4.015749  0.002  -0.016825  -0.052363  0.001975  3.975674  0.003
C  C44  1  0.11341931  0.77008089  0.08052681  1  -0.027415  -0.00108  3.649465  -0.001  -0.071589  -0.000365  3.904666  0.0  -0.064171  -0.00022  3.919451  0.0  -0.066031  -0.077081  -0.000842  3.895785  -0.001
C  C45  1  0.88658855  0.91947629  0.22991621  1  -0.027398  -0.001081  3.649207  -0.001  -0.0716  -0.000365  3.904453  0.0  -0.064182  -0.000217  3.91924  0.0  -0.066041  -0.077097  -0.000842  3.895577  -0.001
C  C46  1  0.00000180  0.89795847  0.10203674  1  -0.081481  -0.000144  3.773207  0.0  -0.054301  -0.000271  4.014632  0.0  -0.066369  -0.000119  4.035426  0.0  -0.018653  -0.046804  -0.000431  4.002245  0.0
C  C47  1  0.00000186  0.68516026  0.31483597  1  -0.032379  -0.00126  3.659853  -0.002  -0.069304  -0.000176  3.905517  0.0  -0.06275  -6.6e-05  3.922705  0.0  -0.062263  -0.073624  0.000569  3.894477  0.001
C  C48  1  0.22459160  0.52493422  0.16174310  1  0.668413  -0.003588  3.869794  -0.006  0.613007  -0.000574  4.178614  -0.001  0.649512  -0.000164  4.171367  0.0  0.214728  0.587953  -0.001245  4.182126  -0.002
C  C49  1  0.77540564  0.83825458  0.47507083  1  0.668447  -0.003585  3.869794  -0.006  0.613014  -0.000573  4.178663  -0.001  0.649509  -0.000162  4.171421  0.0  0.214802  0.587959  -0.001243  4.182171  -0.002
C  C50  1  0.00001632  0.01039709  0.98960465  1  0.665849  0.006813  3.832752  0.011  0.616062  0.002867  4.120043  0.006  0.653085  0.00206  4.114257  0.004  0.224284  0.588757  0.004631  4.124702  0.008
O  O51  1  0.29703066  0.03177552  0.25953903  1  -0.627831  0.03466  2.061446  0.062  -0.591371  0.02539  2.330634  0.042  -0.624067  0.02049  2.318156  0.033  -0.314541  -0.56675  0.030218  2.338216  0.05
O  O52  1  0.70300602  0.74047028  0.96822573  1  -0.627679  0.034654  2.06165  0.062  -0.591265  0.025391  2.330813  0.042  -0.623956  0.02049  2.31835  0.033  -0.314468  -0.566643  0.030218  2.338381  0.05
O  O53  1  0.13356042  0.96338650  0.47305891  1  -0.622062  -0.000654  2.050881  0.0  -0.552283  -0.000526  2.265972  0.0  -0.579033  -0.000453  2.255085  0.0  -0.302832  -0.533883  -0.000423  2.273549  0.0
O  O54  1  0.86641683  0.52693959  0.03661461  1  -0.621917  -0.000651  2.051051  0.0  -0.55214  -0.000525  2.266046  0.0  -0.578875  -0.000451  2.255168  0.0  -0.302794  -0.533748  -0.000422  2.273616  0.0
O  O55  1  0.56977645  0.33442538  0.52396450  1  -0.678406  2.1e-05  2.006168  0.0  -0.602746  7.3e-05  2.212702  0.0  -0.628597  7.9e-05  2.200647  0.0  -0.311527  -0.585391  5.6e-05  2.221575  0.0
O  O56  1  0.43020958  0.47599617  0.66555079  1  -0.678156  2e-05  2.006428  0.0  -0.60261  7.3e-05  2.21308  0.0  -0.628462  7.7e-05  2.201019  0.0  -0.311466  -0.585263  5.6e-05  2.221952  0.0
O  O57  1  0.17815796  0.42989177  0.25578393  1  -0.63763  0.035079  2.055949  0.062  -0.601596  0.025758  2.327218  0.042  -0.634794  0.020725  2.315334  0.033  -0.320524  -0.57663  0.030709  2.333965  0.05
O  O58  1  0.82183834  0.74421718  0.57010962  1  -0.637665  0.035069  2.056047  0.062  -0.601611  0.025756  2.32732  0.042  -0.634807  0.020722  2.315439  0.033  -0.320547  -0.576642  0.030705  2.334063  0.05
O  O59  1  0.35690113  0.50910605  0.04900540  1  -0.634542  -0.000186  2.007933  0.0  -0.56928  -0.000211  2.225444  0.0  -0.595331  -0.000226  2.213754  0.0  -0.308798  -0.551205  2e-05  2.233381  0.001
O  O60  1  0.64309187  0.95099283  0.49089123  1  -0.634445  -0.000179  2.007947  0.0  -0.569196  -0.00021  2.225496  0.0  -0.595222  -0.000224  2.213795  0.0  -0.308811  -0.55112  2e-05  2.23343  0.001
O  O61  1  0.10759929  0.99425906  0.87122790  1  -0.649337  -0.035046  2.049039  -0.059  -0.594722  -0.026245  2.286105  -0.042  -0.628853  -0.020762  2.27489  -0.033  -0.297139  -0.5693  -0.031924  2.293724  -0.051
O  O62  1  0.89241070  0.12877684  0.00574719  1  -0.649338  -0.03505  2.048808  -0.059  -0.594757  -0.026247  2.285912  -0.042  -0.628881  -0.020763  2.274688  -0.033  -0.297194  -0.569336  -0.031928  2.293535  -0.051
O  O63  1  0.01799665  0.21047455  0.43674926  1  -0.845376  0.029475  2.033582  0.047  -0.791754  0.026791  2.247906  0.039  -0.821458  0.022079  2.212781  0.031  -0.559602  -0.768909  0.031247  2.272406  0.045
O  O64  1  0.98198843  0.56325126  0.78952823  1  -0.845458  0.029476  2.033509  0.047  -0.791945  0.026791  2.247786  0.039  -0.821646  0.02208  2.212663  0.031  -0.559631  -0.769097  0.031247  2.27229  0.045
O  O65  1  0.50973128  0.18504971  0.33508777  1  -0.838954  0.024127  1.940131  0.04  -0.803087  0.02237  2.159212  0.033  -0.826568  0.018404  2.122801  0.027  -0.575125  -0.784534  0.026436  2.183751  0.04
O  O66  1  0.49026974  0.66492590  0.81496722  1  -0.838909  0.02412  1.939785  0.04  -0.803067  0.022365  2.15911  0.033  -0.826538  0.018401  2.122695  0.027  -0.575104  -0.784525  0.02643  2.183407  0.04
O  O67  1  0.43307875  0.25772421  0.05404841  1  -0.836689  0.029863  1.958917  0.048  -0.787724  0.026682  2.15557  0.038  -0.816233  0.021885  2.11914  0.031  -0.554047  -0.765631  0.031359  2.18119  0.045
O  O68  1  0.56693081  0.94595949  0.74226942  1  -0.83676  0.029861  1.958967  0.048  -0.787813  0.026681  2.155575  0.038  -0.816317  0.021883  2.119146  0.031  -0.554089  -0.765718  0.031358  2.181197  0.045
O  O69  1  0.95148785  0.28080133  0.16910204  1  -0.845319  0.028183  1.928537  0.047  -0.811572  0.024469  2.137321  0.037  -0.836629  0.019943  2.100575  0.03  -0.579789  -0.791812  0.028984  2.162926  0.044
O  O70  1  0.04853777  0.83089197  0.71920235  1  -0.845418  0.028182  1.92844  0.047  -0.811675  0.02447  2.137083  0.037  -0.836756  0.019943  2.100368  0.03  -0.579778  -0.79192  0.028984  2.162716  0.044
O  O71  1  0.78838064  0.38252691  0.79074279  1  -0.851205  -0.036899  1.956488  -0.057  -0.812997  -0.030533  2.171465  -0.043  -0.842069  -0.024626  2.133622  -0.033  -0.586553  -0.7896  -0.03637  2.197908  -0.051
O  O72  1  0.21162427  0.20921911  0.61748269  1  -0.851269  -0.036903  1.956403  -0.057  -0.812823  -0.030534  2.171692  -0.043  -0.841908  -0.024627  2.133859  -0.033  -0.586401  -0.789425  -0.036371  2.19814  -0.051
O  O73  1  0.24059919  0.26976601  0.84930333  1  -0.851394  -0.020387  1.930283  -0.035  -0.810885  -0.019415  2.130027  -0.03  -0.833729  -0.01653  2.091439  -0.025  -0.587525  -0.793454  -0.022047  2.158044  -0.034
O  O74  1  0.75939589  0.15069794  0.73023203  1  -0.851695  -0.020391  1.930119  -0.035  -0.811177  -0.019417  2.129806  -0.03  -0.834048  -0.016533  2.091263  -0.025  -0.587651  -0.793747  -0.02205  2.157827  -0.034
