# generated using pymatgen
data_Zn4H18C27O13
_symmetry_space_group_name_H-M   'P 1'
_cell_length_a   18.36140349
_cell_length_b   18.34956664
_cell_length_c   18.27745668
_cell_angle_alpha   119.90167162
_cell_angle_beta   119.69246714
_cell_angle_gamma   90.02473992
_symmetry_Int_Tables_number   1
_chemical_formula_structural   Zn4H18C27O13
_chemical_formula_sum   'Zn8 H36 C54 O26'
_cell_volume   4380.07971569
_cell_formula_units_Z   2
loop_
 _symmetry_equiv_pos_site_id
 _symmetry_equiv_pos_as_xyz
  1  'x, y, z'
loop_
 _atom_site_type_symbol
 _atom_site_label
 _atom_site_symmetry_multiplicity
 _atom_site_fract_x
 _atom_site_fract_y
 _atom_site_fract_z
 _atom_site_occupancy
 _atom_site_pbe_bader_charge
 _atom_site_pbe_bader_spin_density
 _atom_site_pbe_cm5_charge
 _atom_site_pbe_ddec_charge
 _atom_site_pbe_ddec_spin_density
 _atom_site_pbe_ddec_sum_bond_order
 _atom_site_pbe_magmom
Zn  Zn0  1  0.06178896  0.95757370  0.10805486  1  1.321158  0  0.672004  0.964289  0  2.380068  0
Zn  Zn1  1  0.06712048  0.95851262  0.93588557  1  1.30947  0  0.672164  0.96519  0  2.379749  0
Zn  Zn2  1  0.06790776  0.13325513  0.11111416  1  1.308905  0  0.672135  0.964966  0  2.372224  0
Zn  Zn3  1  0.89219289  0.96197878  0.93449802  1  1.312315  0  0.671721  0.96519  0  2.370275  0
Zn  Zn4  1  0.47810628  0.54481993  0.93656607  1  1.305857  0  0.672123  0.940324  0  2.42828  0
Zn  Zn5  1  0.48029958  0.54642956  0.11198167  1  1.315975  0  0.672119  0.953363  0  2.39151  0
Zn  Zn6  1  0.65463122  0.54829293  0.10953656  1  1.311417  0  0.670835  0.967477  0  2.356533  0
Zn  Zn7  1  0.48037573  0.37182211  0.93664181  1  1.317376  0  0.67246  0.961557  0  2.369737  0
H  H8  1  0.17723039  0.75093786  0.08415678  1  0.094641  0  0.109093  0.116237  0  0.989985  0
H  H9  1  0.27790406  0.65836641  0.08525009  1  0.082715  0  0.107929  0.114086  0  0.993697  0
H  H10  1  0.38207659  0.72582051  0.90615317  1  0.083167  0  0.09687  0.140433  0  0.988242  0
H  H11  1  0.40512846  0.84287816  0.98508410  1  0.018194  0  0.09159  0.124536  0  0.999595  0
H  H12  1  0.47003384  0.78792812  0.03723258  1  0.04035  0  0.095039  0.136698  0  0.990981  0
H  H13  1  0.28190224  0.86329130  0.98511801  1  0.096286  0  0.106279  0.114427  0  1.002635  0
H  H14  1  0.24543229  0.08923441  0.42985637  1  0.090153  0  0.108884  0.116025  0  0.991288  0
H  H15  1  0.33993573  0.18955203  0.62264037  1  0.099074  0  0.107802  0.114278  0  0.995262  0
H  H16  1  0.33223054  0.48299860  0.66280356  1  0.063253  0  0.09638  0.140261  0  0.991182  0
H  H17  1  0.21701160  0.44486842  0.56381650  1  0.007011  0  0.090712  0.122977  0  1.002486  0
H  H18  1  0.25304246  0.45858649  0.68156488  1  0.044286  0  0.095829  0.13901  0  0.989959  0
H  H19  1  0.17684368  0.30996103  0.42223245  1  0.093808  0  0.106303  0.114998  0  1.004875  0
H  H20  1  0.92190911  0.82267441  0.14782394  1  0.108609  0  0.109181  0.117103  0  0.993992  0
H  H21  1  0.82390368  0.72190387  0.14222021  1  0.117667  0  0.10849  0.114577  0  0.993718  0
H  H22  1  0.53297659  0.65940982  0.82668332  1  0.046069  0  0.096483  0.139489  0  0.989607  0
H  H23  1  0.57607593  0.63458084  0.75145957  1  0.027995  0  0.090893  0.12367  0  1.000782  0
H  H24  1  0.56257891  0.56268090  0.78596010  1  0.056102  0  0.095047  0.136946  0  0.992416  0
H  H25  1  0.70604199  0.74781698  0.84992722  1  0.077927  0  0.106181  0.114329  0  1.001605  0
H  H26  1  0.20649715  0.09458693  0.89081851  1  0.084735  0  0.1087  0.116098  0  0.992496  0
H  H27  1  0.30571168  0.19480556  0.89705705  1  0.090893  0  0.108195  0.11435  0  0.992701  0
H  H28  1  0.37780333  0.48318252  0.22250007  1  0.053874  0  0.097314  0.141871  0  0.988529  0
H  H29  1  0.40094049  0.43624728  0.29364340  1  0.026176  0  0.090978  0.123683  0  1.00167  0
H  H30  1  0.47195488  0.44941743  0.25800711  1  0.022413  0  0.095173  0.136933  0  0.988622  0
H  H31  1  0.28658251  0.30669155  0.19369121  1  0.062832  0  0.1063  0.114626  0  1.001639  0
H  H32  1  0.93146716  0.77138737  0.61500844  1  0.1028  0  0.108785  0.116246  0  0.993038  0
H  H33  1  0.83165123  0.67810949  0.42220552  1  0.09688  0  0.108164  0.11395  0  0.991878  0
H  H34  1  0.54446892  0.71730763  0.38921272  1  0.053737  0  0.097367  0.141276  0  0.987164  0
H  H35  1  0.59008213  0.83524316  0.47983504  1  0.017721  0  0.091635  0.12451  0  0.99935  0
H  H36  1  0.57592057  0.78344282  0.35918649  1  0.041731  0  0.094537  0.135714  0  0.991304  0
H  H37  1  0.72052885  0.86572396  0.62482635  1  0.102074  0  0.106081  0.114313  0  1.003274  0
H  H38  1  0.93403250  0.32032874  0.10238168  1  0.07977  0  0.108352  0.115064  0  0.992922  0
H  H39  1  0.83417644  0.41388273  0.10188659  1  0.104224  0  0.108027  0.113854  0  0.991347  0
H  H40  1  0.54682905  0.15987293  0.88752581  1  0.063852  0  0.097687  0.141602  0  0.984395  0
H  H41  1  0.59345075  0.11930131  0.96566232  1  0.021369  0  0.091249  0.124167  0  1.000393  0
H  H42  1  0.57715322  0.22485250  0.01465732  1  0.058382  0  0.094245  0.136539  0  0.993377  0
H  H43  1  0.72235122  0.10166719  0.97636065  1  0.079127  0  0.105807  0.114145  0  1.002541  0
C  C44  1  0.16166027  0.86472143  0.02740162  1  1.555148  0  0.228629  0.60683  0  4.159151  0
C  C45  1  0.22285618  0.81101891  0.03225822  1  -0.052283  0  -0.014436  -0.021176  0  3.995529  0
C  C46  1  0.22210482  0.75463018  0.06262052  1  0.015341  0  -0.085009  -0.103644  0  3.9928  0
C  C47  1  0.27803789  0.70370792  0.06333622  1  -0.018862  0  -0.083204  -0.090464  0  3.998232  0
C  C48  1  0.33540523  0.70845635  0.03485850  1  -0.023317  0  -0.014351  -0.097336  0  3.916359  0
C  C49  1  0.38901150  0.64710742  0.03166781  1  1.510977  0  0.228405  0.608518  0  4.159588  0
C  C50  1  0.33936251  0.76785663  0.00790236  1  -0.014446  0  0.005768  0.168204  0  3.926661  0
C  C51  1  0.40261975  0.78201823  0.98291591  1  -0.048694  0  -0.238445  -0.411867  0  3.979629  0
C  C52  1  0.28154828  0.81752635  0.00649805  1  -0.021126  0  -0.083392  -0.15981  0  3.926975  0
C  C53  1  0.15198644  0.13736029  0.30000897  1  1.552125  0  0.22843  0.60414  0  4.159419  0
C  C54  1  0.20652752  0.19458601  0.41500470  1  0.014519  0  -0.013699  -0.021249  0  3.991851  0
C  C55  1  0.25151134  0.15938480  0.47077048  1  0.010924  0  -0.084735  -0.102658  0  3.989217  0
C  C56  1  0.30372101  0.21512091  0.57751393  1  0.012695  0  -0.082373  -0.088471  0  3.993418  0
C  C57  1  0.31223209  0.30589666  0.63043365  1  -0.122965  0  -0.013902  -0.097648  0  3.904467  0
C  C58  1  0.37344436  0.36141247  0.74533309  1  1.536913  0  0.228293  0.607765  0  4.155106  0
C  C59  1  0.26530760  0.34194240  0.57485076  1  -0.001867  0  0.006746  0.17062  0  3.915737  0
C  C60  1  0.26678460  0.43711555  0.62318724  1  -0.013657  0  -0.238877  -0.412157  0  3.980029  0
C  C61  1  0.21337098  0.28441392  0.46737966  1  -0.055112  0  -0.083765  -0.160949  0  3.925251  0
C  C62  1  0.87603686  0.85476978  0.00484746  1  1.572773  0  0.229427  0.60743  0  4.157628  0
C  C63  1  0.81865180  0.79214080  0.99966792  1  -0.073719  0  -0.014445  -0.02231  0  3.994349  0
C  C64  1  0.85324553  0.78426110  0.08206104  1  -0.006846  0  -0.085455  -0.103401  0  3.991633  0
C  C65  1  0.79887394  0.72848324  0.07868180  1  -0.053191  0  -0.082647  -0.088383  0  3.998428  0
C  C66  1  0.70989513  0.68014614  0.99431053  1  -0.058462  0  -0.013238  -0.094821  0  3.911472  0
C  C67  1  0.65520864  0.62750578  0.00202125  1  1.545853  0  0.228883  0.609423  0  4.159133  0
C  C68  1  0.67476273  0.68508843  0.90880711  1  0.06745  0  0.005534  0.167725  0  3.922994  0
C  C69  1  0.58171775  0.63245433  0.81296602  1  -0.044727  0  -0.239147  -0.413817  0  3.984091  0
C  C70  1  0.73091763  0.74195047  0.91407184  1  -0.019464  0  -0.083299  -0.160178  0  3.924489  0
C  C71  1  0.17495059  0.13971271  0.03515801  1  1.571679  0  0.228689  0.6058  0  4.159093  0
C  C72  1  0.23906297  0.19622591  0.04115265  1  -0.02218  0  -0.014922  -0.022528  0  3.994123  0
C  C73  1  0.24570653  0.16291914  0.95786794  1  -0.074446  0  -0.085484  -0.103856  0  3.991342  0
C  C74  1  0.30076168  0.21848392  0.96166447  1  -0.018669  0  -0.083089  -0.090074  0  3.997362  0
C  C75  1  0.34977520  0.30719897  0.04746781  1  -0.003084  0  -0.013407  -0.094806  0  3.910189  0
C  C76  1  0.39990090  0.36418153  0.03969161  1  1.564205  0  0.22958  0.611219  0  4.155947  0
C  C77  1  0.34744151  0.34027395  0.13454906  1  -0.007641  0  0.005418  0.167901  0  3.925927  0
C  C78  1  0.40255956  0.43214787  0.23251947  1  -0.014718  0  -0.238369  -0.413505  0  3.981359  0
C  C79  1  0.29105023  0.28317814  0.12869301  1  0.031629  0  -0.083168  -0.160032  0  3.925991  0
C  C80  1  0.88792410  0.87633551  0.74587705  1  1.568041  0  0.229239  0.606728  0  4.154234  0
C  C81  1  0.83085203  0.82281681  0.63099477  1  -0.057379  0  -0.015511  -0.025464  0  3.991342  0
C  C82  1  0.86347983  0.77096934  0.57454471  1  -0.047083  0  -0.084994  -0.102546  0  3.990114  0
C  C83  1  0.80797532  0.71930807  0.46779431  1  -0.017016  0  -0.082877  -0.09088  0  3.996737  0
C  C84  1  0.71976688  0.71771837  0.41586932  1  -0.007468  0  -0.012322  -0.091691  0  3.90938  0
C  C85  1  0.66310932  0.65514597  0.30104478  1  1.556382  0  0.22885  0.610969  0  4.156059  0
C  C86  1  0.68658588  0.77171427  0.47186594  1  -0.023735  0  0.004597  0.16447  0  3.928309  0
C  C87  1  0.59448894  0.77744428  0.42253569  1  -0.012072  0  -0.237798  -0.410422  0  3.978881  0
C  C88  1  0.74388297  0.82347724  0.57926934  1  -0.035377  0  -0.083045  -0.157451  0  3.924737  0
C  C89  1  0.88929697  0.14627283  0.03228853  1  1.551131  0  0.227727  0.605902  0  4.155343  0
C  C90  1  0.83278084  0.20472655  0.03703392  1  0.010333  0  -0.015644  -0.026321  0  3.995792  0
C  C91  1  0.86587594  0.29341591  0.07445124  1  -0.036262  0  -0.085004  -0.101126  0  3.988436  0
C  C92  1  0.81042509  0.34489843  0.07387378  1  -0.071019  0  -0.082956  -0.091819  0  3.996872  0
C  C93  1  0.72210657  0.30924086  0.03609780  1  0.04206  0  -0.012313  -0.091627  0  3.913463  0
C  C94  1  0.66539907  0.36744628  0.03163653  1  1.555699  0  0.229518  0.613377  0  4.15445  0
C  C95  1  0.68872941  0.22078382  0.00163730  1  -0.031523  0  0.00481  0.165561  0  3.929439  0
C  C96  1  0.59674327  0.17905862  0.96572771  1  -0.054247  0  -0.238198  -0.411983  0  3.977064  0
C  C97  1  0.74579489  0.17025689  0.00287711  1  -0.014343  0  -0.083049  -0.157648  0  3.926218  0
O  O98  1  0.02240472  0.00274449  0.02233182  1  -1.214313  0  -0.574439  -1.03211  0  2.545262  0
O  O99  1  0.14956404  0.89603974  0.97510612  1  -1.16797  0  -0.31537  -0.548369  0  2.334842  0
O  O100  1  0.12641791  0.87473037  0.07557718  1  -1.16475  0  -0.315118  -0.546594  0  2.324805  0
O  O101  1  0.40445798  0.61861073  0.08740226  1  -1.17317  0  -0.316394  -0.550034  0  2.334161  0
O  O102  1  0.41381881  0.62626494  0.97176444  1  -1.157421  0  -0.308634  -0.538262  0  2.377785  0
O  O103  1  0.12317032  0.17686817  0.25547783  1  -1.173062  0  -0.315151  -0.547261  0  2.338494  0
O  O104  1  0.13899281  0.05380747  0.25564184  1  -1.171877  0  -0.313981  -0.544199  0  2.324324  0
O  O105  1  0.39825404  0.32076091  0.78911068  1  -1.174922  0  -0.316042  -0.548855  0  2.328099  0
O  O106  1  0.39770146  0.44573801  0.79155057  1  -1.154271  0  -0.308341  -0.539288  0  2.39321  0
O  O107  1  0.83908970  0.86938623  0.93525988  1  -1.176714  0  -0.315755  -0.545694  0  2.316008  0
O  O108  1  0.95784183  0.88946886  0.07979184  1  -1.187344  0  -0.315594  -0.550257  0  2.348813  0
O  O109  1  0.69668096  0.60565435  0.06429919  1  -1.177873  0  -0.31679  -0.55308  0  2.336152  0
O  O110  1  0.57128842  0.61042541  0.94782797  1  -1.16428  0  -0.308287  -0.535563  0  2.37469  0
O  O111  1  0.15976939  0.17854124  0.10433163  1  -1.178021  0  -0.316209  -0.547755  0  2.328023  0
O  O112  1  0.13950024  0.05751065  0.96040418  1  -1.178959  0  -0.314407  -0.546344  0  2.335851  0
O  O113  1  0.42142071  0.32430099  0.97653624  1  -1.177929  0  -0.316581  -0.553513  0  2.340227  0
O  O114  1  0.41504344  0.44793700  0.09431528  1  -1.176291  0  -0.308367  -0.538182  0  2.365115  0
O  O115  1  0.85043287  0.91242561  0.79173078  1  -1.17407  0  -0.31647  -0.549818  0  2.329937  0
O  O116  1  0.96955888  0.88117544  0.78918588  1  -1.176184  0  -0.315056  -0.546554  0  2.325075  0
O  O117  1  0.70238223  0.63612435  0.25562449  1  -1.165408  0  -0.31627  -0.550771  0  2.323424  0
O  O118  1  0.58006661  0.62403966  0.25754879  1  -1.168948  0  -0.309265  -0.541524  0  2.368854  0
O  O119  1  0.85097440  0.06347605  0.98469845  1  -1.168812  0  -0.316703  -0.550092  0  2.331421  0
O  O120  1  0.97116879  0.18325114  0.07532853  1  -1.172014  0  -0.315262  -0.546737  0  2.320507  0
O  O121  1  0.70472818  0.45144782  0.09786439  1  -1.175057  0  -0.316939  -0.55073  0  2.323643  0
O  O122  1  0.58250055  0.32876803  0.96060267  1  -1.186615  0  -0.309961  -0.54235  0  2.359195  0
O  O123  1  0.52412332  0.50243993  0.02462675  1  -1.224977  0  -0.573729  -1.025906  0  2.551342  0
