# generated using pymatgen
data_BiH27C24(SO3)2
_symmetry_space_group_name_H-M   'P 1'
_cell_length_a   9.97222322
_cell_length_b   10.90560516
_cell_length_c   12.14298177
_cell_angle_alpha   114.70115857
_cell_angle_beta   89.99986534
_cell_angle_gamma   89.99978496
_symmetry_Int_Tables_number   1
_chemical_formula_structural   BiH27C24(SO3)2
_chemical_formula_sum   'Bi2 H54 C48 S4 O12'
_cell_volume   1199.75316856
_cell_formula_units_Z   2
loop_
 _symmetry_equiv_pos_site_id
 _symmetry_equiv_pos_as_xyz
  1  'x, y, z'
loop_
 _atom_site_type_symbol
 _atom_site_label
 _atom_site_symmetry_multiplicity
 _atom_site_fract_x
 _atom_site_fract_y
 _atom_site_fract_z
 _atom_site_occupancy
 _atom_site_pbe_bader_spin_density
 _atom_site_pbe_cm5_charge
 _atom_site_pbe_ddec_charge
 _atom_site_pbe_ddec_spin_density
 _atom_site_pbe_ddec_sum_bond_order
 _atom_site_pbe_magmom
Bi  Bi0  1  0.69821846  0.95520429  0.00453705  1  0  0.79002  1.244221  0  2.630084  0
Bi  Bi1  1  0.19821706  0.04479250  0.99546521  1  0  0.79001  1.244168  0  2.630043  0
H  H2  1  0.79565936  0.65605545  0.96301603  1  0  0.099853  0.099708  0  1.024641  0
H  H3  1  0.29566250  0.34393077  0.03697382  1  0  0.099838  0.099701  0  1.024645  0
H  H4  1  0.69151961  0.43399981  0.92047199  1  0  0.101658  0.100084  0  1.02574  0
H  H5  1  0.19152773  0.56599200  0.07951852  1  0  0.101648  0.100058  0  1.025724  0
H  H6  1  0.44468704  0.41008106  0.91797739  1  0  0.099797  0.098813  0  1.024902  0
H  H7  1  0.94469473  0.58991547  0.08201854  1  0  0.099814  0.098852  0  1.024965  0
H  H8  1  0.29890464  0.61109236  0.95559347  1  0  0.099969  0.098464  0  1.031229  0
H  H9  1  0.79890825  0.38891702  0.04441582  1  0  0.099955  0.098425  0  1.0312  0
H  H10  1  0.40105286  0.83080644  0.99496393  1  0  0.086491  0.051118  0  1.104081  0
H  H11  1  0.90104947  0.16920236  0.00505483  1  0  0.086498  0.051073  0  1.104157  0
H  H12  1  0.91373364  0.28856309  0.57751722  1  0  0.100261  0.10827  0  1.009207  0
H  H13  1  0.41373215  0.71143966  0.42248194  1  0  0.100254  0.108288  0  1.009197  0
H  H14  1  0.16407500  0.95652667  0.54818277  1  0  0.102875  0.115899  0  1.001054  0
H  H15  1  0.66407284  0.04347638  0.45181697  1  0  0.102859  0.11588  0  1.00103  0
H  H16  1  0.81495044  0.30468429  0.42116345  1  0  0.089074  0.130791  0  1.015768  0
H  H17  1  0.31495559  0.69531191  0.57883342  1  0  0.089056  0.130789  0  1.015757  0
H  H18  1  0.75260474  0.14853922  0.31286625  1  0  0.088206  0.132072  0  1.040927  0
H  H19  1  0.25260593  0.85145831  0.68713289  1  0  0.088207  0.132077  0  1.040927  0
H  H20  1  0.88871972  0.22697132  0.27481288  1  0  0.090849  0.13959  0  1.024154  0
H  H21  1  0.38872212  0.77302447  0.72518700  1  0  0.090851  0.139577  0  1.024124  0
H  H22  1  0.04211428  0.30132094  0.75384156  1  0  0.087885  0.126296  0  1.00432  0
H  H23  1  0.54211002  0.69868275  0.24615619  1  0  0.087898  0.126279  0  1.004268  0
H  H24  1  0.16206575  0.17355314  0.73882712  1  0  0.089404  0.136784  0  1.015393  0
H  H25  1  0.66206092  0.82644791  0.26116859  1  0  0.089379  0.136739  0  1.01546  0
H  H26  1  0.99082681  0.14724592  0.75687253  1  0  0.091648  0.140142  0  1.023336  0
H  H27  1  0.49082225  0.85275944  0.24312912  1  0  0.091613  0.140083  0  1.023336  0
H  H28  1  0.08962106  0.73302723  0.25796625  1  0  0.088334  0.125576  0  1.040334  0
H  H29  1  0.58961715  0.26697115  0.74203353  1  0  0.088289  0.125514  0  1.040376  0
H  H30  1  0.20797454  0.78421208  0.37808075  1  0  0.086237  0.121503  0  1.0322  0
H  H31  1  0.70797218  0.21578770  0.62191851  1  0  0.086238  0.121496  0  1.032212  0
H  H32  1  0.23388762  0.82272631  0.25074315  1  0  0.095484  0.151034  0  0.996637  0
H  H33  1  0.73388606  0.17727233  0.74925563  1  0  0.095498  0.151066  0  0.996606  0
H  H34  1  0.16661908  0.44085946  0.57602251  1  0  0.10015  0.111329  0  1.022185  0
H  H35  1  0.66661890  0.55914257  0.42397438  1  0  0.100219  0.111438  0  1.022071  0
H  H36  1  0.95674585  0.58062724  0.34234162  1  0  0.097675  0.10348  0  1.023535  0
H  H37  1  0.45674388  0.41937730  0.65765649  1  0  0.09768  0.103453  0  1.023585  0
H  H38  1  0.15540444  0.54066662  0.77590882  1  0  0.091175  0.127652  0  1.008931  0
H  H39  1  0.65540524  0.45933042  0.22408785  1  0  0.091196  0.1277  0  1.00894  0
H  H40  1  0.01712001  0.64604536  0.85127418  1  0  0.093093  0.146298  0  1.016875  0
H  H41  1  0.51712246  0.35395440  0.14872626  1  0  0.093111  0.146328  0  1.016882  0
H  H42  1  0.16791675  0.71857125  0.83295604  1  0  0.088279  0.117306  0  1.038954  0
H  H43  1  0.66791744  0.28142874  0.16704255  1  0  0.088264  0.117306  0  1.039002  0
H  H44  1  0.07309290  0.36937739  0.25521456  1  0  0.08699  0.126921  0  1.04557  0
H  H45  1  0.57308749  0.63062512  0.74478516  1  0  0.086982  0.12689  0  1.045577  0
H  H46  1  0.13649203  0.29262682  0.34822631  1  0  0.089185  0.131167  0  1.026831  0
H  H47  1  0.63649058  0.70737738  0.65177392  1  0  0.089167  0.131108  0  1.026894  0
H  H48  1  0.23337092  0.41363210  0.32233387  1  0  0.090967  0.134713  0  1.000543  0
H  H49  1  0.73336788  0.58636957  0.67766523  1  0  0.09096  0.134717  0  1.000556  0
H  H50  1  0.82753448  0.75913022  0.40684403  1  0  0.088571  0.127265  0  1.001443  0
H  H51  1  0.32753544  0.24087599  0.59315908  1  0  0.088588  0.127301  0  1.001368  0
H  H52  1  0.87681389  0.89993678  0.54027887  1  0  0.092426  0.140758  0  1.026207  0
H  H53  1  0.37681280  0.10006716  0.45972410  1  0  0.092445  0.140786  0  1.026212  0
H  H54  1  0.74061978  0.80147187  0.54595616  1  0  0.089104  0.125291  0  1.056461  0
H  H55  1  0.24062031  0.19853378  0.45404772  1  0  0.089097  0.125272  0  1.056488  0
C  C56  1  0.60538861  0.75823110  0.98136708  1  0  -0.103576  -0.220761  0  3.856396  0
C  C57  1  0.10538119  0.24176414  0.01863971  1  0  -0.103562  -0.220717  0  3.856161  0
C  C58  1  0.68678897  0.64664744  0.96213184  1  0  -0.091535  -0.066712  0  4.027638  0
C  C59  1  0.18678806  0.35334437  0.03786609  1  0  -0.091543  -0.066805  0  4.027662  0
C  C60  1  0.62832086  0.52178615  0.93878096  1  0  -0.090808  -0.081347  0  3.979751  0
C  C61  1  0.12832337  0.47820599  0.06121308  1  0  -0.090831  -0.081311  0  3.979813  0
C  C62  1  0.48889360  0.50815100  0.93635925  1  0  -0.091464  -0.083173  0  3.998844  0
C  C63  1  0.98889473  0.49184732  0.06363891  1  0  -0.091423  -0.083196  0  3.999064  0
C  C64  1  0.40771185  0.62010407  0.95725269  1  0  -0.093489  -0.089256  0  3.987662  0
C  C65  1  0.90771349  0.37990171  0.04275503  1  0  -0.093525  -0.089268  0  3.987636  0
C  C66  1  0.46588916  0.74471779  0.97956871  1  0  -0.095681  -0.059884  0  4.055595  0
C  C67  1  0.96588135  0.25528867  0.02044411  1  0  -0.095662  -0.059774  0  4.055405  0
C  C68  1  0.00469154  0.01187900  0.32632342  1  0  -0.025901  -0.235989  0  3.855915  0
C  C69  1  0.50468987  0.98811577  0.67367680  1  0  -0.025983  -0.236049  0  3.855809  0
C  C70  1  0.93886301  0.13510044  0.39755354  1  0  -0.002203  0.180749  0  3.975374  0
C  C71  1  0.43886138  0.86489814  0.60244399  1  0  -0.002161  0.18085  0  3.975232  0
C  C72  1  0.96097413  0.19178362  0.52269036  1  0  -0.097081  -0.229763  0  3.947117  0
C  C73  1  0.46097610  0.80821687  0.47730703  1  0  -0.097097  -0.229851  0  3.94707  0
C  C74  1  0.04103990  0.12984222  0.57923129  1  0  -0.000307  0.20144  0  3.999112  0
C  C75  1  0.54103844  0.87016046  0.42076773  1  0  -0.000276  0.201453  0  3.999138  0
C  C76  1  0.10088047  0.00678924  0.50616978  1  0  -0.091598  -0.20538  0  3.891576  0
C  C77  1  0.60087730  0.99320908  0.49382913  1  0  -0.091607  -0.205367  0  3.891604  0
C  C78  1  0.08610068  0.94543428  0.37992277  1  0  0.006669  0.198922  0  3.942573  0
C  C79  1  0.58609699  0.05456411  0.62007702  1  0  0.006712  0.198917  0  3.942541  0
C  C80  1  0.84428523  0.20774891  0.34867812  1  0  -0.252437  -0.436679  0  3.947364  0
C  C81  1  0.34428776  0.79224713  0.65132028  1  0  -0.252401  -0.43666  0  3.947279  0
C  C82  1  0.06071423  0.19209729  0.71394506  1  0  -0.242961  -0.424136  0  3.938853  0
C  C83  1  0.56071041  0.80790529  0.28605389  1  0  -0.242925  -0.423983  0  3.938751  0
C  C84  1  0.15821736  0.81402277  0.31267770  1  0  -0.246951  -0.42567  0  3.951257  0
C  C85  1  0.65821394  0.18597425  0.68732143  1  0  -0.246929  -0.425638  0  3.951221  0
C  C86  1  0.97096061  0.71907117  0.64964878  1  0  -0.025599  -0.236973  0  3.870459  0
C  C87  1  0.47096411  0.28093329  0.35035256  1  0  -0.025615  -0.236974  0  3.87047  0
C  C88  1  0.05465257  0.62322416  0.66677009  1  0  -0.001742  0.181249  0  3.967451  0
C  C89  1  0.55465641  0.37677340  0.33322697  1  0  -0.001778  0.181243  0  3.967418  0
C  C90  1  0.10139578  0.51444177  0.56364536  1  0  -0.097103  -0.222494  0  3.926128  0
C  C91  1  0.60139386  0.48555858  0.43635184  1  0  -0.097115  -0.222555  0  3.926291  0
C  C92  1  0.07040991  0.49880800  0.44620484  1  0  -0.001407  0.205758  0  4.000906  0
C  C93  1  0.57040959  0.50119251  0.55379331  1  0  -0.001407  0.205694  0  4.001087  0
C  C94  1  0.98446970  0.59285073  0.43337734  1  0  -0.09732  -0.218817  0  3.921394  0
C  C95  1  0.48446705  0.40715265  0.56662111  1  0  -0.0974  -0.218852  0  3.921529  0
C  C96  1  0.93275970  0.70396600  0.53248217  1  0  0.001092  0.185483  0  3.971784  0
C  C97  1  0.43276280  0.29603361  0.46751823  1  0  0.001135  0.185557  0  3.971693  0
C  C98  1  0.10011566  0.63236377  0.78815241  1  0  -0.245827  -0.424722  0  3.954085  0
C  C99  1  0.60011788  0.36763457  0.21184485  1  0  -0.245853  -0.424809  0  3.954057  0
C  C100  1  0.13051224  0.38741120  0.33734681  1  0  -0.245324  -0.420051  0  3.934732  0
C  C101  1  0.63050914  0.61259201  0.66265471  1  0  -0.245295  -0.419966  0  3.934721  0
C  C102  1  0.83975120  0.79604001  0.50527726  1  0  -0.250258  -0.43468  0  3.978531  0
C  C103  1  0.33975159  0.20396411  0.49472586  1  0  -0.250302  -0.434747  0  3.978533  0
S  S104  1  0.98101978  0.94313700  0.16647294  1  0  0.53371  1.186265  0  6.02659  0
S  S105  1  0.48101379  0.05686135  0.83352772  1  0  0.533679  1.186241  0  6.02653  0
S  S106  1  0.92548480  0.86618245  0.78005935  1  0  0.536472  1.187178  0  6.044179  0
S  S107  1  0.42548126  0.13381718  0.21994437  1  0  0.536418  1.187112  0  6.044286  0
O  O108  1  0.83285731  0.91803165  0.14995148  1  0  -0.312109  -0.582842  0  2.293992  0
O  O109  1  0.33285117  0.08196040  0.85004627  1  0  -0.312077  -0.582807  0  2.294212  0
O  O110  1  0.01566121  0.05343066  0.12733750  1  0  -0.318791  -0.624657  0  2.348969  0
O  O111  1  0.51566315  0.94656810  0.87266256  1  0  -0.318772  -0.624661  0  2.349004  0
O  O112  1  0.06037286  0.82281122  0.10393837  1  0  -0.310696  -0.555418  0  2.211918  0
O  O113  1  0.56036587  0.17718832  0.89606190  1  0  -0.310698  -0.555439  0  2.211675  0
O  O114  1  0.86816355  0.81798759  0.86940290  1  0  -0.314064  -0.600983  0  2.319722  0
O  O115  1  0.36816909  0.18201236  0.13059694  1  0  -0.314069  -0.600966  0  2.31972  0
O  O116  1  0.05623209  0.93578916  0.82470091  1  0  -0.319724  -0.601786  0  2.352476  0
O  O117  1  0.55623065  0.06420433  0.17529956  1  0  -0.319682  -0.601802  0  2.352438  0
O  O118  1  0.83010975  0.94998875  0.75289277  1  0  -0.307642  -0.557347  0  2.232656  0
O  O119  1  0.33010447  0.05001945  0.24711519  1  0  -0.30757  -0.557306  0  2.232953  0
