# generated using pymatgen
data_CdH32C34Br4(N2O3)2
_symmetry_space_group_name_H-M   'P 1'
_cell_length_a   9.10908442
_cell_length_b   9.42544257
_cell_length_c   11.79125928
_cell_angle_alpha   96.95243688
_cell_angle_beta   97.65157693
_cell_angle_gamma   117.13923215
_symmetry_Int_Tables_number   1
_chemical_formula_structural   CdH32C34Br4(N2O3)2
_chemical_formula_sum   'Cd1 H32 C34 Br4 N4 O6'
_cell_volume   873.71112112
_cell_formula_units_Z   1
loop_
 _symmetry_equiv_pos_site_id
 _symmetry_equiv_pos_as_xyz
  1  'x, y, z'
loop_
 _atom_site_type_symbol
 _atom_site_label
 _atom_site_symmetry_multiplicity
 _atom_site_fract_x
 _atom_site_fract_y
 _atom_site_fract_z
 _atom_site_occupancy
 _atom_site_hle17_bader_spin_density
 _atom_site_hle17_ddec_charge
 _atom_site_hle17_ddec_spin_density
 _atom_site_hle17_ddec_sum_bond_order
 _atom_site_hle17_magmom
 _atom_site_hse06_10hf_bader_spin_density
 _atom_site_hse06_10hf_ddec_charge
 _atom_site_hse06_10hf_ddec_spin_density
 _atom_site_hse06_10hf_ddec_sum_bond_order
 _atom_site_hse06_10hf_magmom
 _atom_site_hse06_bader_spin_density
 _atom_site_hse06_ddec_charge
 _atom_site_hse06_ddec_spin_density
 _atom_site_hse06_ddec_sum_bond_order
 _atom_site_hse06_magmom
 _atom_site_pbe_bader_spin_density
 _atom_site_pbe_cm5_charge
 _atom_site_pbe_ddec_charge
 _atom_site_pbe_ddec_spin_density
 _atom_site_pbe_ddec_sum_bond_order
 _atom_site_pbe_magmom
Cd  Cd0  1  0.00000029  0.00000098  0.49999857  1  0  1.16246  0  1.685358  0  0  0.9807  0  2.135043  0  0  1.033882  0  2.082831  0  0  0.766259  0.94326  0  2.172411  0
H  H1  1  0.71264803  0.14104595  0.92814098  1  0  0.097195  0  0.984223  0  0  0.104274  0  1.053765  0  0  0.106716  0  1.053908  0  0  0.095732  0.102775  0  1.053365  0
H  H2  1  0.28735827  0.85895659  0.07185993  1  0  0.097178  0  0.984112  0  0  0.104237  0  1.053689  0  0  0.106679  0  1.053831  0  0  0.095711  0.102739  0  1.053288  0
H  H3  1  0.46450393  0.17340283  0.12625259  1  0  0.092009  0  0.92819  0  0  0.109237  0  0.992241  0  0  0.110149  0  0.992382  0  0  0.095516  0.10877  0  0.99181  0
H  H4  1  0.53550064  0.82659849  0.87374719  1  0  0.092069  0  0.928191  0  0  0.109255  0  0.992276  0  0  0.110165  0  0.992417  0  0  0.095532  0.10879  0  0.991842  0
H  H5  1  0.61722957  0.37660402  0.14628853  1  0  0.072604  0  0.950653  0  0  0.089275  0  1.017478  0  0  0.089691  0  1.018525  0  0  0.087045  0.089258  0  1.016199  0
H  H6  1  0.38277379  0.62339487  0.85371175  1  0  0.072626  0  0.950618  0  0  0.089286  0  1.017442  0  0  0.0897  0  1.01849  0  0  0.087068  0.089268  0  1.016162  0
H  H7  1  0.67271892  0.63834484  0.49200792  1  0  0.069131  0  0.942136  0  0  0.079076  0  1.005836  0  0  0.081659  0  1.003052  0  0  0.11226  0.077272  0  1.007593  0
H  H8  1  0.32728587  0.36166135  0.50799150  1  0  0.069129  0  0.942209  0  0  0.07908  0  1.005898  0  0  0.081664  0  1.003116  0  0  0.112257  0.077274  0  1.007657  0
H  H9  1  0.63366644  0.87338659  0.41261285  1  0  0.385141  0  0.937357  0  0  0.341864  0  1.020733  0  0  0.353973  0  1.003633  0  0  0.27246  0.333415  0  1.032618  0
H  H10  1  0.36633581  0.12661230  0.58738647  1  0  0.385175  0  0.937328  0  0  0.34187  0  1.020729  0  0  0.353979  0  1.003631  0  0  0.272471  0.333422  0  1.032614  0
H  H11  1  0.69514863  0.92481921  0.55843881  1  0  0.405894  0  0.903433  0  0  0.373789  0  0.969777  0  0  0.385719  0  0.952299  0  0  0.278087  0.36528  0  0.982208  0
H  H12  1  0.30484809  0.07517970  0.44156082  1  0  0.405893  0  0.903426  0  0  0.373781  0  0.969778  0  0  0.38571  0  0.952302  0  0  0.27807  0.365272  0  0.98221  0
H  H13  1  0.56399765  0.34592904  0.39722720  1  0  0.113561  0  0.951499  0  0  0.124429  0  1.010629  0  0  0.127954  0  1.009361  0  0  0.106356  0.121905  0  1.01168  0
H  H14  1  0.43600384  0.65407718  0.60277359  1  0  0.113521  0  0.951541  0  0  0.124387  0  1.010679  0  0  0.127912  0  1.009412  0  0  0.106338  0.121861  0  1.01173  0
H  H15  1  0.64345638  0.13094892  0.71733736  1  0  0.076759  0  0.954351  0  0  0.084345  0  1.021145  0  0  0.087342  0  1.017947  0  0  0.108327  0.082119  0  1.023481  0
H  H16  1  0.35654872  0.86905119  0.28266490  1  0  0.076817  0  0.954354  0  0  0.084386  0  1.021161  0  0  0.087383  0  1.017964  0  0  0.108346  0.08216  0  1.023498  0
H  H17  1  0.62056471  0.13836039  0.30496963  1  0  0.090694  0  0.937901  0  0  0.108115  0  0.995843  0  0  0.109207  0  0.995885  0  0  0.096553  0.107103  0  0.996206  0
H  H18  1  0.37943154  0.86163975  0.69503177  1  0  0.090652  0  0.937913  0  0  0.108096  0  0.995827  0  0  0.10919  0  0.995867  0  0  0.09654  0.107083  0  0.996191  0
H  H19  1  0.83269109  0.18024870  0.31402242  1  0  0.103483  0  0.925202  0  0  0.118647  0  0.986281  0  0  0.120138  0  0.986124  0  0  0.098079  0.11736  0  0.986784  0
H  H20  1  0.16730629  0.81975145  0.68598078  1  0  0.103458  0  0.925217  0  0  0.118637  0  0.986286  0  0  0.120129  0  0.986129  0  0  0.098073  0.117348  0  0.986791  0
H  H21  1  0.05491955  0.48565637  0.31923621  1  0  0.094511  0  0.980917  0  0  0.102009  0  1.050401  0  0  0.105083  0  1.049794  0  0  0.092719  0.099828  0  1.050942  0
H  H22  1  0.94508090  0.51433888  0.68076513  1  0  0.094495  0  0.980966  0  0  0.101965  0  1.050488  0  0  0.105045  0  1.049882  0  0  0.092661  0.099782  0  1.05103  0
H  H23  1  0.14283791  0.77162697  0.41634433  1  0  0.084836  0  0.947498  0  0  0.0954  0  1.00837  0  0  0.097707  0  1.006013  0  0  0.115024  0.093702  0  1.010096  0
H  H24  1  0.85716596  0.22837070  0.58365672  1  0  0.084815  0  0.947477  0  0  0.095378  0  1.008361  0  0  0.097684  0  1.006004  0  0  0.115009  0.093679  0  1.010086  0
H  H25  1  0.38247738  0.34596233  0.97738564  1  0  0.089259  0  1.000793  0  0  0.094746  0  1.074406  0  0  0.097559  0  1.074232  0  0  0.086975  0.092632  0  1.074816  0
H  H26  1  0.61752647  0.65403532  0.02261371  1  0  0.089232  0  1.000855  0  0  0.094703  0  1.074499  0  0  0.097516  0  1.074325  0  0  0.086953  0.092589  0  1.07491  0
H  H27  1  0.84104183  0.29031005  0.13119557  1  0  0.051189  0  0.96009  0  0  0.064847  0  1.034534  0  0  0.065486  0  1.034781  0  0  0.074882  0.064061  0  1.034971  0
H  H28  1  0.15896389  0.70969129  0.86880857  1  0  0.051219  0  0.960139  0  0  0.064829  0  1.0346  0  0  0.06549  0  1.034825  0  0  0.074895  0.064048  0  1.035027  0
H  H29  1  0.68581220  0.08480371  0.11059112  1  0  0.069505  0  0.945069  0  0  0.090953  0  1.000777  0  0  0.090789  0  1.003464  0  0  0.088763  0.091285  0  0.998402  0
H  H30  1  0.31419291  0.91519640  0.88941198  1  0  0.069554  0  0.94524  0  0  0.09104  0  1.000839  0  0  0.090876  0  1.00353  0  0  0.088811  0.091365  0  0.998471  0
H  H31  1  0.31500715  0.31573455  0.76186951  1  0  0.061662  0  0.969809  0  0  0.06552  0  1.046123  0  0  0.067879  0  1.044375  0  0  0.098972  0.063782  0  1.047278  0
H  H32  1  0.68499559  0.68426311  0.23812973  1  0  0.061702  0  0.969765  0  0  0.065541  0  1.046076  0  0  0.067896  0  1.044331  0  0  0.098995  0.063803  0  1.047233  0
C  C33  1  0.08827153  0.15228943  0.07506500  1  0  0.030383  0  3.688441  0  0  0.031192  0  3.963203  0  0  0.034553  0  3.982209  0  0  -0.021496  0.028331  0  3.951054  0
C  C34  1  0.91171753  0.84771192  0.92493073  1  0  0.030305  0  3.688375  0  0  0.031117  0  3.963118  0  0  0.034475  0  3.982129  0  0  -0.021508  0.028257  0  3.950967  0
C  C35  1  0.62630067  0.18474970  0.89642452  1  0  -0.183568  0  3.732834  0  0  -0.201759  0  3.98281  0  0  -0.209829  0  4.004929  0  0  -0.096345  -0.196488  0  3.967682  0
C  C36  1  0.37370674  0.81525284  0.10357735  1  0  -0.183467  0  3.732745  0  0  -0.201601  0  3.982679  0  0  -0.20967  0  4.004798  0  0  -0.096309  -0.196333  0  3.967555  0
C  C37  1  0.58460716  0.25268984  0.10249588  1  0  -0.168428  0  3.707581  0  0  -0.208244  0  3.950274  0  0  -0.209745  0  3.962839  0  0  -0.165638  -0.207438  0  3.941408  0
C  C38  1  0.41539741  0.74731147  0.89750390  1  0  -0.168457  0  3.707701  0  0  -0.208212  0  3.950311  0  0  -0.209712  0  3.96288  0  0  -0.165624  -0.207407  0  3.941444  0
C  C39  1  0.06103592  0.01327179  0.11973714  1  0  -0.093193  0  3.713926  0  0  -0.088611  0  3.965186  0  0  -0.090619  0  3.980667  0  0  -0.02028  -0.087869  0  3.955289  0
C  C40  1  0.93894925  0.98672837  0.88026149  1  0  -0.093159  0  3.713949  0  0  -0.088596  0  3.965108  0  0  -0.090601  0  3.980587  0  0  -0.020396  -0.087851  0  3.955205  0
C  C41  1  0.75344971  0.59900432  0.45262046  1  0  0.126999  0  3.752459  0  0  0.09595  0  4.009524  0  0  0.103439  0  4.028225  0  0  0.041393  0.091219  0  3.996389  0
C  C42  1  0.24655327  0.40099823  0.54738013  1  0  0.127061  0  3.752375  0  0  0.096004  0  4.009432  0  0  0.10349  0  4.028135  0  0  0.041447  0.091273  0  3.996297  0
C  C43  1  0.11521625  0.02926704  0.25072372  1  0  0.652892  0  3.988089  0  0  0.597607  0  4.298758  0  0  0.632157  0  4.290475  0  0  0.192988  0.574133  0  4.303848  0
C  C44  1  0.88476254  0.97072703  0.74927200  1  0  0.652463  0  3.988655  0  0  0.597377  0  4.299044  0  0  0.631926  0  4.290773  0  0  0.192957  0.573902  0  4.304127  0
C  C45  1  0.02661042  0.13924483  0.95675639  1  0  0.027129  0  3.691683  0  0  0.026662  0  3.96804  0  0  0.030172  0  3.987066  0  0  -0.021078  0.024279  0  3.955229  0
C  C46  1  0.97338255  0.86075772  0.04323899  1  0  0.027232  0  3.691499  0  0  0.026758  0  3.967894  0  0  0.030269  0  3.98692  0  0  -0.021061  0.024374  0  3.955085  0
C  C47  1  0.69390464  0.43678846  0.40039817  1  0  -0.183571  0  3.703174  0  0  -0.199968  0  3.946016  0  0  -0.208904  0  3.967885  0  0  -0.087673  -0.19393  0  3.930893  0
C  C48  1  0.30609787  0.56321532  0.59960504  1  0  -0.183522  0  3.703197  0  0  -0.199928  0  3.946044  0  0  -0.208855  0  3.967916  0  0  -0.087676  -0.19389  0  3.930918  0
C  C49  1  0.55263440  0.24420710  0.97270314  1  0  0.151792  0  3.721928  0  0  0.169245  0  3.956105  0  0  0.174658  0  3.977552  0  0  0.006905  0.165779  0  3.941575  0
C  C50  1  0.44736916  0.75579665  0.02729593  1  0  0.151853  0  3.721925  0  0  0.169248  0  3.956138  0  0  0.174664  0  3.977587  0  0  0.006907  0.165784  0  3.941609  0
C  C51  1  0.80066299  0.39146334  0.34907788  1  0  0.167691  0  3.712541  0  0  0.185182  0  3.943904  0  0  0.190785  0  3.966149  0  0  0.015761  0.181584  0  3.928902  0
C  C52  1  0.19933767  0.60853678  0.65092310  1  0  0.167739  0  3.712593  0  0  0.185246  0  3.943926  0  0  0.190829  0  3.966205  0  0  0.015818  0.181648  0  3.928919  0
C  C53  1  0.58694127  0.17855260  0.77694402  1  0  0.123314  0  3.739835  0  0  0.094055  0  3.997142  0  0  0.10122  0  4.013511  0  0  0.03645  0.089434  0  3.986087  0
C  C54  1  0.41305868  0.82144387  0.22305739  1  0  0.123106  0  3.739764  0  0  0.09386  0  3.997063  0  0  0.101024  0  4.013433  0  0  0.036333  0.08924  0  3.986011  0
C  C55  1  0.74120024  0.22109087  0.28478703  1  0  -0.169846  0  3.665685  0  0  -0.209007  0  3.908124  0  0  -0.210897  0  3.919764  0  0  -0.161366  -0.207605  0  3.900386  0
C  C56  1  0.25879872  0.77890804  0.71521451  1  0  -0.1698  0  3.665671  0  0  -0.209005  0  3.90807  0  0  -0.210897  0  3.919726  0  0  -0.161357  -0.207601  0  3.900327  0
C  C57  1  0.96552811  0.51427204  0.35593781  1  0  -0.178204  0  3.728806  0  0  -0.194624  0  3.9756  0  0  -0.203594  0  3.998329  0  0  -0.094094  -0.189007  0  3.960697  0
C  C58  1  0.03447255  0.48572808  0.64406317  1  0  -0.17821  0  3.728836  0  0  -0.194616  0  3.975614  0  0  -0.20359  0  3.998357  0  0  -0.09412  -0.188999  0  3.960706  0
C  C59  1  0.01537367  0.67331101  0.40936593  1  0  0.126218  0  3.74167  0  0  0.094923  0  3.996711  0  0  0.102399  0  4.015569  0  0  0.038811  0.089935  0  3.984145  0
C  C60  1  0.98463144  0.32668910  0.59063718  1  0  0.126283  0  3.741657  0  0  0.094979  0  3.996694  0  0  0.102457  0  4.015552  0  0  0.038903  0.089991  0  3.984124  0
C  C61  1  0.44155285  0.29557554  0.92241474  1  0  -0.188917  0  3.737354  0  0  -0.206718  0  3.987742  0  0  -0.215918  0  4.010869  0  0  -0.100079  -0.200797  0  3.971622  0
C  C62  1  0.55845222  0.70442455  0.07758496  1  0  -0.188972  0  3.737402  0  0  -0.206787  0  3.987814  0  0  -0.215975  0  4.01091  0  0  -0.10007  -0.200865  0  3.971696  0
C  C63  1  0.71914092  0.20959867  0.15168179  1  0  -0.088772  0  3.676622  0  0  -0.126923  0  3.930064  0  0  -0.127826  0  3.944353  0  0  -0.165774  -0.126071  0  3.920148  0
C  C64  1  0.28086367  0.79040266  0.84831969  1  0  -0.088965  0  3.677005  0  0  -0.127062  0  3.930335  0  0  -0.127979  0  3.944621  0  0  -0.165876  -0.126207  0  3.920418  0
C  C65  1  0.40587590  0.28157823  0.80211501  1  0  0.126403  0  3.758238  0  0  0.096268  0  4.017499  0  0  0.103642  0  4.034471  0  0  0.030638  0.091798  0  4.005119  0
C  C66  1  0.59413258  0.71842429  0.19788442  1  0  0.126467  0  3.758196  0  0  0.096392  0  4.017392  0  0  0.103769  0  4.034365  0  0  0.030681  0.09192  0  4.005019  0
Br  Br67  1  0.05882892  0.32774503  0.89711550  1  0  -0.010412  0  1.420115  0  0  -0.005608  0  1.717114  0  0  -0.008146  0  1.711373  0  0  0.091062  -0.004361  0  1.720389  0
Br  Br68  1  0.94117621  0.67225749  0.10288106  1  0  -0.01041  0  1.420015  0  0  -0.005595  0  1.717027  0  0  -0.008134  0  1.711283  0  0  0.091065  -0.004349  0  1.720304  0
Br  Br69  1  0.21363199  0.35973471  0.17788857  1  0  -0.011937  0  1.381703  0  0  -0.005984  0  1.658412  0  0  -0.0077  0  1.651511  0  0  0.083177  -0.004147  0  1.663182  0
Br  Br70  1  0.78636357  0.64026417  0.82210585  1  0  -0.01201  0  1.381765  0  0  -0.006043  0  1.65845  0  0  -0.007754  0  1.651543  0  0  0.083126  -0.004207  0  1.663219  0
N  N71  1  0.91094094  0.71658782  0.45599196  1  0  -0.352032  0  3.250253  0  0  -0.278698  0  3.519392  0  0  -0.298544  0  3.537876  0  0  -0.33466  -0.265068  0  3.507265  0
N  N72  1  0.08906364  0.28341350  0.54400867  1  0  -0.352128  0  3.250263  0  0  -0.278787  0  3.519409  0  0  -0.298632  0  3.537892  0  0  -0.334733  -0.265156  0  3.50728  0
N  N73  1  0.47738975  0.22449944  0.72892519  1  0  -0.340777  0  3.165673  0  0  -0.278406  0  3.413189  0  0  -0.293407  0  3.427923  0  0  -0.324954  -0.268422  0  3.402888  0
N  N74  1  0.52261521  0.77549822  0.27107513  1  0  -0.340774  0  3.165488  0  0  -0.278439  0  3.413023  0  0  -0.29344  0  3.427754  0  0  -0.32494  -0.268454  0  3.402729  0
O  O75  1  0.26706958  0.06971537  0.29178455  1  0  -0.622516  0  1.958017  0  0  -0.573588  0  2.187813  0  0  -0.599345  0  2.178318  0  0  -0.315293  -0.555262  0  2.193537  0
O  O76  1  0.73290801  0.93027627  0.70821252  1  0  -0.622262  0  1.958176  0  0  -0.573456  0  2.18792  0  0  -0.599212  0  2.17843  0  0  -0.315209  -0.555129  0  2.193639  0
O  O77  1  0.72095443  0.95533038  0.48264969  1  0  -0.845149  0  1.911072  0  0  -0.776437  0  2.112734  0  0  -0.799195  0  2.076538  0  0  -0.594143  -0.759827  0  2.137912  0
O  O78  1  0.27904731  0.04466972  0.51734969  1  0  -0.845178  0  1.910984  0  0  -0.776445  0  2.112727  0  0  -0.799202  0  2.076534  0  0  -0.594141  -0.759835  0  2.137905  0
O  O79  1  0.99539851  0.00087288  0.30381420  1  0  -0.634163  0  2.015667  0  0  -0.573391  0  2.27387  0  0  -0.603359  0  2.264844  0  0  -0.325137  -0.552378  0  2.280246  0
O  O80  1  0.00457999  0.99912728  0.69618124  1  0  -0.63396  0  2.015907  0  0  -0.573226  0  2.273974  0  0  -0.603194  0  2.264948  0  0  -0.325131  -0.552217  0  2.280349  0
