# generated using pymatgen
data_Cu2H9C14S2N7
_symmetry_space_group_name_H-M   'P 1'
_cell_length_a   6.09417964
_cell_length_b   11.29302527
_cell_length_c   11.82949333
_cell_angle_alpha   112.98616933
_cell_angle_beta   104.71558706
_cell_angle_gamma   90.10708321
_symmetry_Int_Tables_number   1
_chemical_formula_structural   Cu2H9C14S2N7
_chemical_formula_sum   'Cu4 H18 C28 S4 N14'
_cell_volume   720.21492294
_cell_formula_units_Z   2
loop_
 _symmetry_equiv_pos_site_id
 _symmetry_equiv_pos_as_xyz
  1  'x, y, z'
loop_
 _atom_site_type_symbol
 _atom_site_label
 _atom_site_symmetry_multiplicity
 _atom_site_fract_x
 _atom_site_fract_y
 _atom_site_fract_z
 _atom_site_occupancy
 _atom_site_hle17_bader_spin_density
 _atom_site_hle17_ddec_charge
 _atom_site_hle17_ddec_spin_density
 _atom_site_hle17_ddec_sum_bond_order
 _atom_site_hle17_magmom
 _atom_site_hse06_10hf_bader_spin_density
 _atom_site_hse06_10hf_ddec_charge
 _atom_site_hse06_10hf_ddec_spin_density
 _atom_site_hse06_10hf_ddec_sum_bond_order
 _atom_site_hse06_10hf_magmom
 _atom_site_hse06_bader_spin_density
 _atom_site_hse06_ddec_charge
 _atom_site_hse06_ddec_spin_density
 _atom_site_hse06_ddec_sum_bond_order
 _atom_site_hse06_magmom
 _atom_site_pbe_bader_spin_density
 _atom_site_pbe_cm5_charge
 _atom_site_pbe_ddec_charge
 _atom_site_pbe_ddec_spin_density
 _atom_site_pbe_ddec_sum_bond_order
 _atom_site_pbe_magmom
Cu  Cu0  1  0.24434520  0.44113912  0.43498904  1  0  0.433974  0  2.112532  0  0  0.340365  0  2.611704  0  0  0.33392  0  2.571514  0  0  0.4941  0.347346  0  2.638024  0
Cu  Cu1  1  0.80822552  0.05845166  0.56594067  1  0  0.434556  0  2.1112  0  0  0.341233  0  2.609885  0  0  0.334288  0  2.570114  0  0  0.495039  0.347682  0  2.636161  0
Cu  Cu2  1  0.75567715  0.55886475  0.56500910  1  0  0.433848  0  2.112572  0  0  0.340233  0  2.611761  0  0  0.333767  0  2.571558  0  0  0.494039  0.347204  0  2.638109  0
Cu  Cu3  1  0.19172392  0.94154847  0.43406337  1  0  0.434721  0  2.111112  0  0  0.341465  0  2.60971  0  0  0.334533  0  2.56998  0  0  0.495175  0.347924  0  2.636036  0
H  H4  1  0.11315442  0.74996607  0.00030924  1  0  0.328432  0  0.845754  0  0  0.315707  0  0.897082  0  0  0.32264  0  0.892054  0  0  0.339607  0.310617  0  0.900864  0
H  H5  1  0.88684008  0.25004147  0.99968110  1  0  0.32849  0  0.845674  0  0  0.315752  0  0.897008  0  0  0.322688  0  0.891977  0  0  0.339622  0.310662  0  0.900802  0
H  H6  1  0.44391584  0.57166528  0.30832219  1  0  0.080826  0  0.955743  0  0  0.092414  0  1.015636  0  0  0.09472  0  1.013845  0  0  0.112164  0.090505  0  1.017225  0
H  H7  1  0.13386314  0.92747817  0.69120169  1  0  0.081084  0  0.955583  0  0  0.092673  0  1.015548  0  0  0.094956  0  1.013796  0  0  0.111473  0.090858  0  1.017008  0
H  H8  1  0.55612503  0.42833766  0.69167745  1  0  0.08083  0  0.955795  0  0  0.092375  0  1.015727  0  0  0.094679  0  1.013937  0  0  0.112175  0.090535  0  1.017228  0
H  H9  1  0.86607933  0.07250706  0.30877830  1  0  0.081287  0  0.955538  0  0  0.092842  0  1.015493  0  0  0.095126  0  1.013738  0  0  0.111567  0.09103  0  1.016956  0
H  H10  1  0.30418592  0.68631796  0.16937232  1  0  0.107482  0  0.962741  0  0  0.111663  0  1.039342  0  0  0.115611  0  1.036426  0  0  0.103914  0.10878  0  1.041513  0
H  H11  1  0.13354907  0.81341053  0.83087384  1  0  0.107305  0  0.963085  0  0  0.111742  0  1.038787  0  0  0.115567  0  1.036129  0  0  0.104259  0.108904  0  1.040962  0
H  H12  1  0.69584854  0.31368689  0.83062708  1  0  0.107524  0  0.962813  0  0  0.111743  0  1.039358  0  0  0.115691  0  1.036448  0  0  0.103952  0.108854  0  1.041524  0
H  H13  1  0.86640749  0.18657766  0.16911009  1  0  0.107308  0  0.963032  0  0  0.111701  0  1.038799  0  0  0.115525  0  1.036143  0  0  0.104235  0.108861  0  1.04097  0
H  H14  1  0.61935639  0.52214256  0.10978447  1  0  0.110288  0  0.963374  0  0  0.117678  0  1.030951  0  0  0.120776  0  1.029833  0  0  0.107194  0.115483  0  1.031936  0
H  H15  1  0.50759523  0.97575992  0.89118010  1  0  0.109716  0  0.965555  0  0  0.116477  0  1.034268  0  0  0.119629  0  1.033077  0  0  0.106541  0.114226  0  1.035364  0
H  H16  1  0.38068201  0.47785652  0.89021429  1  0  0.110297  0  0.963598  0  0  0.117683  0  1.031137  0  0  0.120781  0  1.030024  0  0  0.107198  0.115486  0  1.032129  0
H  H17  1  0.49238808  0.02424139  0.10883433  1  0  0.109736  0  0.96563  0  0  0.116486  0  1.034316  0  0  0.119635  0  1.03313  0  0  0.106535  0.114232  0  1.035423  0
H  H18  1  0.79067155  0.41044292  0.24926998  1  0  0.073039  0  0.99758  0  0  0.080939  0  1.068914  0  0  0.083694  0  1.066181  0  0  0.098909  0.078896  0  1.070903  0
H  H19  1  0.53930316  0.08725516  0.75125618  1  0  0.072638  0  0.997589  0  0  0.081258  0  1.067901  0  0  0.08405  0  1.065127  0  0  0.099102  0.079156  0  1.069947  0
H  H20  1  0.20937174  0.58955417  0.75072540  1  0  0.073016  0  0.997824  0  0  0.080889  0  1.069194  0  0  0.083634  0  1.06648  0  0  0.098921  0.07884  0  1.071179  0
H  H21  1  0.46067084  0.91275097  0.24875946  1  0  0.072777  0  0.997558  0  0  0.081397  0  1.067803  0  0  0.084156  0  1.065065  0  0  0.099126  0.079294  0  1.069855  0
C  C22  1  0.35231927  0.74831203  0.54885385  1  0  0.30428  0  3.92758  0  0  0.293752  0  4.207922  0  0  0.308087  0  4.227573  0  0  0.148455  0.283459  0  4.194532  0
C  C23  1  0.80301729  0.75202575  0.44996977  1  0  0.305082  0  3.926503  0  0  0.294555  0  4.206553  0  0  0.308993  0  4.226606  0  0  0.149296  0.284392  0  4.192966  0
C  C24  1  0.64767830  0.25168905  0.45114902  1  0  0.304488  0  3.927552  0  0  0.293952  0  4.207884  0  0  0.308284  0  4.227534  0  0  0.148472  0.283651  0  4.194483  0
C  C25  1  0.19697811  0.24798003  0.55002854  1  0  0.305442  0  3.926589  0  0  0.294926  0  4.206588  0  0  0.309361  0  4.226652  0  0  0.149435  0.284756  0  4.193006  0
C  C26  1  0.26201946  0.56166306  0.26131126  1  0  0.141807  0  3.656276  0  0  0.114779  0  3.899776  0  0  0.122223  0  3.914754  0  0  0.041526  0.109863  0  3.890091  0
C  C27  1  0.99901344  0.93729195  0.73859840  1  0  0.138788  0  3.656416  0  0  0.111729  0  3.90026  0  0  0.119273  0  3.9151  0  0  0.040654  0.106631  0  3.890876  0
C  C28  1  0.73801798  0.43833989  0.73868873  1  0  0.141677  0  3.656244  0  0  0.114702  0  3.899764  0  0  0.122147  0  3.914744  0  0  0.04145  0.10974  0  3.890041  0
C  C29  1  0.00093641  0.06269828  0.26139120  1  0  0.138726  0  3.656403  0  0  0.111738  0  3.900179  0  0  0.119286  0  3.915019  0  0  0.040556  0.106624  0  3.8908  0
C  C30  1  0.18105430  0.62724815  0.18380092  1  0  -0.139634  0  3.678567  0  0  -0.164539  0  3.940119  0  0  -0.169041  0  3.955456  0  0  -0.08555  -0.161601  0  3.92964  0
C  C31  1  0.99582203  0.87201908  0.81653373  1  0  -0.139008  0  3.682754  0  0  -0.163548  0  3.942561  0  0  -0.168231  0  3.958138  0  0  -0.084755  -0.160796  0  3.932794  0
C  C32  1  0.81897847  0.37275774  0.81620198  1  0  -0.139508  0  3.678547  0  0  -0.16444  0  3.940028  0  0  -0.16894  0  3.955361  0  0  -0.085442  -0.16149  0  3.929541  0
C  C33  1  0.00413818  0.12797214  0.18345772  1  0  -0.139135  0  3.682976  0  0  -0.163636  0  3.94271  0  0  -0.168315  0  3.958284  0  0  -0.084816  -0.16088  0  3.932936  0
C  C34  1  0.94483080  0.61839297  0.13072744  1  0  0.036522  0  3.812471  0  0  0.048991  0  4.049728  0  0  0.053212  0  4.069093  0  0  0.006271  0.046384  0  4.035886  0
C  C35  1  0.81327330  0.88081252  0.87059057  1  0  0.034012  0  3.81774  0  0  0.047915  0  4.052062  0  0  0.052178  0  4.071551  0  0  0.004936  0.045152  0  4.038673  0
C  C36  1  0.05520275  0.38160808  0.86927386  1  0  0.036401  0  3.812703  0  0  0.048932  0  4.049914  0  0  0.053143  0  4.069294  0  0  0.006214  0.046326  0  4.036059  0
C  C37  1  0.18669735  0.11918176  0.12940939  1  0  0.034132  0  3.817952  0  0  0.047973  0  4.052277  0  0  0.052232  0  4.071765  0  0  0.004964  0.045219  0  4.03887  0
C  C38  1  0.80283695  0.53671012  0.15308366  1  0  -0.135887  0  3.704948  0  0  -0.157559  0  3.95591  0  0  -0.164276  0  3.976123  0  0  -0.085279  -0.153491  0  3.942695  0
C  C39  1  0.64797044  0.96144134  0.84768761  1  0  -0.135427  0  3.705637  0  0  -0.157543  0  3.95624  0  0  -0.164174  0  3.976371  0  0  -0.08488  -0.153285  0  3.942931  0
C  C40  1  0.19720094  0.46328708  0.84691690  1  0  -0.13595  0  3.705341  0  0  -0.1576  0  3.956197  0  0  -0.164324  0  3.976417  0  0  -0.085334  -0.15354  0  3.942982  0
C  C41  1  0.35200565  0.03855699  0.15232219  1  0  -0.135391  0  3.705858  0  0  -0.157492  0  3.956406  0  0  -0.164126  0  3.976536  0  0  -0.084819  -0.15324  0  3.943102  0
C  C42  1  0.89776338  0.47383866  0.23026474  1  0  0.114247  0  3.696993  0  0  0.082826  0  3.952415  0  0  0.09049  0  3.965881  0  0  0.028957  0.077162  0  3.945001  0
C  C43  1  0.66548222  0.02418376  0.77012414  1  0  0.115283  0  3.694988  0  0  0.083886  0  3.949812  0  0  0.09127  0  3.963524  0  0  0.029604  0.078202  0  3.94233  0
C  C44  1  0.10227684  0.52616037  0.76973173  1  0  0.114143  0  3.69729  0  0  0.082702  0  3.952828  0  0  0.090404  0  3.966227  0  0  0.028833  0.077027  0  3.945434  0
C  C45  1  0.33448052  0.97581548  0.22988320  1  0  0.114849  0  3.695429  0  0  0.083523  0  3.950149  0  0  0.090951  0  3.963849  0  0  0.029407  0.077833  0  3.942667  0
C  C46  1  0.84026876  0.69113282  0.05746427  1  0  0.300362  0  3.753009  0  0  0.271824  0  4.022579  0  0  0.282972  0  4.036612  0  0  0.221058  0.264167  0  4.012991  0
C  C47  1  0.78338536  0.80883806  0.94491521  1  0  0.300755  0  3.751629  0  0  0.272465  0  4.019448  0  0  0.283461  0  4.033857  0  0  0.221238  0.264823  0  4.00996  0
C  C48  1  0.15974957  0.30886920  0.94253771  1  0  0.300683  0  3.752499  0  0  0.272009  0  4.022178  0  0  0.283167  0  4.036194  0  0  0.221094  0.264342  0  4.012611  0
C  C49  1  0.21660674  0.19116107  0.05508618  1  0  0.300803  0  3.75179  0  0  0.272562  0  4.019505  0  0  0.283558  0  4.033914  0  0  0.221239  0.264913  0  4.010028  0
S  S50  1  0.39351921  0.64091135  0.61062514  1  0  -0.327362  0  2.641801  0  0  -0.301647  0  3.081035  0  0  -0.307808  0  3.059114  0  0  -0.160799  -0.295566  0  3.094508  0
S  S51  1  0.78255372  0.85980778  0.38859319  1  0  -0.327002  0  2.637566  0  0  -0.301304  0  3.076222  0  0  -0.307828  0  3.054887  0  0  -0.159119  -0.294935  0  3.089097  0
S  S52  1  0.60649732  0.35908967  0.38937454  1  0  -0.327437  0  2.641602  0  0  -0.301715  0  3.080837  0  0  -0.307876  0  3.05891  0  0  -0.160838  -0.295631  0  3.094303  0
S  S53  1  0.21742408  0.14020377  0.61140547  1  0  -0.327098  0  2.637433  0  0  -0.301382  0  3.076035  0  0  -0.307914  0  3.054707  0  0  -0.159159  -0.295007  0  3.088898  0
N  N54  1  0.32496219  0.82572005  0.50363223  1  0  -0.503436  0  3.167535  0  0  -0.451896  0  3.500202  0  0  -0.463014  0  3.50172  0  0  -0.433186  -0.445292  0  3.500302  0
N  N55  1  0.82099908  0.67444849  0.49501948  1  0  -0.503398  0  3.165664  0  0  -0.451372  0  3.497628  0  0  -0.463029  0  3.499454  0  0  -0.432347  -0.444801  0  3.49752  0
N  N56  1  0.67501615  0.17428572  0.49636530  1  0  -0.503439  0  3.167637  0  0  -0.451893  0  3.500334  0  0  -0.463006  0  3.501827  0  0  -0.433056  -0.445275  0  3.500387  0
N  N57  1  0.17900585  0.32555446  0.50498090  1  0  -0.503713  0  3.16577  0  0  -0.451702  0  3.497724  0  0  -0.463369  0  3.499565  0  0  -0.432432  -0.445138  0  3.497622  0
N  N58  1  0.12475852  0.48766380  0.28763170  1  0  -0.292162  0  3.354565  0  0  -0.221599  0  3.650378  0  0  -0.230005  0  3.656271  0  0  -0.367304  -0.21668  0  3.646345  0
N  N59  1  0.83546105  0.01104197  0.71258005  1  0  -0.288231  0  3.353825  0  0  -0.218565  0  3.650965  0  0  -0.226743  0  3.6568  0  0  -0.366712  -0.213502  0  3.646893  0
N  N60  1  0.87528043  0.51233818  0.71236817  1  0  -0.291941  0  3.354634  0  0  -0.221407  0  3.650425  0  0  -0.229815  0  3.656314  0  0  -0.367132  -0.216491  0  3.646404  0
N  N61  1  0.16449446  0.98895325  0.28741891  1  0  -0.288118  0  3.35392  0  0  -0.218524  0  3.651002  0  0  -0.226723  0  3.656858  0  0  -0.366504  -0.213436  0  3.646928  0
N  N62  1  0.62083764  0.71323991  0.03678742  1  0  -0.278831  0  2.933074  0  0  -0.257519  0  3.226903  0  0  -0.26528  0  3.239569  0  0  -0.220469  -0.251823  0  3.218121  0
N  N63  1  0.58547357  0.78651564  0.96679359  1  0  -0.281578  0  2.930591  0  0  -0.260845  0  3.224571  0  0  -0.268494  0  3.237384  0  0  -0.223389  -0.2553  0  3.215904  0
N  N64  1  0.37917998  0.28675266  0.96322211  1  0  -0.278952  0  2.932718  0  0  -0.257607  0  3.226602  0  0  -0.265368  0  3.239259  0  0  -0.220527  -0.251905  0  3.217823  0
N  N65  1  0.41452865  0.21347694  0.03321625  1  0  -0.281669  0  2.930684  0  0  -0.260957  0  3.224679  0  0  -0.268603  0  3.237488  0  0  -0.223464  -0.255416  0  3.21602  0
N  N66  1  0.94635380  0.74996504  0.00079815  1  0  -0.378582  0  3.359351  0  0  -0.317018  0  3.581858  0  0  -0.334162  0  3.595627  0  0  -0.360619  -0.305699  0  3.573173  0
N  N67  1  0.05364796  0.25003781  0.99919750  1  0  -0.378764  0  3.359244  0  0  -0.317145  0  3.581747  0  0  -0.334294  0  3.59551  0  0  -0.360572  -0.305824  0  3.573073  0
