# generated using pymatgen
data_CuH17C25(NO2)3
_symmetry_space_group_name_H-M   'P 1'
_cell_length_a   11.10317148
_cell_length_b   12.01772880
_cell_length_c   19.64969240
_cell_angle_alpha   89.99997982
_cell_angle_beta   101.59370492
_cell_angle_gamma   90.00018491
_symmetry_Int_Tables_number   1
_chemical_formula_structural   CuH17C25(NO2)3
_chemical_formula_sum   'Cu4 H68 C100 N12 O24'
_cell_volume   2568.45994958
_cell_formula_units_Z   4
loop_
 _symmetry_equiv_pos_site_id
 _symmetry_equiv_pos_as_xyz
  1  'x, y, z'
loop_
 _atom_site_type_symbol
 _atom_site_label
 _atom_site_symmetry_multiplicity
 _atom_site_fract_x
 _atom_site_fract_y
 _atom_site_fract_z
 _atom_site_occupancy
 _atom_site_pbe_bader_charge
 _atom_site_pbe_bader_spin_density
 _atom_site_pbe_cm5_charge
 _atom_site_pbe_ddec_charge
 _atom_site_pbe_ddec_spin_density
 _atom_site_pbe_ddec_sum_bond_order
 _atom_site_pbe_magmom
Cu  Cu0  1  0.50273652  0.40430467  0.91314095  1  1.086461  0.573481  0.745277  0.792565  0.733464  2.242367  0.571
Cu  Cu1  1  0.49726565  0.90430610  0.58686272  1  1.086539  0.573485  0.745328  0.792792  0.733469  2.242149  0.571
Cu  Cu2  1  0.49727438  0.59570142  0.08686278  1  1.086481  0.573481  0.745295  0.792717  0.733459  2.241927  0.571
Cu  Cu3  1  0.50272776  0.09569167  0.41313996  1  1.08658  0.573487  0.745323  0.792727  0.733475  2.242057  0.571
H  H4  1  0.09346682  0.86670622  0.25634846  1  0.125472  0.0  0.121875  0.125637  -1e-06  0.972057  0.0
H  H5  1  0.90653364  0.36670942  0.24364997  1  0.125475  0.0  0.121838  0.125583  -1e-06  0.972045  0.0
H  H6  1  0.90653127  0.13329072  0.74364968  1  0.125432  0.0  0.121858  0.125615  -1e-06  0.972046  0.0
H  H7  1  0.09346904  0.63329501  0.75634922  1  0.125464  0.0  0.12185  0.125602  -1e-06  0.972056  0.0
H  H8  1  0.05229208  0.00934453  0.16027596  1  0.215159  3e-06  0.116499  0.144586  2e-06  1.022011  0.0
H  H9  1  0.94771074  0.50934953  0.33972178  1  0.214828  3e-06  0.116514  0.144604  2e-06  1.021961  0.0
H  H10  1  0.94770782  0.99065157  0.83972392  1  0.215115  3e-06  0.11652  0.144588  2e-06  1.022025  0.0
H  H11  1  0.05229190  0.49065490  0.66027996  1  0.214817  3e-06  0.116457  0.14451  2e-06  1.022109  0.0
H  H12  1  0.83605617  0.02699378  0.09108133  1  0.123917  3e-06  0.134826  0.115292  -4e-06  0.975362  0.0
H  H13  1  0.16394768  0.52699231  0.40891348  1  0.124028  3e-06  0.134802  0.115296  -4e-06  0.975416  0.0
H  H14  1  0.16394373  0.97300732  0.90891907  1  0.123914  3e-06  0.134825  0.115294  -4e-06  0.975376  0.0
H  H15  1  0.83605864  0.47300296  0.59108818  1  0.123916  3e-06  0.134787  0.11529  -4e-06  0.975405  0.0
H  H16  1  0.70983811  0.77599447  0.20529027  1  0.222036  1.6e-05  0.13225  0.129113  2.9e-05  1.040338  0.0
H  H17  1  0.29016110  0.27598671  0.29470752  1  0.221928  1.6e-05  0.132225  0.129022  2.9e-05  1.040295  0.0
H  H18  1  0.29015902  0.22400746  0.79471030  1  0.222077  1.6e-05  0.132229  0.12908  2.9e-05  1.040406  0.0
H  H19  1  0.70983879  0.72400690  0.70529287  1  0.221973  1.6e-05  0.132227  0.129096  2.9e-05  1.040279  0.0
H  H20  1  0.58889458  0.84221817  0.11521310  1  0.170558  -5.1e-05  0.123006  0.127361  -0.000146  1.017376  0.0
H  H21  1  0.41110867  0.34221733  0.38477803  1  0.170941  -5.1e-05  0.12296  0.127333  -0.000146  1.017364  0.0
H  H22  1  0.41110256  0.15778210  0.88478696  1  0.170577  -5.1e-05  0.12299  0.12738  -0.000146  1.017403  0.0
H  H23  1  0.58889958  0.65778211  0.61521877  1  0.171044  -5.1e-05  0.122992  0.127354  -0.000146  1.01742  0.0
H  H24  1  0.64825014  0.91445406  0.04911081  1  0.064062  3.6e-05  0.114124  0.099577  2.5e-05  0.982041  0.0
H  H25  1  0.35175055  0.41444717  0.45088459  1  0.064173  3.7e-05  0.114059  0.099466  2.5e-05  0.9821  0.0
H  H26  1  0.35174791  0.08554787  0.95088987  1  0.064016  3.6e-05  0.114111  0.099528  2.5e-05  0.98202  0.0
H  H27  1  0.64825215  0.58555060  0.54911308  1  0.064107  3.6e-05  0.114054  0.09947  2.5e-05  0.982121  0.0
H  H28  1  0.55301925  0.95933171  0.22078751  1  0.115923  0.000358  0.109065  0.126346  0.000325  1.008678  0.0
H  H29  1  0.44698432  0.45932941  0.27921077  1  0.116034  0.000358  0.109112  0.126427  0.000325  1.008538  0.0
H  H30  1  0.44698157  0.04067355  0.77921248  1  0.115857  0.000358  0.109078  0.126396  0.000326  1.008534  0.0
H  H31  1  0.55301745  0.54066920  0.72078729  1  0.11601  0.000358  0.109067  0.126368  0.000326  1.008621  0.0
H  H32  1  0.47686501  0.30685476  0.18069968  1  0.131768  6e-05  0.110593  0.123272  1.4e-05  1.007834  0.0
H  H33  1  0.52313792  0.80685357  0.31930313  1  0.131794  6e-05  0.110548  0.123205  1.4e-05  1.007939  0.0
H  H34  1  0.52314501  0.69314801  0.81930141  1  0.13214  6e-05  0.110595  0.123243  1.4e-05  1.007823  0.0
H  H35  1  0.47686378  0.19314587  0.68069951  1  0.131766  6e-05  0.110613  0.12328  1.4e-05  1.007836  0.0
H  H36  1  0.60489472  0.10697281  0.02825536  1  0.089367  0.000374  0.101333  0.107671  0.000317  1.013653  0.0
H  H37  1  0.39510291  0.60697029  0.47174379  1  0.089346  0.000374  0.101357  0.107714  0.000318  1.013693  0.0
H  H38  1  0.39510705  0.89302662  0.97174321  1  0.089382  0.000374  0.101344  0.107678  0.000317  1.013752  0.0
H  H39  1  0.60489700  0.39302748  0.52825559  1  0.08936  0.000374  0.101343  0.107708  0.000317  1.013686  0.0
H  H40  1  0.29750865  0.55038858  0.85689170  1  0.134554  0.001947  0.129152  0.108856  0.000894  0.975475  0.001
H  H41  1  0.70249306  0.05038546  0.64311552  1  0.134141  0.001948  0.129196  0.108939  0.000894  0.975405  0.001
H  H42  1  0.70250217  0.44962500  0.14311711  1  0.134032  0.001948  0.129133  0.108806  0.000894  0.975489  0.001
H  H43  1  0.29750314  0.94960732  0.35688596  1  0.134508  0.001947  0.129204  0.108886  0.000894  0.975423  0.001
H  H44  1  0.07537222  0.56912891  0.86045857  1  0.154429  0.000883  0.107071  0.1224  0.000475  1.063782  0.001
H  H45  1  0.92462684  0.06913142  0.63954579  1  0.15435  0.000883  0.107114  0.122545  0.000475  1.063733  0.001
H  H46  1  0.92463775  0.43088135  0.13954505  1  0.154304  0.000883  0.107121  0.122467  0.000475  1.063796  0.001
H  H47  1  0.07536847  0.93086136  0.36045355  1  0.154253  0.000883  0.10707  0.122457  0.000475  1.063741  0.001
H  H48  1  0.10944096  0.26170809  0.97831195  1  0.077372  0.001074  0.112437  0.120921  0.000566  0.995992  0.0
H  H49  1  0.89055703  0.76171569  0.52168920  1  0.077415  0.001074  0.112438  0.12092  0.000566  0.996015  0.0
H  H50  1  0.89056267  0.73829634  0.02168532  1  0.077219  0.001074  0.112417  0.1209  0.000566  0.995954  0.0
H  H51  1  0.10942827  0.23828458  0.47830284  1  0.077409  0.001074  0.112468  0.120893  0.000566  0.995967  0.0
H  H52  1  0.33071834  0.26386439  0.97530035  1  0.063373  0.001841  0.117857  0.082441  0.000767  1.04107  0.001
H  H53  1  0.66928056  0.76386470  0.52470244  1  0.063329  0.00184  0.117905  0.082541  0.000767  1.04094  0.001
H  H54  1  0.66928709  0.73614087  0.02469968  1  0.063331  0.00184  0.117922  0.082517  0.000767  1.041002  0.001
H  H55  1  0.33070744  0.23613474  0.47529349  1  0.063463  0.00184  0.117916  0.082593  0.000767  1.041022  0.001
H  H56  1  0.90909491  0.59010077  0.89716481  1  0.148984  0.001057  0.111328  0.131156  0.00056  1.022292  0.001
H  H57  1  0.09091161  0.09010675  0.60283890  1  0.148912  0.001057  0.111374  0.131213  0.00056  1.022094  0.001
H  H58  1  0.09091602  0.40990200  0.10283688  1  0.148825  0.001057  0.111382  0.131247  0.00056  1.022184  0.001
H  H59  1  0.90908186  0.90989352  0.39716022  1  0.148934  0.001057  0.11136  0.131193  0.00056  1.022221  0.001
H  H60  1  0.68322088  0.57847346  0.89600166  1  0.146191  0.002199  0.123177  0.105862  0.001051  1.01593  0.002
H  H61  1  0.31678564  0.07847592  0.60399951  1  0.146039  0.002198  0.123223  0.105888  0.00105  1.015962  0.002
H  H62  1  0.31679005  0.42153264  0.10400004  1  0.146141  0.002198  0.123217  0.105838  0.00105  1.015929  0.002
H  H63  1  0.68320959  0.92151852  0.39600491  1  0.145927  0.002198  0.123218  0.105864  0.00105  1.016006  0.002
H  H64  1  0.69920259  0.23918556  0.92919284  1  0.125842  0.00191  0.125024  0.104007  0.000838  0.982871  0.002
H  H65  1  0.30079444  0.73918977  0.57080566  1  0.125953  0.00191  0.125034  0.104033  0.000838  0.982774  0.002
H  H66  1  0.30080196  0.76081970  0.07080454  1  0.125728  0.00191  0.125045  0.104076  0.000838  0.982922  0.002
H  H67  1  0.69919267  0.26080800  0.42918762  1  0.125807  0.001909  0.124989  0.103983  0.000838  0.982859  0.002
H  H68  1  0.92269349  0.23277619  0.92806950  1  0.095585  0.001055  0.108242  0.111392  0.000566  1.012746  0.001
H  H69  1  0.07730442  0.73278392  0.57192961  1  0.095434  0.001055  0.108278  0.11141  0.000566  1.012808  0.001
H  H70  1  0.07730840  0.76722075  0.07192146  1  0.095789  0.001054  0.10826  0.111422  0.000566  1.012722  0.001
H  H71  1  0.92268275  0.26721802  0.42806011  1  0.095477  0.001055  0.108239  0.111299  0.000566  1.012943  0.001
C  C72  1  0.92180315  0.73138564  0.30163291  1  1.658562  -1e-06  0.17331  0.547673  8e-06  4.352522  0.0
C  C73  1  0.07818298  0.23138651  0.19836588  1  1.658386  -1e-06  0.173268  0.547568  8e-06  4.353077  0.0
C  C74  1  0.07819579  0.26861629  0.69836991  1  1.658518  -1e-06  0.173239  0.547585  8e-06  4.352842  0.0
C  C75  1  0.92180945  0.76860877  0.80164025  1  1.658261  -1e-06  0.173352  0.547608  8e-06  4.352903  0.0
C  C76  1  0.90557395  0.81179435  0.23967447  1  0.055191  2e-05  0.000668  -0.04232  1.3e-05  3.917919  0.0
C  C77  1  0.09442262  0.31178606  0.26032352  1  0.055442  2e-05  0.000705  -0.042365  1.4e-05  3.918195  0.0
C  C78  1  0.09442502  0.18820592  0.76032582  1  0.055181  2e-05  0.00068  -0.042329  1.4e-05  3.918009  0.0
C  C79  1  0.90557173  0.68820839  0.73967775  1  0.055339  2e-05  0.00066  -0.042336  1.3e-05  3.918037  0.0
C  C80  1  0.00170655  0.87606477  0.22435538  1  -0.019237  3.8e-05  -0.045263  -0.033524  2.6e-05  3.889205  0.0
C  C81  1  0.99829395  0.37606238  0.27564255  1  -0.019636  3.8e-05  -0.04525  -0.033448  2.6e-05  3.888968  0.0
C  C82  1  0.99829336  0.12393217  0.77564399  1  -0.019227  3.8e-05  -0.045234  -0.033435  2.6e-05  3.889153  0.0
C  C83  1  0.00170592  0.62393872  0.72435937  1  -0.019588  3.8e-05  -0.045293  -0.033567  2.6e-05  3.888988  0.0
C  C84  1  0.97996632  0.95303915  0.16981120  1  -0.001905  2.7e-05  -0.069884  -0.106889  2.2e-05  3.947358  0.0
C  C85  1  0.02003631  0.45303890  0.33018697  1  -0.00145  2.7e-05  -0.069812  -0.106885  2.2e-05  3.947102  0.0
C  C86  1  0.02003269  0.04695696  0.83018705  1  -0.001897  2.7e-05  -0.069901  -0.106937  2.2e-05  3.947468  0.0
C  C87  1  0.97996722  0.54696054  0.66981639  1  -0.001477  2.7e-05  -0.069792  -0.106742  2.2e-05  3.947215  0.0
C  C88  1  0.86154025  0.96491145  0.13176284  1  0.360249  3.2e-05  0.059645  0.022634  2.2e-05  3.854325  0.0
C  C89  1  0.13846337  0.46490818  0.36823392  1  0.360015  3.2e-05  0.059547  0.02256  2.2e-05  3.854358  0.0
C  C90  1  0.13845782  0.03508632  0.86823632  1  0.360236  3.2e-05  0.059648  0.022624  2.2e-05  3.854406  0.0
C  C91  1  0.86154204  0.53508792  0.63176763  1  0.360302  3.2e-05  0.059649  0.022558  2.2e-05  3.854475  0.0
C  C92  1  0.78932917  0.82445466  0.19782983  1  0.367713  6.1e-05  0.069542  0.01939  1.5e-05  3.781909  0.0
C  C93  1  0.21066932  0.32444750  0.30216735  1  0.368113  6.1e-05  0.069721  0.019792  1.5e-05  3.78159  0.0
C  C94  1  0.21066981  0.17554560  0.80217045  1  0.367709  6.1e-05  0.069584  0.019476  1.5e-05  3.781954  0.0
C  C95  1  0.78932875  0.67554778  0.69783231  1  0.368087  6.1e-05  0.069657  0.019593  1.5e-05  3.78168  0.0
C  C96  1  0.64204575  0.91455887  0.10412238  1  0.202574  3.8e-05  -0.0513  -0.147034  -2.3e-05  3.86403  0.0
C  C97  1  0.35795404  0.41455538  0.39587189  1  0.202244  3.8e-05  -0.051149  -0.146811  -2.2e-05  3.86389  0.0
C  C98  1  0.35795322  0.08544223  0.89587841  1  0.20263  3.8e-05  -0.051288  -0.146974  -2.2e-05  3.863975  0.0
C  C99  1  0.64205050  0.58544156  0.60412599  1  0.202223  3.8e-05  -0.051175  -0.146867  -2.3e-05  3.864006  0.0
C  C100  1  0.58723484  0.02170872  0.12292231  1  0.005948  0.000226  -0.020432  0.080983  4.2e-05  4.017404  0.0
C  C101  1  0.41276246  0.52171049  0.37707783  1  0.006046  0.000226  -0.020473  0.080986  4.2e-05  4.01741  0.0
C  C102  1  0.41276135  0.97829072  0.87707917  1  0.006068  0.000227  -0.020413  0.081073  4.2e-05  4.017297  0.0
C  C103  1  0.58724204  0.47828812  0.62292311  1  0.005915  0.000227  -0.020457  0.08102  4.2e-05  4.017313  0.0
C  C104  1  0.55014670  0.03125287  0.18665102  1  -0.08088  -0.000498  -0.073948  -0.124113  -0.00069  3.878481  0.0
C  C105  1  0.44985615  0.53125397  0.31334927  1  -0.081375  -0.000498  -0.074004  -0.124316  -0.00069  3.878517  0.0
C  C106  1  0.44985319  0.96874740  0.81334988  1  -0.080945  -0.000498  -0.073956  -0.124225  -0.00069  3.878271  0.0
C  C107  1  0.55014744  0.46874547  0.68665003  1  -0.081268  -0.000498  -0.073981  -0.124235  -0.00069  3.878536  0.0
C  C108  1  0.51052909  0.13378882  0.20754847  1  0.054967  0.009244  -0.01049  -0.004659  0.006462  3.952472  0.007
C  C109  1  0.48947503  0.63378922  0.29245450  1  0.054962  0.009245  -0.010452  -0.004453  0.006462  3.952533  0.007
C  C110  1  0.48946897  0.86621145  0.79245171  1  0.05477  0.009245  -0.010493  -0.0046  0.006462  3.952415  0.007
C  C111  1  0.51052763  0.36621022  0.70754621  1  0.055046  0.009246  -0.010422  -0.004473  0.006463  3.952498  0.007
C  C112  1  0.50483238  0.22625638  0.16376895  1  -0.049542  0.001596  -0.068381  -0.093242  0.000833  3.890008  0.001
C  C113  1  0.49516749  0.72625759  0.33623351  1  -0.049321  0.001595  -0.068472  -0.093374  0.000833  3.890266  0.001
C  C114  1  0.49516936  0.77374389  0.83623166  1  -0.049763  0.001595  -0.068475  -0.093344  0.000832  3.890013  0.001
C  C115  1  0.50482963  0.27374184  0.66376757  1  -0.049449  0.001595  -0.068498  -0.09339  0.000833  3.890151  0.001
C  C116  1  0.53603909  0.21575031  0.09861166  1  -0.02613  0.009371  -0.023562  -0.032925  0.006517  3.995041  0.007
C  C117  1  0.46395799  0.71574805  0.40138996  1  -0.026313  0.009371  -0.023458  -0.032729  0.006517  3.99509  0.007
C  C118  1  0.46396080  0.78425079  0.90138873  1  -0.026091  0.009371  -0.023485  -0.032706  0.006517  3.995026  0.007
C  C119  1  0.53603822  0.28425056  0.59861101  1  -0.02607  0.009372  -0.023469  -0.032743  0.006517  3.995028  0.007
C  C120  1  0.57843502  0.11337496  0.07867594  1  -0.096492  -1.2e-05  -0.08848  -0.15663  -0.000104  3.969659  0.0
C  C121  1  0.42155895  0.61337256  0.42132379  1  -0.096414  -1.2e-05  -0.088488  -0.15667  -0.000104  3.969799  0.0
C  C122  1  0.42156212  0.88662531  0.92132412  1  -0.096565  -1.2e-05  -0.088514  -0.156746  -0.000104  3.969831  0.0
C  C123  1  0.57844003  0.38662438  0.57867649  1  -0.096442  -1.2e-05  -0.088489  -0.15674  -0.000104  3.969762  0.0
C  C124  1  0.48281328  0.14634353  0.27885855  1  1.55824  -0.000551  0.197787  0.559946  -0.000828  4.227413  -0.002
C  C125  1  0.51719548  0.64634906  0.22114497  1  1.557914  -0.000551  0.197781  0.559778  -0.000827  4.227558  -0.002
C  C126  1  0.51719119  0.85365674  0.72114340  1  1.558427  -0.000551  0.197738  0.559831  -0.000828  4.22758  -0.002
C  C127  1  0.48281083  0.35365204  0.77885771  1  1.558187  -0.000552  0.197787  0.559829  -0.000828  4.227259  -0.002
C  C128  1  0.52260629  0.31336942  0.05010225  1  1.54355  -0.001605  0.201423  0.56573  -0.001896  4.236386  -0.003
C  C129  1  0.47739023  0.81337048  0.44989980  1  1.543321  -0.001605  0.2015  0.565824  -0.001897  4.236252  -0.003
C  C130  1  0.47739820  0.68663168  0.94989868  1  1.543474  -0.001606  0.201362  0.565445  -0.001896  4.23675  -0.003
C  C131  1  0.52260322  0.18662979  0.55010085  1  1.543486  -0.001605  0.201368  0.565542  -0.001896  4.236444  -0.003
C  C132  1  0.25136437  0.48898588  0.88337765  1  0.488053  -0.001405  0.061513  0.123024  -0.001768  3.881201  -0.001
C  C133  1  0.74863625  0.98898468  0.61662735  1  0.488401  -0.001407  0.061558  0.123114  -0.001769  3.881254  -0.001
C  C134  1  0.74864467  0.51102270  0.11662688  1  0.488907  -0.001406  0.061537  0.123046  -0.001768  3.88127  -0.001
C  C135  1  0.25135717  0.01100810  0.38337482  1  0.488266  -0.001405  0.061457  0.122982  -0.001768  3.8812  -0.001
C  C136  1  0.12663553  0.49646050  0.88401687  1  0.013992  0.005115  -0.071577  -0.152002  0.003434  3.872658  0.004
C  C137  1  0.87336515  0.99646464  0.61598661  1  0.014105  0.005115  -0.0717  -0.152321  0.003435  3.872725  0.004
C  C138  1  0.87337264  0.50354643  0.11598450  1  0.014259  0.005116  -0.071715  -0.152245  0.003435  3.872987  0.004
C  C139  1  0.12662556  0.00353063  0.38401269  1  0.014071  0.005116  -0.071639  -0.15215  0.003435  3.872592  0.004
C  C140  1  0.07009269  0.41206842  0.91573494  1  -0.001979  -0.003122  0.014364  0.106667  -0.00351  3.974867  -0.002
C  C141  1  0.92990862  0.91207525  0.58426659  1  -0.002102  -0.003123  0.014423  0.106739  -0.003511  3.974918  -0.002
C  C142  1  0.92991647  0.58793352  0.08426197  1  -0.002155  -0.003123  0.014333  0.10667  -0.003511  3.975051  -0.002
C  C143  1  0.07008215  0.08792336  0.41572865  1  -0.002414  -0.003123  0.014417  0.106728  -0.003511  3.975023  -0.002
C  C144  1  0.14558958  0.32677036  0.94939854  1  -0.063317  0.004616  -0.083955  -0.183027  0.003144  3.968152  0.004
C  C145  1  0.85440865  0.82677701  0.55060314  1  -0.063183  0.004617  -0.084014  -0.183057  0.003144  3.968082  0.004
C  C146  1  0.85441589  0.67323324  0.05059946  1  -0.063476  0.004617  -0.083845  -0.182822  0.003144  3.968028  0.004
C  C147  1  0.14558029  0.17322243  0.44939137  1  -0.063178  0.004617  -0.083944  -0.18289  0.003144  3.968069  0.004
C  C148  1  0.26985991  0.32758101  0.94846021  1  0.487212  -0.000921  0.040901  0.086448  -0.001214  3.976461  -0.001
C  C149  1  0.73013830  0.82758147  0.55154249  1  0.487315  -0.000921  0.040856  0.086382  -0.001214  3.976491  -0.001
C  C150  1  0.73014735  0.67242675  0.05154003  1  0.487406  -0.000922  0.040785  0.086269  -0.001214  3.976557  -0.001
C  C151  1  0.26985149  0.17241463  0.44845620  1  0.48747  -0.000921  0.040758  0.086096  -0.001214  3.976539  -0.001
C  C152  1  0.93671182  0.41181503  0.91408095  1  -0.03917  -0.003249  0.014348  0.105894  -0.003643  3.971522  -0.002
C  C153  1  0.06328858  0.91182105  0.58592047  1  -0.039315  -0.003248  0.014418  0.105964  -0.003642  3.971639  -0.002
C  C154  1  0.06329463  0.58818524  0.08591309  1  -0.03902  -0.003249  0.014417  0.105964  -0.003642  3.971501  -0.002
C  C155  1  0.93670316  0.08817839  0.41407183  1  -0.039096  -0.003248  0.014436  0.105944  -0.003642  3.971916  -0.002
C  C156  1  0.86671335  0.50984760  0.90383434  1  -0.030797  0.005789  -0.077901  -0.167405  0.003888  3.904559  0.005
C  C157  1  0.13328921  0.00985205  0.59616739  1  -0.030723  0.005788  -0.07796  -0.167476  0.003888  3.904404  0.005
C  C158  1  0.13329488  0.49015433  0.09616297  1  -0.030421  0.005787  -0.078016  -0.16762  0.003888  3.904554  0.005
C  C159  1  0.86670337  0.99014656  0.40382959  1  -0.030707  0.005788  -0.077971  -0.167418  0.003888  3.904611  0.005
C  C160  1  0.74149078  0.50484731  0.90332391  1  0.452055  -0.000368  0.051675  0.102216  -0.000642  3.906169  0.0
C  C161  1  0.25851268  0.00485211  0.59667792  1  0.452118  -0.000367  0.051696  0.102262  -0.000641  3.906004  0.0
C  C162  1  0.25851741  0.49515545  0.09667594  1  0.452095  -0.000367  0.051701  0.102351  -0.000642  3.905984  0.0
C  C163  1  0.74148072  0.99514483  0.40332577  1  0.45229  -0.000369  0.051681  0.102172  -0.000641  3.905974  0.0
C  C164  1  0.74986723  0.31430965  0.92203578  1  0.500315  -0.001336  0.054312  0.106062  -0.001849  3.930888  -0.001
C  C165  1  0.25013099  0.81431704  0.57796387  1  0.500003  -0.001336  0.05429  0.105925  -0.001848  3.930714  -0.001
C  C166  1  0.25013734  0.68569145  0.07796059  1  0.50027  -0.001335  0.054248  0.105879  -0.001848  3.930889  -0.001
C  C167  1  0.74986069  0.18568323  0.42203199  1  0.500456  -0.001336  0.054392  0.105993  -0.001848  3.930689  -0.001
C  C168  1  0.87479508  0.31230612  0.92225581  1  -0.030431  0.005055  -0.078658  -0.165972  0.003382  3.936652  0.004
C  C169  1  0.12520130  0.81231315  0.57774260  1  -0.030151  0.005054  -0.078675  -0.165856  0.003382  3.93659  0.004
C  C170  1  0.12520588  0.68769331  0.07773555  1  -0.030843  0.005054  -0.07862  -0.165898  0.003382  3.936616  0.004
C  C171  1  0.87478772  0.18768878  0.42224683  1  -0.030611  0.005055  -0.078621  -0.165707  0.003382  3.936744  0.004
N  N172  1  0.76936019  0.89996310  0.14575411  1  -1.249101  -1e-06  -0.207246  0.102382  -1.8e-05  3.748691  0.0
N  N173  1  0.23064135  0.39995761  0.35424241  1  -1.249222  -1e-06  -0.207362  0.102113  -1.8e-05  3.748709  0.0
N  N174  1  0.23063880  0.10003634  0.85424566  1  -1.249049  -1e-06  -0.207277  0.102319  -1.8e-05  3.748739  0.0
N  N175  1  0.76936223  0.60003933  0.64575791  1  -1.249383  -1e-06  -0.207346  0.102247  -1.8e-05  3.748832  0.0
N  N176  1  0.32247426  0.40576725  0.91501511  1  -1.19791  0.079098  -0.340237  -0.22557  0.052801  3.601068  0.069
N  N177  1  0.67752604  0.90576587  0.58499037  1  -1.197907  0.079105  -0.340326  -0.225752  0.052805  3.601384  0.069
N  N178  1  0.67753388  0.59424050  0.08498829  1  -1.198041  0.079105  -0.340201  -0.225491  0.052805  3.600954  0.069
N  N179  1  0.32246738  0.09422857  0.41501129  1  -1.198069  0.079099  -0.340248  -0.225494  0.052803  3.601095  0.069
N  N180  1  0.68436521  0.40921601  0.91336617  1  -1.192967  0.088795  -0.338118  -0.207  0.059213  3.574808  0.077
N  N181  1  0.31563796  0.90922108  0.58663355  1  -1.192686  0.088785  -0.338212  -0.207123  0.059207  3.574732  0.077
N  N182  1  0.31564484  0.59078675  0.08663288  1  -1.192904  0.088787  -0.338178  -0.207056  0.059208  3.574492  0.077
N  N183  1  0.68435361  0.09077669  0.41336891  1  -1.192845  0.088789  -0.338281  -0.207106  0.059208  3.574515  0.077
O  O184  1  0.84754168  0.65093107  0.29504743  1  -1.17616  0.000174  -0.35739  -0.576922  9.6e-05  2.074078  0.0
O  O185  1  0.15243677  0.15092049  0.20495199  1  -1.175932  0.000174  -0.357455  -0.576997  9.6e-05  2.074048  0.0
O  O186  1  0.15245541  0.34907170  0.70495568  1  -1.176142  0.000174  -0.357348  -0.576864  9.6e-05  2.074133  0.0
O  O187  1  0.84753718  0.84906563  0.79505806  1  -1.176014  0.000174  -0.357438  -0.576932  9.6e-05  2.073943  0.0
O  O188  1  0.00707731  0.75696069  0.35249991  1  -1.193825  0.000695  -0.373667  -0.61117  0.000431  2.06808  0.001
O  O189  1  0.99291901  0.25696589  0.14750111  1  -1.193978  0.000695  -0.373595  -0.611015  0.000431  2.068442  0.001
O  O190  1  0.99292348  0.24304041  0.64750161  1  -1.193771  0.000695  -0.373648  -0.611164  0.000431  2.068176  0.001
O  O191  1  0.00707809  0.74303272  0.85250150  1  -1.193767  0.000695  -0.37365  -0.611084  0.000431  2.068437  0.001
O  O192  1  0.47477269  0.05486699  0.31211707  1  -1.098055  0.111299  -0.323929  -0.534811  0.07071  2.300427  0.099
O  O193  1  0.52523026  0.55487091  0.18788323  1  -1.097929  0.11131  -0.324003  -0.534867  0.070717  2.300299  0.099
O  O194  1  0.52522351  0.94513578  0.68788390  1  -1.09806  0.111303  -0.32394  -0.534822  0.070713  2.300467  0.099
O  O195  1  0.47477791  0.44513020  0.81211815  1  -1.097895  0.111309  -0.323986  -0.534828  0.070715  2.300416  0.099
O  O196  1  0.47572337  0.24229841  0.30351724  1  -1.186934  0.002297  -0.33008  -0.581993  0.000448  2.181208  0.003
O  O197  1  0.52428753  0.74230482  0.19649008  1  -1.186604  0.002297  -0.330018  -0.5819  0.000448  2.181486  0.003
O  O198  1  0.52428475  0.75770269  0.69648718  1  -1.187058  0.002297  -0.330026  -0.58191  0.000448  2.181366  0.003
O  O199  1  0.47572151  0.25769628  0.80351445  1  -1.186953  0.002297  -0.33002  -0.581882  0.000448  2.181136  0.003
O  O200  1  0.54192428  0.29257144  0.98866098  1  -1.124996  0.100623  -0.33129  -0.570055  0.064079  2.410587  0.092
O  O201  1  0.45808205  0.79256533  0.51134472  1  -1.12483  0.100632  -0.331345  -0.570208  0.064088  2.410529  0.092
O  O202  1  0.45808664  0.70743299  0.01134174  1  -1.125108  0.100629  -0.331276  -0.569983  0.064085  2.410549  0.092
O  O203  1  0.54191321  0.20742994  0.48865766  1  -1.125178  0.10063  -0.331303  -0.570085  0.064086  2.410571  0.092
O  O204  1  0.48916789  0.40522283  0.06988276  1  -1.179895  0.002602  -0.316826  -0.590269  0.000845  2.397575  0.004
O  O205  1  0.51082710  0.90522067  0.43012113  1  -1.179905  0.002601  -0.316833  -0.590331  0.000844  2.397612  0.004
O  O206  1  0.51084210  0.59477910  0.93012035  1  -1.179789  0.002602  -0.316774  -0.590154  0.000844  2.397856  0.004
O  O207  1  0.48916629  0.09477710  0.56988256  1  -1.179809  0.002603  -0.316785  -0.590173  0.000845  2.397602  0.004
