# generated using pymatgen
data_HgH12(C3N2)2
_symmetry_space_group_name_H-M   'P 1'
_cell_length_a   8.86059205
_cell_length_b   10.05059596
_cell_length_c   10.81815762
_cell_angle_alpha   89.99998943
_cell_angle_beta   90.00004622
_cell_angle_gamma   90.00008860
_symmetry_Int_Tables_number   1
_chemical_formula_structural   HgH12(C3N2)2
_chemical_formula_sum   'Hg4 H48 C24 N16'
_cell_volume   963.40270411
_cell_formula_units_Z   4
loop_
 _symmetry_equiv_pos_site_id
 _symmetry_equiv_pos_as_xyz
  1  'x, y, z'
loop_
 _atom_site_type_symbol
 _atom_site_label
 _atom_site_symmetry_multiplicity
 _atom_site_fract_x
 _atom_site_fract_y
 _atom_site_fract_z
 _atom_site_occupancy
 _atom_site_hle17_bader_spin_density
 _atom_site_hle17_ddec_charge
 _atom_site_hle17_ddec_spin_density
 _atom_site_hle17_ddec_sum_bond_order
 _atom_site_hle17_magmom
 _atom_site_hse06_10hf_bader_spin_density
 _atom_site_hse06_10hf_ddec_charge
 _atom_site_hse06_10hf_ddec_spin_density
 _atom_site_hse06_10hf_ddec_sum_bond_order
 _atom_site_hse06_10hf_magmom
 _atom_site_hse06_bader_spin_density
 _atom_site_hse06_ddec_charge
 _atom_site_hse06_ddec_spin_density
 _atom_site_hse06_ddec_sum_bond_order
 _atom_site_hse06_magmom
 _atom_site_pbe_bader_spin_density
 _atom_site_pbe_cm5_charge
 _atom_site_pbe_ddec_charge
 _atom_site_pbe_ddec_spin_density
 _atom_site_pbe_ddec_sum_bond_order
 _atom_site_pbe_magmom
Hg  Hg0  1  0.06757610  0.20495699  0.60183631  1  0  0.619085  0  2.381781  0  0  0.464854  0  2.875678  0  0  0.498973  0  2.844181  0  0  0.554249  0.441136  0  2.896675  0
Hg  Hg1  1  0.56757696  0.79504375  0.39816126  1  0  0.619112  0  2.381834  0  0  0.464917  0  2.875719  0  0  0.49903  0  2.844219  0  0  0.554305  0.441207  0  2.896721  0
Hg  Hg2  1  0.06757668  0.70495517  0.89816306  1  0  0.619094  0  2.381749  0  0  0.464871  0  2.875652  0  0  0.498989  0  2.844152  0  0  0.554294  0.441154  0  2.89665  0
Hg  Hg3  1  0.56757638  0.29504756  0.10183913  1  0  0.619125  0  2.381838  0  0  0.464881  0  2.87578  0  0  0.498999  0  2.844277  0  0  0.554317  0.441172  0  2.896771  0
H  H4  1  0.96252537  0.11553302  0.85530953  1  0  0.282712  0  0.936795  0  0  0.275069  0  0.991231  0  0  0.280082  0  0.989206  0  0  0.281379  0.271431  0  0.992877  0
H  H5  1  0.46252750  0.88446726  0.14469015  1  0  0.282665  0  0.936747  0  0  0.275061  0  0.991145  0  0  0.280075  0  0.989118  0  0  0.281357  0.271427  0  0.992786  0
H  H6  1  0.96252570  0.61553523  0.64469322  1  0  0.282682  0  0.936839  0  0  0.275046  0  0.991259  0  0  0.280055  0  0.989241  0  0  0.281394  0.271409  0  0.992914  0
H  H7  1  0.46252717  0.38446106  0.35530739  1  0  0.282629  0  0.937045  0  0  0.274985  0  0.991439  0  0  0.279988  0  0.989435  0  0  0.281408  0.271354  0  0.993087  0
H  H8  1  0.06176176  0.25378192  0.86683614  1  0  0.285794  0  0.942794  0  0  0.276794  0  0.998066  0  0  0.282538  0  0.994826  0  0  0.280836  0.272878  0  0.999706  0
H  H9  1  0.56176002  0.74621781  0.13316605  1  0  0.285735  0  0.942854  0  0  0.276729  0  0.998137  0  0  0.282471  0  0.994899  0  0  0.280829  0.272811  0  0.999784  0
H  H10  1  0.06176321  0.75378215  0.63316322  1  0  0.285802  0  0.942769  0  0  0.276795  0  0.998067  0  0  0.28254  0  0.994826  0  0  0.280826  0.272879  0  0.99971  0
H  H11  1  0.56176421  0.24621560  0.36683804  1  0  0.285803  0  0.942715  0  0  0.276782  0  0.998042  0  0  0.282527  0  0.994801  0  0  0.280795  0.272865  0  0.999691  0
H  H12  1  0.32848433  0.38595240  0.61079354  1  0  0.285108  0  0.954794  0  0  0.271221  0  1.01997  0  0  0.277716  0  1.015362  0  0  0.274567  0.266595  0  1.023245  0
H  H13  1  0.82848600  0.61404869  0.38920513  1  0  0.28513  0  0.954765  0  0  0.271235  0  1.019964  0  0  0.277729  0  1.015356  0  0  0.274572  0.266611  0  1.023231  0
H  H14  1  0.32848491  0.88594959  0.88920505  1  0  0.285109  0  0.954774  0  0  0.271215  0  1.01997  0  0  0.277709  0  1.015361  0  0  0.274578  0.266589  0  1.023237  0
H  H15  1  0.82848091  0.11404752  0.11079732  1  0  0.285059  0  0.954854  0  0  0.271175  0  1.020026  0  0  0.277669  0  1.015419  0  0  0.274583  0.26655  0  1.023294  0
H  H16  1  0.27186062  0.35925841  0.75444923  1  0  0.274433  0  0.95021  0  0  0.268105  0  1.003408  0  0  0.272881  0  1.001888  0  0  0.277886  0.264726  0  1.004623  0
H  H17  1  0.77186107  0.64074061  0.24554940  1  0  0.274469  0  0.950133  0  0  0.268144  0  1.003329  0  0  0.272917  0  1.001815  0  0  0.277896  0.264766  0  1.004541  0
H  H18  1  0.27186106  0.85925762  0.74554933  1  0  0.27441  0  0.950075  0  0  0.268059  0  1.00332  0  0  0.272834  0  1.001799  0  0  0.277851  0.264677  0  1.004529  0
H  H19  1  0.77185838  0.14073743  0.25445392  1  0  0.274451  0  0.949982  0  0  0.268072  0  1.003266  0  0  0.272846  0  1.001748  0  0  0.277815  0.264691  0  1.004486  0
H  H20  1  0.85447071  0.38160375  0.78140964  1  0  0.044866  0  0.934563  0  0  0.064994  0  0.995909  0  0  0.064393  0  0.997843  0  0  0.093158  0.065401  0  0.99489  0
H  H21  1  0.35446794  0.61839638  0.21859274  1  0  0.04481  0  0.934497  0  0  0.06495  0  0.995834  0  0  0.064347  0  0.997768  0  0  0.093126  0.065355  0  0.994818  0
H  H22  1  0.85446999  0.88160196  0.71859114  1  0  0.044855  0  0.934648  0  0  0.064972  0  0.995963  0  0  0.064371  0  0.997897  0  0  0.093139  0.065376  0  0.994939  0
H  H23  1  0.35446866  0.11839817  0.28140847  1  0  0.044874  0  0.934653  0  0  0.064988  0  0.995974  0  0  0.064387  0  0.997909  0  0  0.093151  0.065398  0  0.994947  0
H  H24  1  0.80923446  0.30594849  0.92388029  1  0  0.024442  0  0.968954  0  0  0.042938  0  1.04126  0  0  0.042374  0  1.041794  0  0  0.082147  0.043138  0  1.040886  0
H  H25  1  0.30923281  0.69405158  0.07612206  1  0  0.02444  0  0.968976  0  0  0.042937  0  1.041271  0  0  0.04237  0  1.041805  0  0  0.082162  0.043137  0  1.040899  0
H  H26  1  0.80923586  0.80594972  0.57612048  1  0  0.024474  0  0.968972  0  0  0.042926  0  1.041276  0  0  0.042359  0  1.041814  0  0  0.08216  0.043123  0  1.040906  0
H  H27  1  0.30923479  0.19405035  0.42387818  1  0  0.024479  0  0.968953  0  0  0.042931  0  1.041268  0  0  0.042366  0  1.041805  0  0  0.082163  0.043131  0  1.040896  0
H  H28  1  0.74257050  0.17219819  0.67487300  1  0  0.065045  0  0.95728  0  0  0.080864  0  1.026158  0  0  0.081683  0  1.026276  0  0  0.082002  0.079697  0  1.02704  0
H  H29  1  0.24257159  0.82780279  0.32512838  1  0  0.06502  0  0.957272  0  0  0.080844  0  1.026149  0  0  0.081661  0  1.026269  0  0  0.081986  0.079678  0  1.027028  0
H  H30  1  0.74257327  0.67219738  0.82512590  1  0  0.065029  0  0.957266  0  0  0.080858  0  1.026162  0  0  0.081672  0  1.026295  0  0  0.08199  0.079693  0  1.02704  0
H  H31  1  0.24256882  0.32780061  0.17487271  1  0  0.065047  0  0.957323  0  0  0.080878  0  1.026177  0  0  0.081696  0  1.026296  0  0  0.081999  0.079712  0  1.027059  0
H  H32  1  0.67446334  0.12506261  0.82202466  1  0  0.064199  0  0.944765  0  0  0.080651  0  1.010307  0  0  0.081466  0  1.010929  0  0  0.08498  0.079942  0  1.01021  0
H  H33  1  0.17446663  0.87494026  0.17797576  1  0  0.064171  0  0.944781  0  0  0.080626  0  1.010332  0  0  0.081449  0  1.010941  0  0  0.084972  0.079914  0  1.010234  0
H  H34  1  0.67446484  0.62506283  0.67797513  1  0  0.064169  0  0.944774  0  0  0.08063  0  1.010327  0  0  0.081456  0  1.010938  0  0  0.084979  0.079921  0  1.010234  0
H  H35  1  0.17446400  0.37493606  0.32202343  1  0  0.064207  0  0.94479  0  0  0.080659  0  1.010326  0  0  0.081484  0  1.010936  0  0  0.084994  0.079949  0  1.010238  0
H  H36  1  0.59925859  0.38128619  0.67929143  1  0  0.071574  0  0.933076  0  0  0.089704  0  0.991695  0  0  0.090462  0  0.99269  0  0  0.088726  0.088824  0  0.991641  0
H  H37  1  0.09925818  0.61871559  0.32070893  1  0  0.071559  0  0.933132  0  0  0.089681  0  0.991742  0  0  0.090441  0  0.992738  0  0  0.088723  0.088805  0  0.991687  0
H  H38  1  0.59925910  0.88128538  0.82071011  1  0  0.071546  0  0.933103  0  0  0.089679  0  0.99172  0  0  0.090438  0  0.992714  0  0  0.088721  0.088803  0  0.991659  0
H  H39  1  0.09925654  0.11871241  0.17929210  1  0  0.071558  0  0.933087  0  0  0.089692  0  0.991697  0  0  0.090447  0  0.992693  0  0  0.088728  0.088816  0  0.991636  0
H  H40  1  0.53812616  0.35185106  0.83232117  1  0  0.048173  0  0.964497  0  0  0.06309  0  1.037914  0  0  0.063635  0  1.037947  0  0  0.077222  0.062666  0  1.038286  0
H  H41  1  0.03812564  0.64815262  0.16767915  1  0  0.048217  0  0.964461  0  0  0.063098  0  1.037891  0  0  0.063644  0  1.037929  0  0  0.077219  0.062674  0  1.038261  0
H  H42  1  0.53812652  0.85184929  0.66768126  1  0  0.04822  0  0.964488  0  0  0.063098  0  1.037936  0  0  0.063645  0  1.03797  0  0  0.077235  0.062672  0  1.038305  0
H  H43  1  0.03812529  0.14814743  0.33232091  1  0  0.048214  0  0.964464  0  0  0.063095  0  1.037911  0  0  0.06364  0  1.037941  0  0  0.077226  0.062666  0  1.038286  0
H  H44  1  0.46117731  0.17404267  0.61040814  1  0  0.050257  0  0.934286  0  0  0.069692  0  0.995676  0  0  0.069119  0  0.997478  0  0  0.095386  0.069901  0  0.994576  0
H  H45  1  0.96117484  0.82596159  0.38959154  1  0  0.050209  0  0.934188  0  0  0.069634  0  0.995586  0  0  0.06906  0  0.997385  0  0  0.095347  0.069847  0  0.994488  0
H  H46  1  0.46117676  0.67403886  0.88959242  1  0  0.050229  0  0.934274  0  0  0.06966  0  0.995674  0  0  0.069087  0  0.997476  0  0  0.095363  0.069869  0  0.994575  0
H  H47  1  0.96117313  0.32595743  0.11040818  1  0  0.050217  0  0.934187  0  0  0.069638  0  0.995604  0  0  0.069068  0  0.997401  0  0  0.095346  0.069847  0  0.9945  0
H  H48  1  0.39861947  0.14924508  0.76377250  1  0  0.050331  0  0.92755  0  0  0.069555  0  0.988022  0  0  0.069267  0  0.989396  0  0  0.09483  0.069563  0  0.987334  0
H  H49  1  0.89861689  0.85075611  0.23622529  1  0  0.050318  0  0.927487  0  0  0.069523  0  0.987965  0  0  0.069233  0  0.989337  0  0  0.094847  0.069539  0  0.987281  0
H  H50  1  0.39861877  0.64924329  0.73622710  1  0  0.050318  0  0.927526  0  0  0.069538  0  0.988004  0  0  0.069249  0  0.989377  0  0  0.094837  0.069547  0  0.987321  0
H  H51  1  0.89861646  0.35075292  0.26377346  1  0  0.05031  0  0.92758  0  0  0.069524  0  0.988048  0  0  0.069237  0  0.989422  0  0  0.094829  0.069536  0  0.987362  0
C  C52  1  0.14487210  0.01150284  0.57305141  1  0  -0.043723  0  3.445668  0  0  -0.017848  0  3.782977  0  0  -0.018193  0  3.7934  0  0  0.019948  -0.017673  0  3.775979  0
C  C53  1  0.64486995  0.98849899  0.42693789  1  0  -0.043877  0  3.445619  0  0  -0.018027  0  3.782936  0  0  -0.018372  0  3.793357  0  0  0.019799  -0.017848  0  3.775935  0
C  C54  1  0.14487836  0.51150102  0.92694989  1  0  -0.043725  0  3.445547  0  0  -0.017854  0  3.782866  0  0  -0.0182  0  3.793288  0  0  0.019929  -0.017681  0  3.775866  0
C  C55  1  0.64487498  0.48850181  0.07305605  1  0  -0.043821  0  3.44546  0  0  -0.01795  0  3.782784  0  0  -0.018297  0  3.793203  0  0  0.019863  -0.01777  0  3.77578  0
C  C56  1  0.94888639  0.37219544  0.53947939  1  0  -0.02619  0  3.428404  0  0  0.000428  0  3.76217  0  0  -0.000534  0  3.773765  0  0  0.026653  0.001234  0  3.754007  0
C  C57  1  0.44889290  0.62780582  0.46052121  1  0  -0.026237  0  3.428224  0  0  0.000355  0  3.762022  0  0  -0.000604  0  3.77361  0  0  0.026603  0.001164  0  3.753854  0
C  C58  1  0.94888478  0.87219162  0.96051869  1  0  -0.02622  0  3.428461  0  0  0.000383  0  3.762243  0  0  -0.000579  0  3.773835  0  0  0.026634  0.001186  0  3.754077  0
C  C59  1  0.44889113  0.12781063  0.03948006  1  0  -0.026185  0  3.428355  0  0  0.00043  0  3.762136  0  0  -0.000532  0  3.773729  0  0  0.026626  0.001233  0  3.753958  0
C  C60  1  0.83675964  0.28465027  0.82638866  1  0  0.084361  0  3.687585  0  0  0.025198  0  3.955315  0  0  0.02935  0  3.970851  0  0  -0.082845  0.02282  0  3.943776  0
C  C61  1  0.33675699  0.71535182  0.17361094  1  0  0.084441  0  3.687483  0  0  0.025263  0  3.955243  0  0  0.029421  0  3.970771  0  0  -0.082831  0.022893  0  3.943691  0
C  C62  1  0.83676000  0.78465348  0.67361214  1  0  0.084281  0  3.687676  0  0  0.025231  0  3.9553  0  0  0.029384  0  3.970837  0  0  -0.082837  0.022881  0  3.943717  0
C  C63  1  0.33676001  0.21534365  0.32638746  1  0  0.08432  0  3.687404  0  0  0.025239  0  3.955024  0  0  0.029388  0  3.970557  0  0  -0.082824  0.022882  0  3.943453  0
C  C64  1  0.70589357  0.21173312  0.76509445  1  0  -0.143402  0  3.703924  0  0  -0.180079  0  3.96011  0  0  -0.182432  0  3.976021  0  0  -0.172323  -0.177344  0  3.947996  0
C  C65  1  0.20589337  0.78826780  0.23490784  1  0  -0.143328  0  3.70396  0  0  -0.18003  0  3.960142  0  0  -0.182382  0  3.976044  0  0  -0.1723  -0.17729  0  3.948022  0
C  C66  1  0.70589400  0.71173134  0.73490719  1  0  -0.143262  0  3.703869  0  0  -0.179977  0  3.960012  0  0  -0.182337  0  3.975923  0  0  -0.172286  -0.177249  0  3.947905  0
C  C67  1  0.20589182  0.28826859  0.26509232  1  0  -0.143396  0  3.703862  0  0  -0.180086  0  3.959991  0  0  -0.182441  0  3.975891  0  0  -0.17232  -0.17736  0  3.947891  0
C  C68  1  0.56932038  0.30186600  0.74517326  1  0  -0.136593  0  3.701497  0  0  -0.17214  0  3.956214  0  0  -0.174147  0  3.971845  0  0  -0.170713  -0.170684  0  3.945101  0
C  C69  1  0.06931891  0.69813773  0.25482616  1  0  -0.136687  0  3.7016  0  0  -0.172168  0  3.956243  0  0  -0.174191  0  3.97188  0  0  -0.170725  -0.17071  0  3.945121  0
C  C70  1  0.56931969  0.80186321  0.75482458  1  0  -0.136623  0  3.701535  0  0  -0.172134  0  3.956274  0  0  -0.174151  0  3.971913  0  0  -0.170716  -0.170676  0  3.945152  0
C  C71  1  0.06931846  0.19813255  0.24517392  1  0  -0.136594  0  3.701541  0  0  -0.17213  0  3.956239  0  0  -0.174134  0  3.97187  0  0  -0.170721  -0.170673  0  3.945123  0
C  C72  1  0.43223125  0.22608632  0.69666126  1  0  0.085765  0  3.663715  0  0  0.02996  0  3.929039  0  0  0.034263  0  3.943347  0  0  -0.079854  0.027301  0  3.918949  0
C  C73  1  0.93222973  0.77391491  0.30333563  1  0  0.085859  0  3.663545  0  0  0.030109  0  3.928767  0  0  0.034422  0  3.943066  0  0  -0.079799  0.027441  0  3.918692  0
C  C74  1  0.43223287  0.72608552  0.80333835  1  0  0.085744  0  3.663701  0  0  0.029947  0  3.929015  0  0  0.034253  0  3.943321  0  0  -0.07987  0.027285  0  3.918931  0
C  C75  1  0.93222924  0.27391074  0.19666409  1  0  0.085816  0  3.663746  0  0  0.030064  0  3.928985  0  0  0.034361  0  3.943301  0  0  -0.079805  0.027402  0  3.918894  0
N  N76  1  0.19404567  0.90382210  0.56355436  1  0  -0.383121  0  2.840124  0  0  -0.352992  0  3.079842  0  0  -0.362484  0  3.095493  0  0  -0.337239  -0.346482  0  3.069262  0
N  N77  1  0.69404986  0.09617881  0.43644607  1  0  -0.382965  0  2.84001  0  0  -0.352811  0  3.079723  0  0  -0.362302  0  3.095373  0  0  -0.337089  -0.346295  0  3.069135  0
N  N78  1  0.19405105  0.40381987  0.93644691  1  0  -0.383117  0  2.840003  0  0  -0.352995  0  3.079742  0  0  -0.362484  0  3.095392  0  0  -0.337235  -0.346481  0  3.069154  0
N  N79  1  0.69405463  0.59618103  0.06355259  1  0  -0.383032  0  2.839856  0  0  -0.352914  0  3.0796  0  0  -0.362401  0  3.095249  0  0  -0.337176  -0.3464  0  3.069013  0
N  N80  1  0.88703281  0.47027714  0.51068148  1  0  -0.381412  0  2.826993  0  0  -0.346471  0  3.060279  0  0  -0.356147  0  3.075953  0  0  -0.332542  -0.339957  0  3.049777  0
N  N81  1  0.38703241  0.52972303  0.48931815  1  0  -0.381374  0  2.826795  0  0  -0.346431  0  3.060081  0  0  -0.356107  0  3.075755  0  0  -0.332515  -0.339915  0  3.049578  0
N  N82  1  0.88703010  0.97027232  0.98931839  1  0  -0.381402  0  2.827067  0  0  -0.346455  0  3.060354  0  0  -0.356131  0  3.076026  0  0  -0.332552  -0.33994  0  3.049849  0
N  N83  1  0.38703173  0.02972686  0.01068402  1  0  -0.381454  0  2.826888  0  0  -0.346517  0  3.060186  0  0  -0.356196  0  3.075859  0  0  -0.332555  -0.340001  0  3.049673  0
N  N84  1  0.97796232  0.20778727  0.81690096  1  0  -0.608032  0  3.089213  0  0  -0.547643  0  3.324098  0  0  -0.56805  0  3.326769  0  0  -0.61694  -0.533249  0  3.321317  0
N  N85  1  0.47796659  0.79220806  0.18309966  1  0  -0.607941  0  3.089164  0  0  -0.547568  0  3.32398  0  0  -0.567964  0  3.326627  0  0  -0.616907  -0.533186  0  3.321227  0
N  N86  1  0.97796157  0.70778251  0.68309994  1  0  -0.608015  0  3.089254  0  0  -0.547668  0  3.324126  0  0  -0.568063  0  3.326772  0  0  -0.616966  -0.533276  0  3.321354  0
N  N87  1  0.47795832  0.29222277  0.31690067  1  0  -0.607968  0  3.089172  0  0  -0.547579  0  3.324058  0  0  -0.567975  0  3.326718  0  0  -0.616952  -0.533197  0  3.321289  0
N  N88  1  0.30110464  0.31273284  0.67352141  1  0  -0.613684  0  3.101671  0  0  -0.555945  0  3.342234  0  0  -0.576217  0  3.343962  0  0  -0.621524  -0.541885  0  3.340152  0
N  N89  1  0.80110525  0.68726822  0.32648001  1  0  -0.613736  0  3.101647  0  0  -0.556026  0  3.342192  0  0  -0.576303  0  3.343916  0  0  -0.621538  -0.541967  0  3.340106  0
N  N90  1  0.30110628  0.81273103  0.82648272  1  0  -0.61359  0  3.101431  0  0  -0.555823  0  3.341985  0  0  -0.576094  0  3.343716  0  0  -0.621488  -0.541761  0  3.339887  0
N  N91  1  0.80110473  0.18726504  0.17351593  1  0  -0.613663  0  3.101566  0  0  -0.555903  0  3.342136  0  0  -0.576175  0  3.343867  0  0  -0.621498  -0.541842  0  3.34005  0
