# generated using pymatgen
data_ZnH13C16N2O4F3
_symmetry_space_group_name_H-M   'P 1'
_cell_length_a   8.38182657
_cell_length_b   9.77713570
_cell_length_c   10.76985655
_cell_angle_alpha   98.99898629
_cell_angle_beta   98.72444501
_cell_angle_gamma   105.40630821
_symmetry_Int_Tables_number   1
_chemical_formula_structural   ZnH13C16N2O4F3
_chemical_formula_sum   'Zn2 H26 C32 N4 O8 F6'
_cell_volume   822.91687962
_cell_formula_units_Z   2
loop_
 _symmetry_equiv_pos_site_id
 _symmetry_equiv_pos_as_xyz
  1  'x, y, z'
loop_
 _atom_site_type_symbol
 _atom_site_label
 _atom_site_symmetry_multiplicity
 _atom_site_fract_x
 _atom_site_fract_y
 _atom_site_fract_z
 _atom_site_occupancy
 _atom_site_hle17_bader_spin_density
 _atom_site_hle17_ddec_charge
 _atom_site_hle17_ddec_spin_density
 _atom_site_hle17_ddec_sum_bond_order
 _atom_site_hle17_magmom
 _atom_site_hse06_10hf_bader_spin_density
 _atom_site_hse06_10hf_ddec_charge
 _atom_site_hse06_10hf_ddec_spin_density
 _atom_site_hse06_10hf_ddec_sum_bond_order
 _atom_site_hse06_10hf_magmom
 _atom_site_hse06_bader_spin_density
 _atom_site_hse06_ddec_charge
 _atom_site_hse06_ddec_spin_density
 _atom_site_hse06_ddec_sum_bond_order
 _atom_site_hse06_magmom
 _atom_site_pbe_bader_spin_density
 _atom_site_pbe_cm5_charge
 _atom_site_pbe_ddec_charge
 _atom_site_pbe_ddec_spin_density
 _atom_site_pbe_ddec_sum_bond_order
 _atom_site_pbe_magmom
Zn  Zn0  1  0.67675045  0.43741308  0.60896397  1  0  1.045038  0  1.811395  0  0  0.855791  0  2.277166  0  0  0.907446  0  2.21876  0  0  0.693837  0.819726  0  2.317255  0
Zn  Zn1  1  0.32325058  0.56258666  0.39103611  1  0  1.045072  0  1.811304  0  0  0.855802  0  2.277107  0  0  0.907457  0  2.218702  0  0  0.693869  0.819734  0  2.31721  0
H  H2  1  0.45063833  0.42585778  0.80579589  1  0  0.089197  0  0.93777  0  0  0.098286  0  0.998914  0  0  0.10052  0  0.997118  0  0  0.117165  0.096731  0  1.000005  0
H  H3  1  0.54936233  0.57414087  0.19420399  1  0  0.089212  0  0.937756  0  0  0.0983  0  0.998892  0  0  0.100532  0  0.997099  0  0  0.117171  0.096748  0  0.999978  0
H  H4  1  0.37564786  0.60278935  0.96318434  1  0  0.112574  0  0.945774  0  0  0.120946  0  1.008831  0  0  0.124174  0  1.007966  0  0  0.105755  0.118667  0  1.009771  0
H  H5  1  0.62435318  0.39721039  0.03681574  1  0  0.112592  0  0.945711  0  0  0.120932  0  1.008809  0  0  0.12416  0  1.007944  0  0  0.105748  0.118655  0  1.009746  0
H  H6  1  0.79660793  0.93510424  0.90320148  1  0  0.105859  0  0.971177  0  0  0.113579  0  1.036479  0  0  0.116956  0  1.034775  0  0  0.099653  0.111108  0  1.037946  0
H  H7  1  0.20338950  0.06489551  0.09679631  1  0  0.105881  0  0.971162  0  0  0.113607  0  1.036459  0  0  0.116985  0  1.034754  0  0  0.099664  0.111135  0  1.037929  0
H  H8  1  0.85313440  0.74491497  0.75071806  1  0  0.081488  0  0.947996  0  0  0.091626  0  1.00921  0  0  0.093568  0  1.008028  0  0  0.117696  0.090231  0  1.009993  0
H  H9  1  0.14686581  0.25508586  0.24928115  1  0  0.08155  0  0.947917  0  0  0.091676  0  1.009139  0  0  0.093619  0  1.007956  0  0  0.117709  0.090281  0  1.009924  0
H  H10  1  0.89211887  0.43769300  0.41013452  1  0  0.096759  0  0.948498  0  0  0.104399  0  1.013049  0  0  0.107189  0  1.009981  0  0  0.120084  0.102295  0  1.015424  0
H  H11  1  0.10788103  0.56230349  0.58986403  1  0  0.096777  0  0.948428  0  0  0.104391  0  1.01303  0  0  0.107185  0  1.009955  0  0  0.120087  0.102289  0  1.015406  0
H  H12  1  0.87065310  0.29924221  0.19421406  1  0  0.114228  0  0.957784  0  0  0.120846  0  1.025162  0  0  0.124355  0  1.023603  0  0  0.102527  0.118456  0  1.026321  0
H  H13  1  0.12934596  0.70075536  0.80578547  1  0  0.114197  0  0.957795  0  0  0.120813  0  1.025179  0  0  0.12432  0  1.023617  0  0  0.102514  0.118424  0  1.026336  0
H  H14  1  0.46650542  0.95986043  0.26918713  1  0  0.123247  0  0.984004  0  0  0.132087  0  1.047312  0  0  0.135808  0  1.045595  0  0  0.105694  0.129506  0  1.048509  0
H  H15  1  0.53348996  0.04014042  0.73081242  1  0  0.123263  0  0.984011  0  0  0.132053  0  1.047383  0  0  0.135772  0  1.045673  0  0  0.105683  0.129473  0  1.048581  0
H  H16  1  0.50496370  0.11659608  0.48297077  1  0  0.080082  0  0.952163  0  0  0.090099  0  1.013912  0  0  0.091997  0  1.012655  0  0  0.116783  0.088704  0  1.014845  0
H  H17  1  0.49503530  0.88340475  0.51703015  1  0  0.080063  0  0.952223  0  0  0.0901  0  1.013957  0  0  0.091988  0  1.012701  0  0  0.116806  0.088703  0  1.014888  0
H  H18  1  0.45045820  0.84562562  0.09201027  1  0  0.093128  0  0.952716  0  0  0.104234  0  1.014401  0  0  0.106418  0  1.012953  0  0  0.105897  0.102752  0  1.015287  0
H  H19  1  0.54954124  0.15437304  0.90799039  1  0  0.093073  0  0.952782  0  0  0.104198  0  1.014422  0  0  0.106381  0  1.012974  0  0  0.105893  0.102728  0  1.01529  0
H  H20  1  0.74192453  0.07523492  0.03291886  1  0  0.071254  0  0.941814  0  0  0.080619  0  1.00491  0  0  0.082545  0  1.0034  0  0  0.099423  0.079239  0  1.006033  0
H  H21  1  0.25807453  0.92476265  0.96708161  1  0  0.071246  0  0.94182  0  0  0.080554  0  1.004975  0  0  0.082483  0  1.003463  0  0  0.099394  0.079175  0  1.006099  0
H  H22  1  0.87627309  0.91215213  0.54345036  1  0  0.134008  0  0.933873  0  0  0.156407  0  0.989019  0  0  0.158537  0  0.988737  0  0  0.099656  0.154849  0  0.989421  0
H  H23  1  0.12372711  0.08784870  0.45654977  1  0  0.133983  0  0.933918  0  0  0.156373  0  0.989081  0  0  0.158504  0  0.9888  0  0  0.099636  0.154821  0  0.989477  0
H  H24  1  0.81601782  0.86757607  0.37334131  1  0  0.132254  0  0.946442  0  0  0.148653  0  1.008302  0  0  0.151451  0  1.007168  0  0  0.091454  0.147  0  1.008643  0
H  H25  1  0.18398202  0.13242367  0.62665770  1  0  0.132255  0  0.946446  0  0  0.148663  0  1.008298  0  0  0.15146  0  1.007165  0  0  0.091467  0.147014  0  1.008636  0
H  H26  1  0.98107178  0.80740096  0.45531308  1  0  0.137209  0  0.948706  0  0  0.154311  0  1.009302  0  0  0.156619  0  1.009322  0  0  0.093359  0.152607  0  1.00953  0
H  H27  1  0.01893122  0.19260095  0.54468662  1  0  0.137219  0  0.948701  0  0  0.154323  0  1.00929  0  0  0.156633  0  1.009308  0  0  0.093367  0.152628  0  1.009515  0
C  C28  1  0.52403701  0.53989847  0.83159554  1  0  0.14235  0  3.696889  0  0  0.108557  0  3.950477  0  0  0.1163  0  3.969231  0  0  0.048794  0.103658  0  3.937623  0
C  C29  1  0.47596402  0.46010127  0.16840454  1  0  0.142262  0  3.696792  0  0  0.108483  0  3.950389  0  0  0.116226  0  3.969143  0  0  0.048764  0.103582  0  3.93753  0
C  C30  1  0.48357009  0.63908020  0.91883722  1  0  -0.165162  0  3.705251  0  0  -0.186525  0  3.963365  0  0  -0.19529  0  3.985639  0  0  -0.084554  -0.181277  0  3.949037  0
C  C31  1  0.51643019  0.36091737  0.08116246  1  0  -0.16507  0  3.705098  0  0  -0.186444  0  3.963214  0  0  -0.195207  0  3.985487  0  0  -0.084517  -0.181198  0  3.948884  0
C  C32  1  0.57666454  0.78611508  0.94495606  1  0  0.133896  0  3.727449  0  0  0.14425  0  3.966189  0  0  0.150063  0  3.988325  0  0  0.010396  0.140135  0  3.951538  0
C  C33  1  0.42333491  0.21388359  0.05504367  1  0  0.133833  0  3.727562  0  0  0.144236  0  3.966204  0  0  0.150048  0  3.98834  0  0  0.010385  0.14012  0  3.951558  0
C  C34  1  0.71591842  0.82380944  0.88665522  1  0  -0.17575  0  3.72617  0  0  -0.197717  0  3.984531  0  0  -0.206253  0  4.005765  0  0  -0.091751  -0.192099  0  3.970419  0
C  C35  1  0.28408021  0.17619031  0.11334271  1  0  -0.175712  0  3.726141  0  0  -0.197708  0  3.984475  0  0  -0.206245  0  4.005712  0  0  -0.091729  -0.192088  0  3.970363  0
C  C36  1  0.74902124  0.71816234  0.80079704  1  0  0.138593  0  3.715454  0  0  0.104916  0  3.969475  0  0  0.112876  0  3.987804  0  0  0.04311  0.099934  0  3.956742  0
C  C37  1  0.25097737  0.28183741  0.19920368  1  0  0.138505  0  3.715355  0  0  0.104852  0  3.969366  0  0  0.112813  0  3.987691  0  0  0.043093  0.09987  0  3.956634  0
C  C38  1  0.80086180  0.33080281  0.37640674  1  0  0.150429  0  3.680358  0  0  0.117403  0  3.932061  0  0  0.125896  0  3.949065  0  0  0.049676  0.111757  0  3.92056  0
C  C39  1  0.19914044  0.66919692  0.62359349  1  0  0.150429  0  3.680328  0  0  0.117384  0  3.932053  0  0  0.125877  0  3.949059  0  0  0.049657  0.111738  0  3.920554  0
C  C40  1  0.78764881  0.25141008  0.25462939  1  0  -0.166988  0  3.695641  0  0  -0.186697  0  3.950563  0  0  -0.195368  0  3.971855  0  0  -0.08452  -0.181084  0  3.936311  0
C  C41  1  0.21235025  0.74858750  0.74537014  1  0  -0.166958  0  3.695588  0  0  -0.186638  0  3.950499  0  0  -0.195309  0  3.971792  0  0  -0.084502  -0.18103  0  3.936249  0
C  C42  1  0.66164430  0.11814868  0.20877147  1  0  0.126597  0  3.72783  0  0  0.136101  0  3.965592  0  0  0.141443  0  3.988911  0  0  0.007949  0.132641  0  3.949487  0
C  C43  1  0.33835395  0.88184999  0.79122719  1  0  0.126583  0  3.727809  0  0  0.136076  0  3.965546  0  0  0.141422  0  3.988864  0  0  0.007955  0.132619  0  3.949442  0
C  C44  1  0.56369312  0.06471436  0.29522324  1  0  -0.179791  0  3.703031  0  0  -0.196675  0  3.949196  0  0  -0.205966  0  3.971899  0  0  -0.089482  -0.19069  0  3.933734  0
C  C45  1  0.43630270  0.93528431  0.70477699  1  0  -0.179739  0  3.70309  0  0  -0.196571  0  3.94927  0  0  -0.205863  0  3.971971  0  0  -0.089451  -0.190593  0  3.933811  0
C  C46  1  0.58480634  0.15078107  0.41578218  1  0  0.130141  0  3.716007  0  0  0.100467  0  3.9627  0  0  0.107526  0  3.982934  0  0  0.041862  0.095996  0  3.949034  0
C  C47  1  0.41519266  0.84921976  0.58421781  1  0  0.130132  0  3.716051  0  0  0.100421  0  3.962752  0  0  0.107492  0  3.982978  0  0  0.041845  0.095955  0  3.94908  0
C  C48  1  0.51041081  0.89370029  0.01891330  1  0  -0.069617  0  3.517908  0  0  -0.08142  0  3.746309  0  0  -0.083443  0  3.760279  0  0  -0.073539  -0.079897  0  3.736519  0
C  C49  1  0.48958744  0.10629838  0.98108629  1  0  -0.069666  0  3.517909  0  0  -0.081413  0  3.746149  0  0  -0.083435  0  3.760117  0  0  -0.073566  -0.079898  0  3.736351  0
C  C50  1  0.62381785  0.05165229  0.06844643  1  0  -0.053936  0  3.521279  0  0  -0.063709  0  3.753579  0  0  -0.065415  0  3.767518  0  0  -0.069244  -0.062328  0  3.743738  0
C  C51  1  0.37618001  0.94834529  0.93155388  1  0  -0.053914  0  3.521228  0  0  -0.063639  0  3.753509  0  0  -0.065353  0  3.767455  0  0  -0.069209  -0.06226  0  3.743671  0
C  C52  1  0.85812293  0.33037124  0.77743489  1  0  0.470415  0  4.060678  0  0  0.422016  0  4.364269  0  0  0.451271  0  4.35893  0  0  0.183359  0.402253  0  4.367493  0
C  C53  1  0.14187968  0.66962958  0.22256739  1  0  0.470511  0  4.06054  0  0  0.422026  0  4.364294  0  0  0.451327  0  4.358873  0  0  0.183377  0.402256  0  4.367543  0
C  C54  1  0.99077214  0.29000633  0.87047934  1  0  0.679475  0  3.631714  0  0  0.605119  0  3.981563  0  0  0.633066  0  3.953432  0  0  0.29415  0.585013  0  4.001895  0
C  C55  1  0.00922927  0.70999450  0.12952001  1  0  0.679652  0  3.631373  0  0  0.60525  0  3.981339  0  0  0.633192  0  3.953189  0  0  0.294159  0.585143  0  4.001675  0
C  C56  1  0.72868640  0.69218977  0.47029975  1  0  0.774681  0  3.822276  0  0  0.729  0  4.119148  0  0  0.764688  0  4.108855  0  0  0.221018  0.704872  0  4.125282  0
C  C57  1  0.27131216  0.30781323  0.52969864  1  0  0.774932  0  3.82203  0  0  0.729222  0  4.118937  0  0  0.764909  0  4.108644  0  0  0.221095  0.705078  0  4.125098  0
C  C58  1  0.85899555  0.82749637  0.45789571  1  0  -0.459097  0  3.668943  0  0  -0.534583  0  3.902956  0  0  -0.542271  0  3.905404  0  0  -0.248823  -0.529463  0  3.901244  0
C  C59  1  0.14100745  0.17250554  0.54210491  1  0  -0.459153  0  3.668987  0  0  -0.534633  0  3.903019  0  0  -0.542324  0  3.905469  0  0  -0.248819  -0.529516  0  3.901306  0
N  N60  1  0.65206881  0.57903597  0.77022690  1  0  -0.336845  0  3.289576  0  0  -0.253869  0  3.55438  0  0  -0.274224  0  3.571293  0  0  -0.328623  -0.240042  0  3.542568  0
N  N61  1  0.34793222  0.42096377  0.22977318  1  0  -0.33683  0  3.289537  0  0  -0.25387  0  3.554336  0  0  -0.274224  0  3.57125  0  0  -0.328647  -0.240044  0  3.54253  0
N  N62  1  0.69671915  0.28410419  0.45472862  1  0  -0.34038  0  3.289148  0  0  -0.257751  0  3.553295  0  0  -0.278444  0  3.570496  0  0  -0.328998  -0.243809  0  3.541462  0
N  N63  1  0.30327909  0.71589448  0.54527097  1  0  -0.340404  0  3.289166  0  0  -0.257727  0  3.553293  0  0  -0.27842  0  3.570491  0  0  -0.328998  -0.243781  0  3.541455  0
O  O64  1  0.91450849  0.42848494  0.71764275  1  0  -0.558032  0  2.042423  0  0  -0.515658  0  2.295822  0  0  -0.541443  0  2.28759  0  0  -0.308551  -0.497737  0  2.300943  0
O  O65  1  0.08549255  0.57151480  0.28235733  1  0  -0.558131  0  2.042417  0  0  -0.51572  0  2.295841  0  0  -0.541522  0  2.287587  0  0  -0.308589  -0.497798  0  2.300971  0
O  O66  1  0.70718593  0.26162476  0.77197412  1  0  -0.557583  0  1.980901  0  0  -0.528981  0  2.215306  0  0  -0.550331  0  2.206637  0  0  -0.313373  -0.514002  0  2.22059  0
O  O67  1  0.29281350  0.73837390  0.22802747  1  0  -0.557595  0  1.980995  0  0  -0.528957  0  2.215445  0  0  -0.550322  0  2.206753  0  0  -0.313331  -0.513975  0  2.220737  0
O  O68  1  0.78386810  0.60813400  0.53280435  1  0  -0.664075  0  2.085481  0  0  -0.592352  0  2.359234  0  0  -0.621312  0  2.343924  0  0  -0.319357  -0.572255  0  2.368808  0
O  O69  1  0.21613691  0.39186681  0.46719915  1  0  -0.664165  0  2.085586  0  0  -0.592423  0  2.359341  0  0  -0.621384  0  2.34404  0  0  -0.319432  -0.572316  0  2.368921  0
O  O70  1  0.57592563  0.67532129  0.42063952  1  0  -0.671111  0  2.097852  0  0  -0.605302  0  2.377905  0  0  -0.632861  0  2.360346  0  0  -0.323677  -0.586257  0  2.389249  0
O  O71  1  0.42407742  0.32467735  0.57936157  1  0  -0.671211  0  2.097619  0  0  -0.605394  0  2.3777  0  0  -0.632954  0  2.36014  0  0  -0.323669  -0.586338  0  2.389053  0
F  F72  1  0.97539547  0.14468420  0.83950673  1  0  -0.263402  0  1.134146  0  0  -0.221842  0  1.28907  0  0  -0.230998  0  1.273253  0  0  -0.110599  -0.215188  0  1.300061  0
F  F73  1  0.02460632  0.85531771  0.16049468  1  0  -0.263518  0  1.134057  0  0  -0.221925  0  1.288983  0  0  -0.231086  0  1.273167  0  0  -0.110642  -0.215272  0  1.299973  0
F  F74  1  0.96597265  0.31776615  0.99369580  1  0  -0.258327  0  1.169023  0  0  -0.218329  0  1.33676  0  0  -0.229096  0  1.322037  0  0  -0.101397  -0.210669  0  1.346972  0
F  F75  1  0.03403073  0.68223684  0.00630502  1  0  -0.258364  0  1.169013  0  0  -0.218339  0  1.336758  0  0  -0.229108  0  1.322035  0  0  -0.101411  -0.210678  0  1.34697  0
F  F76  1  0.15368837  0.36263971  0.87219531  1  0  -0.242783  0  1.191972  0  0  -0.19831  0  1.354672  0  0  -0.207998  0  1.339825  0  0  -0.092829  -0.191347  0  1.365058  0
F  F77  1  0.84631463  0.63736220  0.12780346  1  0  -0.242817  0  1.19197  0  0  -0.198329  0  1.354688  0  0  -0.208023  0  1.339842  0  0  -0.092806  -0.191369  0  1.365075  0
