# generated using pymatgen
data_LiMnH12C16N2(Cl2O3)2
_symmetry_space_group_name_H-M   'P 1'
_cell_length_a   7.70857574
_cell_length_b   11.18993486
_cell_length_c   11.18995942
_cell_angle_alpha   83.19533547
_cell_angle_beta   84.75248233
_cell_angle_gamma   84.75243130
_symmetry_Int_Tables_number   1
_chemical_formula_structural   LiMnH12C16N2(Cl2O3)2
_chemical_formula_sum   'Li2 Mn2 H24 C32 N4 Cl8 O12'
_cell_volume   951.23472637
_cell_formula_units_Z   2
loop_
 _symmetry_equiv_pos_site_id
 _symmetry_equiv_pos_as_xyz
  1  'x, y, z'
loop_
 _atom_site_type_symbol
 _atom_site_label
 _atom_site_symmetry_multiplicity
 _atom_site_fract_x
 _atom_site_fract_y
 _atom_site_fract_z
 _atom_site_occupancy
 _atom_site_hse06_10hf_ddec_charge
 _atom_site_hse06_10hf_ddec_spin_density
 _atom_site_hse06_10hf_ddec_sum_bond_order
 _atom_site_hse06_10hf_magmom
 _atom_site_hse06_ddec_charge
 _atom_site_hse06_ddec_spin_density
 _atom_site_hse06_ddec_sum_bond_order
 _atom_site_hse06_magmom
 _atom_site_pbe_cm5_charge
 _atom_site_pbe_ddec_charge
 _atom_site_pbe_ddec_spin_density
 _atom_site_pbe_ddec_sum_bond_order
 _atom_site_pbe_magmom
Li  Li0  1  0.74999643  0.10472104  0.89528565  1  0.816997  -0.005558  0.502519  -0.003  0.82847  -0.005875  0.483938  -0.003  0.439669  0.808114  -0.005139  0.516619  -0.002
Li  Li1  1  0.24999867  0.89529703  0.10469873  1  0.816848  -0.002637  0.496857  -0.001  0.828739  -0.003292  0.477898  -0.002  0.417636  0.808369  -0.001825  0.509817  -0.001
Mn  Mn2  1  0.24999954  0.10570138  0.89429458  1  1.228911  3.815852  2.904266  3.683  1.339775  3.895696  2.811872  3.782  0.761925  1.150753  3.739321  2.968418  3.587
Mn  Mn3  1  0.74999781  0.89813168  0.10187563  1  1.042005  1.924699  3.395539  1.867  1.142256  1.962637  3.306009  1.915  0.781594  0.980863  1.881587  3.450786  1.814
H  H4  1  0.96811301  0.10888700  0.99148080  1  0.366836  0.003692  0.986034  0.007  0.377656  0.003029  0.970783  0.007  0.289625  0.358976  0.004337  0.996168  0.008
H  H5  1  0.53188583  0.00851850  0.89110970  1  0.366896  0.003692  0.985942  0.007  0.377716  0.003029  0.970683  0.007  0.28964  0.359038  0.004337  0.996076  0.008
H  H6  1  0.03620672  0.88833519  0.01013502  1  0.350924  0.003101  1.013271  0.007  0.360685  0.002427  0.999659  0.006  0.283298  0.344147  0.003706  1.022372  0.007
H  H7  1  0.46378589  0.98986973  0.11166067  1  0.350985  0.003101  1.013163  0.007  0.360744  0.002427  0.999554  0.006  0.283342  0.344212  0.003705  1.022177  0.007
H  H8  1  0.06813777  0.26690056  0.73613670  1  0.096639  0.001032  1.005918  0.0  0.097768  0.000779  1.004376  0.0  0.115596  0.095541  0.001255  1.007371  0.0
H  H9  1  0.43185974  0.26386340  0.73309133  1  0.096679  0.001032  1.005885  0.0  0.09782  0.000779  1.004354  0.0  0.115621  0.095586  0.001254  1.007337  0.0
H  H10  1  0.93902190  0.70624263  0.25741955  1  0.091693  -0.000604  0.995273  0.0  0.093509  -0.000505  0.992477  0.0  0.113134  0.089907  -0.000648  0.997761  0.0
H  H11  1  0.56097359  0.74257785  0.29376313  1  0.091733  -0.000604  0.995254  0.0  0.093548  -0.000505  0.992462  0.0  0.113147  0.089935  -0.000648  0.997746  0.0
H  H12  1  0.12044865  0.34553669  0.59068402  1  0.071804  -6.1e-05  1.061234  0.0  0.072754  -6.5e-05  1.060256  0.0  0.091376  0.071169  -4.4e-05  1.062037  0.0
H  H13  1  0.37954412  0.40931077  0.65444907  1  0.071782  -6.1e-05  1.061337  0.0  0.072746  -6.5e-05  1.060369  0.0  0.09139  0.071196  -4.4e-05  1.062108  0.0
H  H14  1  0.87790504  0.65324167  0.41151132  1  0.068782  -9.2e-05  1.065683  0.0  0.069342  -1.9e-05  1.064764  0.0  0.090767  0.068505  -0.000112  1.066164  0.0
H  H15  1  0.62209810  0.58848570  0.34675963  1  0.068771  -9.2e-05  1.065687  0.0  0.069329  -1.9e-05  1.064771  0.0  0.090775  0.068489  -0.000112  1.066159  0.0
H  H16  1  0.35867839  0.99148909  0.55556921  1  0.083338  0.000895  1.015204  0.001  0.08566  0.000628  1.010161  0.0  0.116531  0.081643  0.001198  1.018949  0.001
H  H17  1  0.14132316  0.44443274  0.00850140  1  0.083431  0.000895  1.015202  0.001  0.085749  0.000629  1.010154  0.0  0.116543  0.081738  0.001199  1.018953  0.001
H  H18  1  0.66026759  0.99607212  0.42958326  1  0.089748  -0.001304  1.005831  -0.001  0.092331  -0.001113  0.99978  -0.001  0.120345  0.087878  -0.001541  1.010425  -0.001
H  H19  1  0.83972611  0.57042282  0.00392564  1  0.089742  -0.001304  1.005815  -0.001  0.092324  -0.001113  0.999765  -0.001  0.120352  0.087873  -0.001541  1.010413  -0.001
H  H20  1  0.50250241  0.53943215  0.86351474  1  0.117173  1.5e-05  1.050739  0.0  0.120975  9e-06  1.047355  0.0  0.096083  0.114217  6e-06  1.053735  0.0
H  H21  1  0.99750330  0.13648222  0.46055521  1  0.117213  1.5e-05  1.050739  0.0  0.121019  9e-06  1.047356  0.0  0.096087  0.114259  6e-06  1.053728  0.0
H  H22  1  0.50630804  0.45670431  0.13731811  1  0.12209  -0.000231  1.044643  0.0  0.126148  -0.000158  1.040615  0.0  0.098922  0.11896  -0.000265  1.048035  0.0
H  H23  1  0.99369052  0.86269325  0.54329524  1  0.122224  -0.000231  1.044619  0.0  0.12628  -0.000158  1.040593  0.0  0.098998  0.119091  -0.000265  1.048005  0.0
H  H24  1  0.51604028  0.80784551  0.55469463  1  0.121286  -1.2e-05  1.007884  0.0  0.12469  -1.6e-05  1.004937  0.0  0.102569  0.118855  -9e-06  1.010058  0.0
H  H25  1  0.98397052  0.44530883  0.19214406  1  0.121286  -1.2e-05  1.007894  0.0  0.124689  -1.6e-05  1.004948  0.0  0.102584  0.118858  -9e-06  1.010072  0.0
H  H26  1  0.48522362  0.18147843  0.44030943  1  0.12011  -5.5e-05  1.021822  0.0  0.124181  -7.5e-05  1.017991  0.0  0.101603  0.116984  -0.000103  1.025049  0.0
H  H27  1  0.01477203  0.55970159  0.81852598  1  0.120086  -5.5e-05  1.02187  0.0  0.12416  -7.5e-05  1.018031  0.0  0.101569  0.116982  -0.000103  1.025074  0.0
C  C28  1  0.17370002  0.28438701  0.66466460  1  -0.057031  0.003109  3.892927  0.001  -0.050339  0.002645  3.896615  0.001  -0.079165  -0.061752  0.003609  3.890963  0.001
C  C29  1  0.32629307  0.33533123  0.71560627  1  -0.057192  0.003111  3.893304  0.001  -0.050533  0.002645  3.896952  0.001  -0.079244  -0.061955  0.00361  3.891305  0.001
C  C30  1  0.83389563  0.70887471  0.33092413  1  -0.051141  -0.001738  3.922957  0.0  -0.043123  -0.001344  3.922692  0.0  -0.079622  -0.056767  -0.001937  3.923648  0.0
C  C31  1  0.66610374  0.66907670  0.29112710  1  -0.051302  -0.001738  3.92303  0.0  -0.043287  -0.001344  3.922763  0.0  -0.079673  -0.056882  -0.001937  3.923684  0.0
C  C32  1  0.33460697  0.98393269  0.65420271  1  0.055839  0.002642  3.962961  0.003  0.075137  0.001851  3.970675  0.002  0.062168  0.042654  0.00438  3.958361  0.004
C  C33  1  0.16539294  0.34580090  0.01605269  1  0.055839  0.00264  3.962916  0.003  0.075152  0.001844  3.970605  0.002  0.062256  0.042647  0.004378  3.958333  0.004
C  C34  1  0.66893159  0.00700975  0.33069655  1  0.056511  0.011847  3.930167  0.009  0.079928  0.013919  3.932246  0.011  0.063827  0.039562  0.011462  3.930813  0.009
C  C35  1  0.83106389  0.66931249  0.99299158  1  0.056694  0.011847  3.930016  0.009  0.080111  0.013915  3.932089  0.011  0.063923  0.039741  0.011462  3.930669  0.009
C  C36  1  0.38420400  0.86837198  0.71905440  1  -0.044809  0.001514  4.033069  0.002  -0.05868  0.000852  4.060033  0.001  -0.024267  -0.035752  0.002644  4.015299  0.002
C  C37  1  0.11579912  0.28094740  0.13161879  1  -0.044745  0.001516  4.033017  0.002  -0.058619  0.000851  4.059971  0.001  -0.024239  -0.035691  0.002644  4.015267  0.002
C  C38  1  0.61179470  0.12365371  0.27278477  1  -0.042836  0.000761  4.050657  0.0  -0.057502  -0.00064  4.075683  -0.001  -0.022281  -0.033434  0.001763  4.035215  0.001
C  C39  1  0.88820387  0.72722648  0.87634310  1  -0.042879  0.000762  4.050967  0.0  -0.057528  -0.000638  4.075936  -0.001  -0.022258  -0.033473  0.001763  4.035532  0.001
C  C40  1  0.33611498  0.83752468  0.84506104  1  0.274649  0.002061  4.089172  0.002  0.294052  0.001106  4.103215  0.002  0.100242  0.261384  0.0034  4.079694  0.003
C  C41  1  0.16389116  0.15494389  0.16246033  1  0.274598  0.002056  4.08928  0.002  0.293988  0.001107  4.103328  0.002  0.100197  0.261333  0.003397  4.0798  0.003
C  C42  1  0.65890686  0.15681949  0.14785659  1  0.275921  0.001243  4.070236  0.002  0.296443  0.001298  4.082703  0.001  0.105274  0.261877  0.001828  4.062013  0.002
C  C43  1  0.84108813  0.85215446  0.84318576  1  0.275766  0.001242  4.07047  0.002  0.296302  0.001297  4.082925  0.001  0.105275  0.261713  0.001828  4.062249  0.002
C  C44  1  0.37917491  0.71530912  0.89177543  1  0.047791  0.003239  3.988133  0.003  0.044382  0.002519  4.007457  0.002  0.004979  0.04968  0.003724  3.975345  0.003
C  C45  1  0.12083166  0.10822607  0.28467627  1  0.04798  0.003241  3.988301  0.003  0.044575  0.002516  4.007643  0.002  0.005098  0.049867  0.003725  3.97551  0.003
C  C46  1  0.62147734  0.28009216  0.10380399  1  0.046263  -0.000128  3.990301  0.0  0.042986  -0.000468  4.00899  0.0  0.006633  0.048076  -6e-05  3.977976  0.0
C  C47  1  0.87852497  0.89621123  0.71990901  1  0.046416  -0.000129  3.990217  0.0  0.043115  -0.000468  4.008929  0.0  0.006653  0.048237  -5.9e-05  3.977881  0.0
C  C48  1  0.47250259  0.63166535  0.82376057  1  -0.196069  0.001074  4.027105  0.001  -0.193579  0.000576  4.045232  0.0  -0.10251  -0.197211  0.001593  4.014988  0.001
C  C49  1  0.02750560  0.17624171  0.36832014  1  -0.196278  0.001072  4.027508  0.001  -0.193771  0.000575  4.045564  0.0  -0.102542  -0.197418  0.00159  4.015381  0.001
C  C50  1  0.53309567  0.36327628  0.17486988  1  -0.19516  0.002896  4.017023  0.002  -0.191589  0.003385  4.033537  0.002  -0.100374  -0.197233  0.002761  4.005841  0.002
C  C51  1  0.96690154  0.82514109  0.63672538  1  -0.195498  0.002894  4.017099  0.002  -0.191917  0.003383  4.033626  0.002  -0.100511  -0.197564  0.00276  4.005899  0.002
C  C52  1  0.52469593  0.66719328  0.70272999  1  0.13264  0.001671  4.109229  0.001  0.130979  0.001235  4.132526  0.001  -0.005966  0.133449  0.002575  4.093297  0.002
C  C53  1  0.97531782  0.29726879  0.33279868  1  0.132882  0.001672  4.109294  0.001  0.131235  0.001235  4.132586  0.001  -0.005868  0.133691  0.002576  4.09337  0.002
C  C54  1  0.48109050  0.32568076  0.29548790  1  0.134481  0.002082  4.100553  0.002  0.132738  0.001059  4.122971  0.001  -0.004666  0.13513  0.00286  4.085634  0.002
C  C55  1  0.01890868  0.70452561  0.67432319  1  0.134577  0.002084  4.100456  0.002  0.132812  0.001059  4.122904  0.001  -0.004658  0.135225  0.00286  4.08554  0.002
C  C56  1  0.47895159  0.78261720  0.65009467  1  -0.190827  0.000564  4.019436  0.0  -0.18798  0.000272  4.039538  0.0  -0.098847  -0.192326  0.000962  4.005602  0.0
C  C57  1  0.02105357  0.34990744  0.21737101  1  -0.190918  0.000562  4.019428  0.0  -0.188081  0.000272  4.039538  0.0  -0.098919  -0.192402  0.000961  4.005561  0.0
C  C58  1  0.52212245  0.20830837  0.34524617  1  -0.18509  0.002062  3.999167  0.001  -0.181013  0.002706  4.017787  0.002  -0.095654  -0.188002  0.001715  3.987114  0.001
C  C59  1  0.97786775  0.65476668  0.79169242  1  -0.185052  0.002059  3.999518  0.001  -0.180989  0.002705  4.018176  0.002  -0.095624  -0.187976  0.001714  3.987441  0.001
N  N60  1  0.26259682  0.07867659  0.70108192  1  -0.121541  0.018805  3.3447  0.007  -0.140132  0.014713  3.357089  0.004  -0.219628  -0.110141  0.022824  3.337122  0.01
N  N61  1  0.23740090  0.29892135  0.92131467  1  -0.121675  0.018829  3.345032  0.007  -0.140263  0.014745  3.357398  0.004  -0.219664  -0.110277  0.022849  3.337467  0.01
N  N62  1  0.73995760  0.91439637  0.27824664  1  -0.085769  -0.0321  3.414658  -0.028  -0.102383  -0.035058  3.418302  -0.03  -0.247891  -0.078086  -0.030115  3.414306  -0.026
N  N63  1  0.76003397  0.72175798  0.08560806  1  -0.085848  -0.032098  3.41469  -0.028  -0.102479  -0.03505  3.418349  -0.03  -0.247932  -0.07816  -0.030112  3.414341  -0.026
Cl  Cl64  1  0.30699291  0.66811980  0.03997555  1  -0.049175  0.001384  1.637958  0.001  -0.050494  0.000829  1.630188  0.001  0.051523  -0.048264  0.002033  1.643748  0.001
Cl  Cl65  1  0.19301360  0.96002672  0.33186735  1  -0.049233  0.001385  1.638079  0.001  -0.050555  0.000829  1.630306  0.001  0.051467  -0.048325  0.002034  1.643864  0.001
Cl  Cl66  1  0.69072901  0.32968957  0.95553000  1  -0.044179  -0.000501  1.624039  0.0  -0.04547  -0.000819  1.616518  0.0  0.052322  -0.043202  -1.9e-05  1.629481  0.0
Cl  Cl67  1  0.80927433  0.04448204  0.67031064  1  -0.044183  -0.000501  1.624133  0.0  -0.045476  -0.000818  1.616623  0.0  0.052311  -0.043214  -1.9e-05  1.62957  0.0
Cl  Cl68  1  0.64363950  0.56253650  0.61840525  1  -0.078399  0.000296  1.666943  0.0  -0.082738  0.000166  1.662997  0.0  -0.001131  -0.0753  0.000471  1.669776  0.0
Cl  Cl69  1  0.85636761  0.38159516  0.43745433  1  -0.078508  0.000296  1.667028  0.0  -0.082854  0.000166  1.663077  0.0  -0.00118  -0.075408  0.000471  1.669847  0.0
Cl  Cl70  1  0.36732453  0.43010797  0.38275767  1  -0.072336  0.000337  1.637848  0.0  -0.076044  0.000155  1.633646  0.0  0.001579  -0.069912  0.000527  1.641194  0.0
Cl  Cl71  1  0.13266854  0.61724960  0.56989408  1  -0.072378  0.000337  1.637763  0.0  -0.076077  0.000155  1.633569  0.0  0.001556  -0.069956  0.000527  1.64111  0.0
O  O72  1  0.22842387  0.17492701  0.61073414  1  -0.119057  0.001783  2.446345  0.003  -0.136034  0.000953  2.454552  0.002  -0.102171  -0.106046  0.002596  2.44065  0.004
O  O73  1  0.27157303  0.38926835  0.82506338  1  -0.119037  0.001786  2.446472  0.003  -0.135999  0.000955  2.454703  0.002  -0.102207  -0.106028  0.002598  2.440802  0.004
O  O74  1  0.80901551  0.82742613  0.36909406  1  -0.133255  -0.012748  2.437378  -0.01  -0.149187  -0.010745  2.441821  -0.008  -0.10949  -0.12138  -0.013914  2.434402  -0.011
O  O75  1  0.69097913  0.63091027  0.17257554  1  -0.133272  -0.012743  2.437366  -0.01  -0.149194  -0.010744  2.441808  -0.008  -0.109484  -0.121412  -0.013912  2.434386  -0.011
O  O76  1  0.25267928  0.91413800  0.91413537  1  -0.583425  0.036423  2.439788  0.028  -0.61577  0.030983  2.432161  0.023  -0.344408  -0.560862  0.041508  2.444925  0.032
O  O77  1  0.24732455  0.08586621  0.08584585  1  -0.583579  0.036415  2.44002  0.028  -0.615896  0.030975  2.432375  0.023  -0.344465  -0.561006  0.041501  2.445142  0.032
O  O78  1  0.73623271  0.07919028  0.07686614  1  -0.550392  -0.009016  2.517298  -0.012  -0.583891  -0.008815  2.511021  -0.011  -0.359465  -0.52761  -0.00739  2.520419  -0.011
O  O79  1  0.76376571  0.92314335  0.92081365  1  -0.550342  -0.009018  2.517562  -0.012  -0.583791  -0.008818  2.511187  -0.011  -0.359476  -0.527561  -0.007392  2.520692  -0.011
O  O80  1  0.00579270  0.12205415  0.90497967  1  -0.948662  0.026766  2.087814  0.016  -0.991073  0.004187  2.061113  -0.004  -0.635036  -0.917116  0.04572  2.104902  0.033
O  O81  1  0.49420697  0.09501903  0.87794362  1  -0.948713  0.026764  2.087793  0.016  -0.991102  0.004185  2.061063  -0.004  -0.635033  -0.91717  0.045718  2.104886  0.033
O  O82  1  0.99539914  0.88706260  0.09606470  1  -0.927496  0.061109  2.101873  0.052  -0.974738  0.042967  2.080395  0.035  -0.636226  -0.892054  0.077716  2.113801  0.067
O  O83  1  0.50459728  0.90393893  0.11293941  1  -0.927576  0.06111  2.10196  0.052  -0.974829  0.042968  2.080485  0.035  -0.636231  -0.892079  0.077719  2.113684  0.067
