# generated using pymatgen
data_Zn3H12C36(SO15)2
_symmetry_space_group_name_H-M   'P 1'
_cell_length_a   19.10694978
_cell_length_b   19.10694060
_cell_length_c   19.16146595
_cell_angle_alpha   111.29109867
_cell_angle_beta   111.29107697
_cell_angle_gamma   104.81808582
_symmetry_Int_Tables_number   1
_chemical_formula_structural   Zn3H12C36(SO15)2
_chemical_formula_sum   'Zn6 H24 C72 S4 O60'
_cell_volume   5434.19623225
_cell_formula_units_Z   2
loop_
 _symmetry_equiv_pos_site_id
 _symmetry_equiv_pos_as_xyz
  1  'x, y, z'
loop_
 _atom_site_type_symbol
 _atom_site_label
 _atom_site_symmetry_multiplicity
 _atom_site_fract_x
 _atom_site_fract_y
 _atom_site_fract_z
 _atom_site_occupancy
 _atom_site_pbe_bader_charge
 _atom_site_pbe_bader_spin_density
 _atom_site_pbe_cm5_charge
 _atom_site_pbe_ddec_charge
 _atom_site_pbe_ddec_spin_density
 _atom_site_pbe_ddec_sum_bond_order
 _atom_site_pbe_magmom
Zn  Zn0  1  0.00851948  0.43418929  0.94121121  1  1.330199  0  0.750251  0.985912  0  2.115804  0
Zn  Zn1  1  0.56962206  0.54658685  0.50367871  1  1.323453  0  0.745159  0.992678  0  2.020705  0
Zn  Zn2  1  0.45341484  0.43037961  0.49632346  1  1.322078  0  0.745189  0.992699  0  2.020679  0
Zn  Zn3  1  0.00861392  0.55990507  0.07179042  1  1.308452  0  0.734034  0.964171  0  2.064727  0
Zn  Zn4  1  0.56580761  0.99148465  0.05879068  1  1.330151  0  0.75026  0.985897  0  2.115851  0
Zn  Zn5  1  0.44009131  0.99138738  0.92820766  1  1.308548  0  0.734038  0.964216  0  2.064711  0
H  H6  1  0.97190807  0.63625667  0.90971841  1  0.100912  0  0.107816  0.115219  0  1.004129  0
H  H7  1  0.99978937  0.31278350  0.20030485  1  0.097664  0  0.118719  0.122936  0  0.971733  0
H  H8  1  0.30494954  0.98524930  0.17256328  1  0.096577  0  0.114142  0.117303  0  0.977615  0
H  H9  1  0.68721630  0.00021123  0.79969462  1  0.097657  0  0.118696  0.122893  0  0.971772  0
H  H10  1  0.01475140  0.69505316  0.82743845  1  0.096529  0  0.114125  0.117251  0  0.977632  0
H  H11  1  0.73308592  0.42679893  0.96485564  1  0.611082  0  0.350411  0.388292  0  0.836663  0
H  H12  1  0.28263087  0.69316075  0.16707442  1  0.627628  0  0.356452  0.393172  0  0.830025  0
H  H13  1  0.57320571  0.26691333  0.03514513  1  0.611082  0  0.350354  0.388206  0  0.83668  0
H  H14  1  0.04305861  0.43102469  0.17597469  1  0.084629  0  0.11007  0.117515  0  1.005762  0
H  H15  1  0.30683701  0.71736826  0.83292388  1  0.627664  0  0.356428  0.393109  0  0.830074  0
H  H16  1  0.93737226  0.59624824  0.56065050  1  0.619621  0  0.359566  0.398442  0  0.821882  0
H  H17  1  0.04427838  0.17800190  0.29090044  1  0.624497  0  0.355055  0.392974  0  0.834937  0
H  H18  1  0.40375912  0.06262778  0.43934997  1  0.619825  0  0.35952  0.397298  0  0.822061  0
H  H19  1  0.82200008  0.95572181  0.70910183  1  0.624476  0  0.355026  0.392935  0  0.834932  0
H  H20  1  0.36373936  0.02809377  0.09027965  1  0.100906  0  0.107817  0.115267  0  1.004119  0
H  H21  1  0.77770059  0.63007233  0.58718799  1  0.605596  0  0.326618  0.352885  0  0.902816  0
H  H22  1  0.27784058  0.22316386  0.28967130  1  0.624953  0  0.339598  0.376351  0  0.866862  0
H  H23  1  0.36993153  0.22229917  0.41281322  1  0.605356  0  0.326607  0.352941  0  0.902579  0
H  H24  1  0.77683275  0.72215732  0.71032871  1  0.624972  0  0.339626  0.378511  0  0.863336  0
H  H25  1  0.56897515  0.95694242  0.82402452  1  0.084592  0  0.11006  0.11749  0  1.005795  0
H  H26  1  0.50080132  0.45019205  0.70420703  1  0.67209  0  0.319268  0.392845  0  0.936797  0
H  H27  1  0.47314345  0.68501875  0.33498961  1  0.659674  0  0.331027  0.401061  0  0.886058  0
H  H28  1  0.54980809  0.49920187  0.29579669  1  0.672101  0  0.31928  0.392878  0  0.936763  0
H  H29  1  0.31498064  0.52685707  0.66500872  1  0.659653  0  0.33101  0.401017  0  0.8861  0
C  C30  1  0.88992750  0.52172863  0.92087277  1  1.564911  0  0.229658  0.612528  0  4.151016  0
C  C31  1  0.17347388  0.45282156  0.22645189  1  0.077219  0  0.007794  0.057577  0  3.955987  0
C  C32  1  0.68851009  0.87872892  0.75677901  1  -0.059315  0  0.010055  -0.008099  0  3.896925  0
C  C33  1  0.89209390  0.61739005  0.71046143  1  -0.036388  0  -0.011181  -0.056788  0  3.988354  0
C  C34  1  0.12127162  0.31148994  0.24322217  1  -0.058924  0  0.010106  -0.00806  0  3.896911  0
C  C35  1  0.38261203  0.10790806  0.28953991  1  -0.036457  0  -0.011169  -0.056922  0  3.988558  0
C  C36  1  0.80819585  0.56236113  0.67233353  1  0.033229  0  -0.0062  -0.119638  0  3.939704  0
C  C37  1  0.20437175  0.35119788  0.26573477  1  0.08555  0  0.005063  -0.079508  0  3.869887  0
C  C38  1  0.43764161  0.19180578  0.32766794  1  0.033307  0  -0.006231  -0.119721  0  3.939763  0
C  C39  1  0.64880226  0.79562903  0.73426757  1  0.085563  0  0.00509  -0.0796  0  3.869771  0
C  C40  1  0.44204229  0.15821476  0.19440462  1  0.069664  0  0.009975  0.071113  0  3.96595  0
C  C41  1  0.77909195  0.53596295  0.72222908  1  0.054096  0  0.021873  0.06997  0  3.87149  0
C  C42  1  0.23418645  0.42847777  0.26648910  1  0.026103  0  0.023222  0.068199  0  3.880761  0
C  C43  1  0.46403579  0.22090920  0.27777024  1  0.053911  0  0.021931  0.069936  0  3.87148  0
C  C44  1  0.57152130  0.76581498  0.73351205  1  0.026132  0  0.023241  0.068282  0  3.880667  0
C  C45  1  0.54717810  0.82652805  0.77355019  1  0.076891  0  0.007771  0.057534  0  3.955925  0
C  C46  1  0.72462182  0.41211979  0.85876851  1  1.557403  0  0.227663  0.580617  0  4.155558  0
C  C47  1  0.31284245  0.63734202  0.22814117  1  1.566036  0  0.242786  0.599679  0  4.119844  0
C  C48  1  0.58787971  0.27537966  0.14123277  1  1.557363  0  0.227733  0.580713  0  4.155573  0
C  C49  1  0.36265712  0.68715757  0.77185846  1  1.566203  0  0.242835  0.599817  0  4.119632  0
C  C50  1  0.92503890  0.64312872  0.65904428  1  1.527236  0  0.227669  0.56422  0  4.179237  0
C  C51  1  0.84178870  0.55795347  0.80559289  1  0.069672  0  0.010039  0.071187  0  3.966026  0
C  C52  1  0.08473557  0.22747878  0.23536808  1  1.569899  0  0.234846  0.582398  0  4.143095  0
C  C53  1  0.35687664  0.07496261  0.34095809  1  1.527345  0  0.227654  0.564372  0  4.179232  0
C  C54  1  0.77252242  0.91526523  0.76463518  1  1.569992  0  0.234777  0.582326  0  4.143151  0
C  C55  1  0.75466880  0.52010219  0.57532056  1  1.509677  0  0.224604  0.565184  0  4.132327  0
C  C56  1  0.25582800  0.30386472  0.26542441  1  1.521169  0  0.230657  0.585927  0  4.124475  0
C  C57  1  0.47990389  0.24533466  0.42468226  1  1.509774  0  0.224708  0.565282  0  4.132755  0
C  C58  1  0.69613323  0.74417189  0.73457734  1  1.521136  0  0.230588  0.585644  0  4.125438  0
C  C59  1  0.81897750  0.51710236  0.84831937  1  0.021549  0  0.009062  -0.056153  0  3.867378  0
C  C60  1  0.19839103  0.51862226  0.20889081  1  -0.031658  0  0.015498  -0.031275  0  3.83541  0
C  C61  1  0.48289190  0.18102527  0.15167682  1  0.021564  0  0.009016  -0.055707  0  3.866996  0
C  C62  1  0.12903418  0.52739496  0.14824662  1  1.596974  0  0.224163  0.610002  0  4.174727  0
C  C63  1  0.48137793  0.80161017  0.79111068  1  -0.031555  0  0.015461  -0.031286  0  3.835375  0
C  C64  1  0.73703174  0.46136213  0.81411580  1  0.011208  0  0.00871  -0.033436  0  3.895943  0
C  C65  1  0.28099938  0.55888743  0.23092714  1  0.080266  0  -0.005641  -0.07542  0  3.961512  0
C  C66  1  0.53863379  0.26297021  0.18588174  1  0.011171  0  0.008728  -0.033659  0  3.89608  0
C  C67  1  0.44111331  0.71900167  0.76907397  1  0.080283  0  -0.005638  -0.075474  0  3.961503  0
C  C68  1  0.47826335  0.11007497  0.07912092  1  1.565204  0  0.229652  0.61235  0  4.151259  0
C  C69  1  0.67179727  0.44841097  0.73683127  1  -0.078165  0  0.01619  -0.086719  0  3.765683  0
C  C70  1  0.34056429  0.53313388  0.26990779  1  -0.138976  0  0.005544  -0.108941  0  3.861455  0
C  C71  1  0.55158893  0.32820486  0.26316831  1  -0.078198  0  0.016162  -0.086677  0  3.765794  0
C  C72  1  0.46686600  0.65943579  0.73009317  1  -0.138975  0  0.005499  -0.108994  0  3.861449  0
C  C73  1  0.47260359  0.87096676  0.85175418  1  1.596836  0  0.224194  0.61005  0  4.1746  0
C  C74  1  0.69221012  0.48630292  0.69208127  1  0.020844  0  0.013386  -0.038832  0  3.817792  0
C  C75  1  0.32143221  0.47734080  0.29847532  1  0.045194  0  0.014291  -0.041356  0  3.836405  0
C  C76  1  0.51369702  0.30779146  0.30791812  1  0.020815  0  0.013381  -0.038831  0  3.817727  0
C  C77  1  0.52265808  0.67856812  0.70152536  1  0.045192  0  0.014282  -0.041399  0  3.836331  0
C  C78  1  0.51927362  0.61069418  0.62629125  1  1.59819  0  0.225203  0.602776  0  4.138516  0
C  C79  1  0.51359561  0.37335999  0.38067478  1  1.606642  0  0.225092  0.598572  0  4.141275  0
C  C80  1  0.38930785  0.48072761  0.37371037  1  1.597947  0  0.225124  0.602624  0  4.138596  0
C  C81  1  0.62664214  0.48640676  0.61932727  1  1.606144  0  0.225076  0.598515  0  4.141262  0
C  C82  1  0.90973438  0.36263172  0.98752506  1  1.662747  0  0.228337  0.659058  0  4.232309  0
C  C83  1  0.11540598  0.57953017  0.97867217  1  1.660953  0  0.2256  0.653557  0  4.247894  0
C  C84  1  0.63735924  0.09026324  0.01246910  1  1.662854  0  0.228502  0.659287  0  4.232116  0
C  C85  1  0.42046592  0.88459466  0.02132712  1  1.661009  0  0.225625  0.653617  0  4.247838  0
C  C86  1  0.85390064  0.29882103  0.99036904  1  0.151032  0  0.00302  -0.119798  0  3.840631  0
C  C87  1  0.18160062  0.64000440  0.98236701  1  0.124597  0  0.000807  -0.121193  0  3.844847  0
C  C88  1  0.70116801  0.14609128  0.00961975  1  0.152512  0  0.003199  -0.119716  0  3.840315  0
C  C89  1  0.35999826  0.81840260  0.01762828  1  0.124162  0  0.000686  -0.121404  0  3.844718  0
C  C90  1  0.80575602  0.24843438  0.99660558  1  -0.198429  0  0.003589  0.038237  0  4.208618  0
C  C91  1  0.23993404  0.69688170  0.99386186  1  -0.175682  0  -0.006258  0.0235  0  4.230826  0
C  C92  1  0.75155568  0.19423560  0.00337773  1  -0.263877  0  0.003406  0.038244  0  4.208249  0
C  C93  1  0.30311426  0.76006143  0.00612925  1  -0.254727  0  -0.00605  0.023764  0  4.23027  0
C  C94  1  0.92626780  0.61674868  0.84372540  1  -0.078987  0  -0.07989  -0.109964  0  3.954804  0
C  C95  1  0.08882244  0.41041386  0.20350819  1  -0.035258  0  -0.074724  -0.103439  0  3.94556  0
C  C96  1  0.38324967  0.07373490  0.15627330  1  -0.079059  0  -0.07986  -0.110065  0  3.954911  0
C  C97  1  0.58958539  0.91117850  0.79649182  1  -0.035245  0  -0.0747  -0.103419  0  3.945668  0
C  C98  1  0.95046624  0.64900433  0.79844077  1  -0.014622  0  -0.078787  -0.08728  0  3.993815  0
C  C99  1  0.06438613  0.34418099  0.21635916  1  -0.014328  0  -0.070217  -0.090213  0  3.957406  0
C  C100  1  0.35099602  0.04953518  0.20156028  1  -0.014497  0  -0.078804  -0.087373  0  3.993882  0
C  C101  1  0.65581798  0.93561404  0.78364151  1  -0.013899  0  -0.070157  -0.09012  0  3.957526  0
S  S102  1  0.56822674  0.37452352  0.70749672  1  3.1438  0  0.54513  1.157264  0  5.986444  0
S  S103  1  0.42888715  0.55802069  0.25277815  1  3.12922  0  0.560278  1.171403  0  5.96415  0
S  S104  1  0.62547795  0.43177701  0.29250611  1  3.143564  0  0.544988  1.156964  0  5.986729  0
S  S105  1  0.44197763  0.57111244  0.74722050  1  3.129263  0  0.560322  1.171564  0  5.964057  0
O  O106  1  0.91684028  0.46928227  0.89472230  1  -1.15944  0  -0.299226  -0.558737  0  2.336288  0
O  O107  1  0.10037474  0.47567745  0.06946969  1  -1.155587  0  -0.295451  -0.557006  0  2.33034  0
O  O108  1  0.46047831  0.49690281  0.24920467  1  -1.305229  0  -0.283205  -0.497869  0  2.26957  0
O  O109  1  0.39750872  0.56539036  0.17651588  1  -1.268309  0  -0.296644  -0.510094  0  2.124318  0
O  O110  1  0.49971104  0.64603453  0.33530704  1  -1.212134  0  -0.345791  -0.505493  0  2.146246  0
O  O111  1  0.70643092  0.44964686  0.35562083  1  -1.267158  0  -0.296887  -0.485897  0  2.131311  0
O  O112  1  0.60931092  0.42360004  0.20947948  1  -1.27716  0  -0.315007  -0.539974  0  2.159125  0
O  O113  1  0.60333477  0.50287715  0.33715921  1  -1.252077  0  -0.354017  -0.520031  0  2.292647  0
O  O114  1  0.50309533  0.53952210  0.75079524  1  -1.305217  0  -0.283235  -0.49789  0  2.269661  0
O  O115  1  0.43460396  0.60248724  0.82348001  1  -1.268311  0  -0.296604  -0.510146  0  2.124275  0
O  O116  1  0.35396470  0.50029005  0.66468934  1  -1.21216  0  -0.345819  -0.505495  0  2.146252  0
O  O117  1  0.55035623  0.29356930  0.64438078  1  -1.267115  0  -0.296944  -0.486004  0  2.131165  0
O  O118  1  0.42400302  0.08067624  0.99967045  1  -1.111817  0  -0.298769  -0.500808  0  2.238274  0
O  O119  1  0.57640370  0.39068993  0.79052207  1  -1.277168  0  -0.315071  -0.540094  0  2.159183  0
O  O120  1  0.49712614  0.39666633  0.66284280  1  -1.252402  0  -0.354016  -0.520054  0  2.29271  0
O  O121  1  0.52432124  0.89962709  0.93053201  1  -1.155332  0  -0.295449  -0.557012  0  2.330239  0
O  O122  1  0.91932190  0.57598597  0.00032424  1  -1.111692  0  -0.298803  -0.500843  0  2.238266  0
O  O123  1  0.93521096  0.33765598  0.93358937  1  -1.090717  0  -0.299994  -0.500136  0  2.195989  0
O  O124  1  0.08860421  0.60932483  0.02854259  1  -1.138444  0  -0.299612  -0.561271  0  2.262942  0
O  O125  1  0.66233926  0.06479350  0.06641141  1  -1.090952  0  -0.300019  -0.500174  0  2.195898  0
O  O126  1  0.10137319  0.57947712  0.17621823  1  -1.121679  0  -0.306993  -0.512855  0  2.212009  0
O  O127  1  0.39067450  0.91139713  0.97145761  1  -1.137871  0  -0.299635  -0.561291  0  2.262872  0
O  O128  1  0.92968544  0.43821833  0.03937463  1  -1.15391  0  -0.302865  -0.567793  0  2.25484  0
O  O129  1  0.09014531  0.50155523  0.92610612  1  -1.103789  0  -0.299568  -0.499438  0  2.192274  0
O  O130  1  0.56177397  0.07031166  0.96061983  1  -1.154104  0  -0.303014  -0.56802  0  2.254844  0
O  O131  1  0.49844189  0.90986179  0.07389693  1  -1.104128  0  -0.299549  -0.499368  0  2.192173  0
O  O132  1  0.53071448  0.08316647  0.10527258  1  -1.159569  0  -0.299246  -0.55877  0  2.336431  0
O  O133  1  0.47444526  0.53463954  0.59977530  1  -1.148658  0  -0.300351  -0.541235  0  2.364066  0
O  O134  1  0.57509045  0.44552801  0.42903334  1  -1.132389  0  -0.285651  -0.513721  0  2.47922  0
O  O135  1  0.46536175  0.52555674  0.40022685  1  -1.148713  0  -0.300305  -0.541175  0  2.364101  0
O  O136  1  0.55447445  0.42491114  0.57096907  1  -1.132274  0  -0.285635  -0.513634  0  2.479128  0
O  O137  1  0.42052110  0.89862710  0.82378066  1  -1.12174  0  -0.307038  -0.5129  0  2.211947  0
O  O138  1  0.55450200  0.63555901  0.58873080  1  -1.137269  0  -0.299304  -0.533864  0  2.306184  0
O  O139  1  0.44774773  0.35157987  0.38675802  1  -1.146942  0  -0.305788  -0.577617  0  2.43685  0
O  O140  1  0.36444225  0.44549720  0.41126980  1  -1.136927  0  -0.29931  -0.533848  0  2.306151  0
O  O141  1  0.64842249  0.55225499  0.61324529  1  -1.146512  0  -0.305794  -0.57763  0  2.436923  0
O  O142  1  0.71469462  0.33987878  0.83088997  1  -1.117111  0  -0.286358  -0.470084  0  2.062389  0
O  O143  1  0.73825118  0.46182993  0.93847951  1  -1.087368  0  -0.328828  -0.46141  0  2.227383  0
O  O144  1  0.38012956  0.69920335  0.28653932  1  -1.143968  0  -0.286251  -0.506053  0  2.109638  0
O  O145  1  0.25859108  0.63753159  0.16017977  1  -1.120103  0  -0.303675  -0.440088  0  2.312966  0
O  O146  1  0.66012020  0.28530882  0.16911443  1  -1.117078  0  -0.286363  -0.470103  0  2.062436  0
O  O147  1  0.53817227  0.26174736  0.06151856  1  -1.08736  0  -0.328836  -0.461386  0  2.22734  0
O  O148  1  0.30079443  0.61987115  0.71345694  1  -1.143991  0  -0.286237  -0.506108  0  2.109553  0
O  O149  1  0.36246752  0.74140874  0.83982187  1  -1.120301  0  -0.303677  -0.44005  0  2.312916  0
O  O150  1  0.95263892  0.71506044  0.67328154  1  -1.122696  0  -0.30101  -0.490153  0  2.035957  0
O  O151  1  0.92119594  0.57731927  0.59613789  1  -1.102516  0  -0.317309  -0.45176  0  2.214795  0
O  O152  1  0.06719449  0.16117980  0.17558937  1  -1.116506  0  -0.283889  -0.467289  0  2.040883  0
O  O153  1  0.06979007  0.23491877  0.30112456  1  -1.107451  0  -0.331644  -0.478018  0  2.187183  0
O  O154  1  0.28494601  0.04736271  0.32672388  1  -1.122944  0  -0.300961  -0.490253  0  2.036112  0
O  O155  1  0.42268648  0.07880478  0.40386224  1  -1.102552  0  -0.317319  -0.450396  0  2.214496  0
O  O156  1  0.83882071  0.93280606  0.82441354  1  -1.116624  0  -0.283805  -0.467158  0  2.040949  0
O  O157  1  0.76508308  0.93020935  0.69887791  1  -1.107401  0  -0.331651  -0.478008  0  2.187154  0
O  O158  1  0.72218929  0.44473834  0.52937174  1  -1.057524  0  -0.241013  -0.375784  0  2.098163  0
O  O159  1  0.74877750  0.57151619  0.54055979  1  -1.092526  0  -0.331884  -0.461354  0  2.267502  0
O  O160  1  0.29252715  0.30003357  0.22471845  1  -1.096334  0  -0.275729  -0.453835  0  2.071068  0
O  O161  1  0.25182572  0.25948166  0.30671797  1  -1.121551  0  -0.332276  -0.475497  0  2.240409  0
O  O162  1  0.55526205  0.27781258  0.47062635  1  -1.057774  0  -0.24097  -0.375744  0  2.098562  0
O  O163  1  0.42848791  0.25122272  0.45944115  1  -1.092208  0  -0.331975  -0.461636  0  2.267539  0
O  O164  1  0.69996320  0.70747268  0.77528284  1  -1.096394  0  -0.275718  -0.453922  0  2.071364  0
O  O165  1  0.74051681  0.74817447  0.69328406  1  -1.121433  0  -0.332273  -0.477456  0  2.237609  0
