# generated using pymatgen
data_TbCoH16C16(N5O3)2
_symmetry_space_group_name_H-M   'P 1'
_cell_length_a   10.09625910
_cell_length_b   10.58755907
_cell_length_c   12.40047112
_cell_angle_alpha   73.69638896
_cell_angle_beta   75.55624539
_cell_angle_gamma   70.98552540
_symmetry_Int_Tables_number   1
_chemical_formula_structural   TbCoH16C16(N5O3)2
_chemical_formula_sum   'Tb2 Co2 H32 C32 N20 O12'
_cell_volume   1184.45749904
_cell_formula_units_Z   2
loop_
 _symmetry_equiv_pos_site_id
 _symmetry_equiv_pos_as_xyz
  1  'x, y, z'
loop_
 _atom_site_type_symbol
 _atom_site_label
 _atom_site_symmetry_multiplicity
 _atom_site_fract_x
 _atom_site_fract_y
 _atom_site_fract_z
 _atom_site_occupancy
 _atom_site_hle17_bader_spin_density
 _atom_site_hle17_ddec_charge
 _atom_site_hle17_ddec_spin_density
 _atom_site_hle17_ddec_sum_bond_order
 _atom_site_hle17_magmom
 _atom_site_hse06_10hf_bader_spin_density
 _atom_site_hse06_10hf_ddec_charge
 _atom_site_hse06_10hf_ddec_spin_density
 _atom_site_hse06_10hf_ddec_sum_bond_order
 _atom_site_hse06_10hf_magmom
 _atom_site_hse06_bader_spin_density
 _atom_site_hse06_ddec_charge
 _atom_site_hse06_ddec_spin_density
 _atom_site_hse06_ddec_sum_bond_order
 _atom_site_hse06_magmom
 _atom_site_pbe_bader_spin_density
 _atom_site_pbe_cm5_charge
 _atom_site_pbe_ddec_charge
 _atom_site_pbe_ddec_spin_density
 _atom_site_pbe_ddec_sum_bond_order
 _atom_site_pbe_magmom
Tb  Tb0  1  0.40692975  0.31100219  0.28812641  1  0  2.273945  0  1.667459  0  0  2.126818  0  2.145591  0  0  2.239652  0  1.970941  0  0  1.543329  2.095396  0  2.175512  0
Tb  Tb1  1  0.59306733  0.68899416  0.71187743  1  0  2.273931  0  1.667445  0  0  2.126768  0  2.145594  0  0  2.239612  0  1.970929  0  0  1.543351  2.095321  0  2.175572  0
Co  Co2  1  0.33603419  0.29647060  0.73907903  1  0  0.021038  0  4.560518  0  0  0.147948  0  4.877556  0  0  0.139647  0  4.874339  0  0  0.507326  0.163492  0  4.871365  0
Co  Co3  1  0.66396555  0.70353397  0.26091902  1  0  0.021067  0  4.560569  0  0  0.147846  0  4.877901  0  0  0.139541  0  4.874691  0  0  0.50736  0.163394  0  4.871711  0
H  H4  1  0.28844979  0.75664204  0.54072892  1  0  0.128474  0  0.937835  0  0  0.134573  0  1.003739  0  0  0.138173  0  1.001787  0  0  0.120715  0.132098  0  1.00499  0
H  H5  1  0.71154300  0.24337177  0.45927467  1  0  0.128537  0  0.937781  0  0  0.134601  0  1.003722  0  0  0.1382  0  1.001768  0  0  0.120717  0.132126  0  1.004973  0
H  H6  1  0.32723869  0.90411523  0.03085090  1  0  0.142186  0  0.912248  0  0  0.151637  0  0.966842  0  0  0.15499  0  0.965506  0  0  0.12709  0.149075  0  0.967595  0
H  H7  1  0.67275985  0.09586586  0.96916610  1  0  0.142269  0  0.912084  0  0  0.151614  0  0.966801  0  0  0.154964  0  0.96547  0  0  0.127058  0.149052  0  0.967554  0
H  H8  1  0.13312575  0.51559745  0.08368187  1  0  0.129736  0  0.919565  0  0  0.13735  0  0.979729  0  0  0.140874  0  0.976222  0  0  0.139874  0.134545  0  0.982448  0
H  H9  1  0.86687055  0.48439155  0.91631506  1  0  0.129787  0  0.919555  0  0  0.137391  0  0.979706  0  0  0.140918  0  0.976195  0  0  0.139899  0.134586  0  0.982427  0
H  H10  1  0.47500793  0.65609090  0.07177249  1  0  0.131117  0  0.929788  0  0  0.137823  0  0.990045  0  0  0.140467  0  0.987931  0  0  0.139201  0.136003  0  0.991495  0
H  H11  1  0.52499208  0.34388903  0.92823402  1  0  0.13106  0  0.929833  0  0  0.13782  0  0.990072  0  0  0.140464  0  0.987956  0  0  0.13922  0.136  0  0.99152  0
H  H12  1  0.01668555  0.68169100  0.29624988  1  0  0.117372  0  0.961341  0  0  0.123815  0  1.026302  0  0  0.126136  0  1.02548  0  0  0.130218  0.122157  0  1.026849  0
H  H13  1  0.98331690  0.31831468  0.70374978  1  0  0.117419  0  0.961367  0  0  0.12383  0  1.026339  0  0  0.126166  0  1.025501  0  0  0.130182  0.122171  0  1.026882  0
H  H14  1  0.36697307  0.54657626  0.45659616  1  0  0.120936  0  0.952232  0  0  0.130398  0  1.009562  0  0  0.132021  0  1.00959  0  0  0.137666  0.129222  0  1.009604  0
H  H15  1  0.63302570  0.45343461  0.54341020  1  0  0.120894  0  0.952355  0  0  0.130518  0  1.009493  0  0  0.132141  0  1.009521  0  0  0.137676  0.129342  0  1.009536  0
H  H16  1  0.97219001  0.75778571  0.03694271  1  0  0.135482  0  0.959853  0  0  0.136847  0  1.030114  0  0  0.139842  0  1.029557  0  0  0.117424  0.134795  0  1.031229  0
H  H17  1  0.02780630  0.24220647  0.96305989  1  0  0.135392  0  0.959936  0  0  0.136825  0  1.030124  0  0  0.139819  0  1.029565  0  0  0.117422  0.134774  0  1.031235  0
H  H18  1  0.92243593  0.89740939  0.37233848  1  0  0.127705  0  0.970521  0  0  0.126785  0  1.044528  0  0  0.131186  0  1.040895  0  0  0.115172  0.123701  0  1.047043  0
H  H19  1  0.07756056  0.10259922  0.62765760  1  0  0.127691  0  0.97058  0  0  0.126769  0  1.044602  0  0  0.131169  0  1.040971  0  0  0.115163  0.123681  0  1.047115  0
H  H20  1  0.41824758  0.08463107  0.18048012  1  0  0.419926  0  0.886357  0  0  0.392607  0  0.944189  0  0  0.401797  0  0.931249  0  0  0.296467  0.386245  0  0.953282  0
H  H21  1  0.58174949  0.91537234  0.81951229  1  0  0.419788  0  0.886537  0  0  0.392481  0  0.944347  0  0  0.401672  0  0.931408  0  0  0.296411  0.386125  0  0.953431  0
H  H22  1  0.36164280  0.22593316  0.09738521  1  0  0.424788  0  0.888103  0  0  0.389501  0  0.960006  0  0  0.400879  0  0.943703  0  0  0.291801  0.381412  0  0.971772  0
H  H23  1  0.63835156  0.77407232  0.90261206  1  0  0.42479  0  0.888145  0  0  0.389477  0  0.960085  0  0  0.400858  0  0.943777  0  0  0.291761  0.381386  0  0.971854  0
H  H24  1  0.72186742  0.25729782  0.24326961  1  0  0.448731  0  0.806338  0  0  0.432121  0  0.851469  0  0  0.440102  0  0.840297  0  0  0.333711  0.426887  0  0.858978  0
H  H25  1  0.27813381  0.74270874  0.75672120  1  0  0.448853  0  0.806186  0  0  0.432222  0  0.851341  0  0  0.440203  0  0.840166  0  0  0.333749  0.426986  0  0.858851  0
H  H26  1  0.70736598  0.10733954  0.24979083  1  0  0.445923  0  0.854294  0  0  0.408669  0  0.92663  0  0  0.420534  0  0.909693  0  0  0.29517  0.400498  0  0.938273  0
H  H27  1  0.29263643  0.89266299  0.75020558  1  0  0.445922  0  0.854296  0  0  0.408657  0  0.926648  0  0  0.42052  0  0.909713  0  0  0.295163  0.400487  0  0.938289  0
H  H28  1  0.40442987  0.00614158  0.36467207  1  0  0.431223  0  0.860396  0  0  0.402751  0  0.921044  0  0  0.411684  0  0.908486  0  0  0.308687  0.396645  0  0.929716  0
H  H29  1  0.59555144  0.99386667  0.63531984  1  0  0.43118  0  0.860556  0  0  0.40275  0  0.921067  0  0  0.411684  0  0.908508  0  0  0.30867  0.396646  0  0.929735  0
H  H30  1  0.38917613  0.05648675  0.47712077  1  0  0.448713  0  0.801148  0  0  0.427679  0  0.860387  0  0  0.436406  0  0.850064  0  0  0.333167  0.421806  0  0.867235  0
H  H31  1  0.61094116  0.94346025  0.52287875  1  0  0.448718  0  0.801127  0  0  0.427735  0  0.860235  0  0  0.436456  0  0.849949  0  0  0.333227  0.421866  0  0.867082  0
H  H32  1  0.16826775  0.20567242  0.28788815  1  0  0.439412  0  0.81231  0  0  0.423691  0  0.86232  0  0  0.430878  0  0.852034  0  0  0.32929  0.418468  0  0.868667  0
H  H33  1  0.83172410  0.79433105  0.71211576  1  0  0.439359  0  0.812396  0  0  0.423644  0  0.862386  0  0  0.430829  0  0.852102  0  0  0.329308  0.418424  0  0.868745  0
H  H34  1  0.08590309  0.35464491  0.31177628  1  0  0.442753  0  0.860738  0  0  0.401556  0  0.940002  0  0  0.413948  0  0.92207  0  0  0.289576  0.3929  0  0.952611  0
H  H35  1  0.91409285  0.64536566  0.68821378  1  0  0.442504  0  0.861024  0  0  0.401415  0  0.940086  0  0  0.413809  0  0.922155  0  0  0.289554  0.392774  0  0.952674  0
C  C36  1  0.37937047  0.29833517  0.58428101  1  0  0.169152  0  3.51897  0  0  0.125366  0  3.82861  0  0  0.138397  0  3.840758  0  0  0.059662  0.115006  0  3.821945  0
C  C37  1  0.62063721  0.70166337  0.41571777  1  0  0.169096  0  3.518734  0  0  0.125317  0  3.828457  0  0  0.13835  0  3.840605  0  0  0.059623  0.114958  0  3.821789  0
C  C38  1  0.58610303  0.56206165  0.27514825  1  0  0.155938  0  3.526371  0  0  0.111261  0  3.840763  0  0  0.123236  0  3.852767  0  0  0.052318  0.101589  0  3.834486  0
C  C39  1  0.41389565  0.43793975  0.72484676  1  0  0.155822  0  3.526481  0  0  0.111111  0  3.840871  0  0  0.123092  0  3.852872  0  0  0.052186  0.101438  0  3.834591  0
C  C40  1  0.28990393  0.28590712  0.89608949  1  0  0.101642  0  3.528423  0  0  0.055353  0  3.840727  0  0  0.062781  0  3.853454  0  0  0.034626  0.047989  0  3.830999  0
C  C41  1  0.71008940  0.71409836  0.10390880  1  0  0.101589  0  3.52857  0  0  0.055316  0  3.840885  0  0  0.062744  0  3.85362  0  0  0.034517  0.047953  0  3.831156  0
C  C42  1  0.36342172  0.68702555  0.06471445  1  0  0.038496  0  3.546909  0  0  -0.005248  0  3.812408  0  0  0.003746  0  3.82214  0  0  0.057377  -0.010295  0  3.804294  0
C  C43  1  0.63657572  0.31295947  0.93529050  1  0  0.038605  0  3.547108  0  0  -0.005291  0  3.812721  0  0  0.003706  0  3.822445  0  0  0.0574  -0.010335  0  3.804604  0
C  C44  1  0.51037339  0.16552070  0.75084885  1  0  0.116611  0  3.513769  0  0  0.072514  0  3.817731  0  0  0.081288  0  3.829637  0  0  0.045301  0.064494  0  3.809032  0
C  C45  1  0.48962086  0.83448173  0.24915082  1  0  0.116678  0  3.513668  0  0  0.072601  0  3.817646  0  0  0.081373  0  3.829551  0  0  0.045344  0.064582  0  3.808943  0
C  C46  1  0.27087400  0.62811571  0.44243962  1  0  0.023219  0  3.566555  0  0  -0.020174  0  3.826603  0  0  -0.014607  0  3.84142  0  0  0.051564  -0.023258  0  3.815984  0
C  C47  1  0.72912192  0.37190127  0.55756499  1  0  0.023244  0  3.566406  0  0  -0.020286  0  3.82645  0  0  -0.01472  0  3.841269  0  0  0.051525  -0.023371  0  3.815836  0
C  C48  1  0.26166987  0.15007173  0.75705074  1  0  0.111567  0  3.499518  0  0  0.066021  0  3.806226  0  0  0.074504  0  3.819779  0  0  0.043401  0.058503  0  3.795752  0
C  C49  1  0.73833516  0.84992883  0.24294887  1  0  0.111592  0  3.499852  0  0  0.066072  0  3.806597  0  0  0.074553  0  3.82015  0  0  0.043413  0.058556  0  3.796123  0
C  C50  1  0.16489467  0.43196872  0.72024394  1  0  0.090278  0  3.541963  0  0  0.043839  0  3.855973  0  0  0.050994  0  3.868777  0  0  0.032353  0.03689  0  3.846485  0
C  C51  1  0.83510456  0.56804095  0.27975053  1  0  0.09031  0  3.541998  0  0  0.043887  0  3.856013  0  0  0.051044  0  3.868813  0  0  0.03237  0.03693  0  3.84653  0
C  C52  1  0.22501279  0.74344584  0.48748255  1  0  -0.121279  0  3.681072  0  0  -0.14556  0  3.942656  0  0  -0.150537  0  3.961546  0  0  -0.059431  -0.142692  0  3.929354  0
C  C53  1  0.77498035  0.25656691  0.51251882  1  0  -0.121448  0  3.681046  0  0  -0.145709  0  3.942672  0  0  -0.150683  0  3.961565  0  0  -0.059489  -0.142836  0  3.929371  0
C  C54  1  0.13822514  0.84965243  0.03195226  1  0  0.186853  0  3.793633  0  0  0.182472  0  4.054374  0  0  0.186498  0  4.075504  0  0  0.105683  0.180617  0  4.039212  0
C  C55  1  0.86177357  0.15033165  0.96805751  1  0  0.18671  0  3.794039  0  0  0.182404  0  4.054656  0  0  0.186434  0  4.075786  0  0  0.105535  0.180551  0  4.039494  0
C  C56  1  0.09861245  0.84279559  0.46379533  1  0  0.185254  0  3.817181  0  0  0.180795  0  4.076657  0  0  0.183482  0  4.097312  0  0  0.099133  0.179308  0  4.062586  0
C  C57  1  0.90137999  0.15721610  0.53620563  1  0  0.185451  0  3.81741  0  0  0.181005  0  4.076852  0  0  0.183687  0  4.097512  0  0  0.099286  0.179514  0  4.062781  0
C  C58  1  0.16736796  0.60710380  0.06958648  1  0  0.025201  0  3.575708  0  0  -0.016368  0  3.834741  0  0  -0.009698  0  3.846692  0  0  0.052098  -0.019602  0  3.827981  0
C  C59  1  0.83263124  0.39288224  0.93041545  1  0  0.025139  0  3.57575  0  0  -0.016369  0  3.834716  0  0  -0.009709  0  3.846672  0  0  0.052119  -0.019602  0  3.827955  0
C  C60  1  0.28091480  0.82097865  0.04170782  1  0  -0.123038  0  3.671184  0  0  -0.148243  0  3.931997  0  0  -0.153608  0  3.949285  0  0  -0.056345  -0.141521  0  3.916824  0
C  C61  1  0.71908054  0.17900642  0.95830318  1  0  -0.123027  0  3.670989  0  0  -0.148126  0  3.9318  0  0  -0.153493  0  3.949084  0  0  -0.05623  -0.141411  0  3.916631  0
C  C62  1  0.08248969  0.73940327  0.04437507  1  0  -0.154266  0  3.696539  0  0  -0.169742  0  3.943982  0  0  -0.176439  0  3.965253  0  0  -0.069741  -0.16906  0  3.932941  0
C  C63  1  0.91750946  0.26058283  0.95563089  1  0  -0.154179  0  3.696875  0  0  -0.169754  0  3.944262  0  0  -0.176449  0  3.965533  0  0  -0.069743  -0.169069  0  3.933217  0
C  C64  1  0.06963734  0.70713662  0.35013577  1  0  0.02564  0  3.573924  0  0  -0.013402  0  3.823179  0  0  -0.007909  0  3.836852  0  0  0.047782  -0.016803  0  3.813429  0
C  C65  1  0.93036555  0.29287425  0.64986574  1  0  0.025488  0  3.573758  0  0  -0.013501  0  3.823013  0  0  -0.00802  0  3.836674  0  0  0.047884  -0.016899  0  3.813258  0
C  C66  1  0.02060213  0.82251210  0.39366671  1  0  -0.125671  0  3.696541  0  0  -0.142947  0  3.943533  0  0  -0.14744  0  3.961806  0  0  -0.062785  -0.140028  0  3.93126  0
C  C67  1  0.97940101  0.17749145  0.60632769  1  0  -0.125644  0  3.696325  0  0  -0.14297  0  3.943358  0  0  -0.147461  0  3.961633  0  0  -0.062871  -0.140045  0  3.931079  0
N  N68  1  0.30550994  0.58221099  0.08101228  1  0  0.297741  0  3.692636  0  0  0.349526  0  3.957776  0  0  0.350699  0  3.97993  0  0  -0.10279  0.346165  0  3.945155  0
N  N69  1  0.69448621  0.41777500  0.91899026  1  0  0.297733  0  3.692592  0  0  0.349532  0  3.957751  0  0  0.350708  0  3.979909  0  0  -0.102839  0.346172  0  3.945129  0
N  N70  1  0.19364037  0.61119884  0.37440118  1  0  0.320809  0  3.673447  0  0  0.376246  0  3.929312  0  0  0.378492  0  3.951768  0  0  -0.089893  0.374453  0  3.915083  0
N  N71  1  0.80636509  0.38880693  0.62560108  1  0  0.321021  0  3.673319  0  0  0.376413  0  3.929204  0  0  0.378658  0  3.951659  0  0  -0.089811  0.374615  0  3.91498  0
N  N72  1  0.40712408  0.29132511  0.48818306  1  0  -0.581672  0  2.95414  0  0  -0.529225  0  3.250793  0  0  -0.553976  0  3.254308  0  0  -0.464022  -0.5192  0  3.246042  0
N  N73  1  0.59289568  0.70867060  0.51181806  1  0  -0.581587  0  2.953918  0  0  -0.529155  0  3.250613  0  0  -0.553908  0  3.25413  0  0  -0.463964  -0.519127  0  3.245863  0
N  N74  1  0.53984087  0.47201046  0.28016235  1  0  -0.577535  0  2.982486  0  0  -0.529348  0  3.28416  0  0  -0.551974  0  3.288584  0  0  -0.453424  -0.519847  0  3.279791  0
N  N75  1  0.46015729  0.52799607  0.71983069  1  0  -0.577386  0  2.982471  0  0  -0.529198  0  3.284167  0  0  -0.551836  0  3.288607  0  0  -0.453287  -0.519692  0  3.279798  0
N  N76  1  0.05865043  0.95741611  0.51156764  1  0  -0.149028  0  2.979751  0  0  -0.128186  0  3.262599  0  0  -0.123185  0  3.262453  0  0  -0.149505  -0.1313  0  3.26207  0
N  N77  1  0.94134025  0.04259457  0.48843633  1  0  -0.149256  0  2.979948  0  0  -0.128411  0  3.262798  0  0  -0.123408  0  3.262651  0  0  -0.149541  -0.131529  0  3.262273  0
N  N78  1  0.06199800  0.52237015  0.70702712  1  0  -0.436766  0  2.858544  0  0  -0.383406  0  3.116592  0  0  -0.396655  0  3.126564  0  0  -0.349121  -0.373221  0  3.109678  0
N  N79  1  0.93800257  0.47763851  0.29296733  1  0  -0.436856  0  2.858487  0  0  -0.383434  0  3.116572  0  0  -0.396681  0  3.126539  0  0  -0.34912  -0.373236  0  3.109665  0
N  N80  1  0.61753813  0.07717720  0.75035276  1  0  -0.483306  0  2.806742  0  0  -0.430154  0  3.05086  0  0  -0.444042  0  3.061076  0  0  -0.371654  -0.420011  0  3.044255  0
N  N81  1  0.38245399  0.92282210  0.24964810  1  0  -0.483418  0  2.806687  0  0  -0.43026  0  3.050815  0  0  -0.444144  0  3.061029  0  0  -0.37172  -0.420113  0  3.044206  0
N  N82  1  0.22701183  0.05231883  0.76371234  1  0  -0.441887  0  2.840695  0  0  -0.385742  0  3.096541  0  0  -0.401816  0  3.107876  0  0  -0.351424  -0.373606  0  3.088168  0
N  N83  1  0.77299340  0.94767764  0.23628904  1  0  -0.441921  0  2.841036  0  0  -0.385803  0  3.096909  0  0  -0.401875  0  3.108246  0  0  -0.351441  -0.373668  0  3.088537  0
N  N84  1  0.26133821  0.28147941  0.99450843  1  0  -0.444581  0  2.818845  0  0  -0.396421  0  3.075778  0  0  -0.409112  0  3.084204  0  0  -0.358726  -0.386457  0  3.069692  0
N  N85  1  0.73865086  0.71853008  0.00548729  1  0  -0.444615  0  2.818905  0  0  -0.396424  0  3.075809  0  0  -0.409121  0  3.084236  0  0  -0.358669  -0.386459  0  3.069722  0
N  N86  1  0.05958447  0.98834154  0.01436729  1  0  -0.120225  0  2.956551  0  0  -0.105282  0  3.248602  0  0  -0.102361  0  3.251476  0  0  -0.132739  -0.106907  0  3.245723  0
N  N87  1  0.94041529  0.01164571  0.98564632  1  0  -0.120118  0  2.956869  0  0  -0.105176  0  3.248853  0  0  -0.102255  0  3.25173  0  0  -0.132572  -0.106805  0  3.245974  0
O  O88  1  0.42630857  0.17975098  0.15562123  1  0  -0.921203  0  1.896785  0  0  -0.867515  0  2.089046  0  0  -0.896655  0  2.055399  0  0  -0.654209  -0.853689  0  2.10957  0
O  O89  1  0.57368637  0.82024931  0.84437237  1  0  -0.921084  0  1.896899  0  0  -0.867408  0  2.089229  0  0  -0.896535  0  2.05554  0  0  -0.654147  -0.853579  0  2.109751  0
O  O90  1  0.38243842  0.45451920  0.10869451  1  0  -0.63244  0  1.858626  0  0  -0.598611  0  2.123626  0  0  -0.633918  0  2.120959  0  0  -0.310888  -0.580401  0  2.123634  0
O  O91  1  0.61755499  0.54546571  0.89130804  1  0  -0.632518  0  1.858511  0  0  -0.598667  0  2.123507  0  0  -0.633976  0  2.120838  0  0  -0.310934  -0.580457  0  2.123522  0
O  O92  1  0.23344816  0.50368127  0.32997959  1  0  -0.626134  0  1.926753  0  0  -0.587298  0  2.180845  0  0  -0.625208  0  2.182125  0  0  -0.307523  -0.567255  0  2.17728  0
O  O93  1  0.76655188  0.49632547  0.67002512  1  0  -0.626356  0  1.926777  0  0  -0.587415  0  2.180844  0  0  -0.625323  0  2.182123  0  0  -0.307639  -0.567366  0  2.177281  0
O  O94  1  0.65488463  0.20282092  0.26313926  1  0  -0.930148  0  1.858086  0  0  -0.881122  0  2.057685  0  0  -0.90938  0  2.019406  0  0  -0.640557  -0.868216  0  2.079311  0
O  O95  1  0.34511646  0.79718262  0.73685716  1  0  -0.930269  0  1.857959  0  0  -0.881219  0  2.057544  0  0  -0.909476  0  2.019271  0  0  -0.64059  -0.86831  0  2.079171  0
O  O96  1  0.17614651  0.27650155  0.31971204  1  0  -0.930407  0  1.867167  0  0  -0.884472  0  2.068635  0  0  -0.91112  0  2.032383  0  0  -0.644272  -0.872516  0  2.088838  0
O  O97  1  0.82384716  0.72351311  0.68027826  1  0  -0.930154  0  1.867507  0  0  -0.884274  0  2.068907  0  0  -0.910927  0  2.032656  0  0  -0.644266  -0.872318  0  2.089102  0
O  O98  1  0.42896359  0.07007292  0.39594524  1  0  -0.878065  0  1.868219  0  0  -0.827317  0  2.055441  0  0  -0.853515  0  2.025347  0  0  -0.608194  -0.814308  0  2.072331  0
O  O99  1  0.57102559  0.92994349  0.60403020  1  0  -0.87801  0  1.86831  0  0  -0.827356  0  2.055488  0  0  -0.853553  0  2.025421  0  0  -0.608156  -0.814348  0  2.072379  0
