# generated using pymatgen
data_Cu2H24C14N2O7
_symmetry_space_group_name_H-M   'P 1'
_cell_length_a   8.07018085
_cell_length_b   9.52903855
_cell_length_c   13.10761251
_cell_angle_alpha   70.15586389
_cell_angle_beta   87.12831081
_cell_angle_gamma   89.49431876
_symmetry_Int_Tables_number   1
_chemical_formula_structural   Cu2H24C14N2O7
_chemical_formula_sum   'Cu4 H48 C28 N4 O14'
_cell_volume   946.90795221
_cell_formula_units_Z   2
loop_
 _symmetry_equiv_pos_site_id
 _symmetry_equiv_pos_as_xyz
  1  'x, y, z'
loop_
 _atom_site_type_symbol
 _atom_site_label
 _atom_site_symmetry_multiplicity
 _atom_site_fract_x
 _atom_site_fract_y
 _atom_site_fract_z
 _atom_site_occupancy
 _atom_site_hle17_ddec_charge
 _atom_site_hle17_ddec_spin_density
 _atom_site_hle17_ddec_sum_bond_order
 _atom_site_hle17_magmom
 _atom_site_hse06_10hf_ddec_charge
 _atom_site_hse06_10hf_ddec_spin_density
 _atom_site_hse06_10hf_ddec_sum_bond_order
 _atom_site_hse06_10hf_magmom
 _atom_site_hse06_ddec_charge
 _atom_site_hse06_ddec_spin_density
 _atom_site_hse06_ddec_sum_bond_order
 _atom_site_hse06_magmom
 _atom_site_pbe_cm5_charge
 _atom_site_pbe_ddec_charge
 _atom_site_pbe_ddec_spin_density
 _atom_site_pbe_ddec_sum_bond_order
 _atom_site_pbe_magmom
Cu  Cu0  1  0.49013050  0.33852408  0.48165764  1  0.849218  -0.699275  1.847524  -0.49  0.823196  -0.777814  2.243994  -0.6  0.905772  -0.847454  2.177842  -0.678  0.740796  0.774329  -0.726802  2.289029  -0.549
Cu  Cu1  1  0.50987172  0.66146781  0.51834443  1  0.849231  0.699301  1.847809  0.49  0.823217  0.777854  2.244246  0.6  0.905756  0.847483  2.178133  0.678  0.740867  0.774375  0.726843  2.289245  0.549
Cu  Cu2  1  0.53731329  0.49016760  0.09551947  1  0.891222  0.68162  1.853161  0.486  0.888554  0.814493  2.256534  0.637  1.004155  0.904769  2.143478  0.735  0.67137  0.821251  0.715421  2.318481  0.548
Cu  Cu3  1  0.46267302  0.50983304  0.90446936  1  0.891102  -0.681587  1.853541  -0.486  0.888516  -0.814535  2.257094  -0.637  1.004144  -0.904801  2.143972  -0.735  0.671438  0.82121  -0.715474  2.31902  -0.548
H  H4  1  0.55723756  0.90970314  0.72893759  1  0.12552  0.000511  0.981655  0.001  0.134424  0.000173  1.044521  0.0  0.138018  0.000162  1.045619  0.0  0.094414  0.132117  0.000167  1.043598  0.0
H  H5  1  0.44275713  0.09030345  0.27107698  1  0.125583  -0.00051  0.981616  -0.001  0.134483  -0.000173  1.04449  0.0  0.138085  -0.000162  1.045578  0.0  0.094451  0.132176  -0.000166  1.043569  0.0
H  H6  1  0.13282301  0.37621061  0.52120544  1  0.042783  -0.000109  0.920581  0.0  0.05743  -2.9e-05  0.978202  0.0  0.056974  -2e-05  0.978939  0.0  0.109539  0.057469  -5e-05  0.977865  0.0
H  H7  1  0.86718917  0.62378352  0.47879504  1  0.042807  0.00011  0.920613  0.0  0.057453  2.9e-05  0.978229  0.0  0.056998  2e-05  0.978968  0.0  0.109563  0.057492  4.9e-05  0.977891  0.0
H  H8  1  0.09421957  0.11417411  0.53607368  1  0.057335  -0.00198  0.941884  -0.002  0.077296  -0.001342  0.999748  -0.001  0.076583  -0.00101  1.000737  -0.001  0.10093  0.077543  -0.001554  0.99927  -0.001
H  H9  1  0.90578760  0.88582118  0.46393045  1  0.057364  0.001979  0.941836  0.002  0.077296  0.001342  0.999757  0.001  0.076576  0.00101  1.000744  0.001  0.100919  0.077549  0.001554  0.999281  0.001
H  H10  1  0.20659229  0.14556107  0.41000409  1  0.064431  -0.000503  0.921231  -0.001  0.082613  -0.000311  0.982516  0.0  0.082048  -0.000289  0.984045  0.0  0.101293  0.083005  -0.00033  0.981299  0.0
H  H11  1  0.79342493  0.85444310  0.58999373  1  0.064402  0.000502  0.921268  0.001  0.082614  0.000311  0.982558  0.0  0.082045  0.000289  0.984082  0.0  0.101305  0.083013  0.00033  0.981339  0.0
H  H12  1  0.36922324  0.97515484  0.99316764  1  0.138051  -0.000898  0.942805  -0.001  0.157951  -0.000637  0.998762  -0.001  0.15972  -0.000426  0.998743  0.0  0.101322  0.156344  -0.000714  0.999185  -0.001
H  H13  1  0.63076340  0.02487358  0.00680500  1  0.138088  0.000899  0.942697  0.001  0.157968  0.000638  0.998672  0.001  0.159733  0.000427  0.998657  0.0  0.101371  0.156366  0.000714  0.999088  0.001
H  H14  1  0.27771432  0.96649912  0.87329084  1  0.140194  0.001219  0.94566  0.001  0.160061  0.000877  1.001179  0.001  0.161315  0.000598  1.001881  0.001  0.100322  0.158702  0.001018  1.001081  0.001
H  H15  1  0.72224951  0.03348365  0.12670385  1  0.140246  -0.001218  0.945504  -0.001  0.160082  -0.000877  1.001061  -0.001  0.16134  -0.000598  1.001756  -0.001  0.100308  0.158723  -0.001018  1.000965  -0.001
H  H16  1  0.17281252  0.88910648  0.00392198  1  0.131804  -0.000394  0.935108  0.0  0.150635  -0.00032  0.993813  0.0  0.152451  -0.000224  0.993481  0.0  0.101604  0.149176  -0.000355  0.9941  0.0
H  H17  1  0.82717990  0.11089539  0.99607401  1  0.131797  0.000393  0.935119  0.0  0.150613  0.00032  0.993818  0.0  0.152429  0.000224  0.993487  0.0  0.101575  0.149154  0.000355  0.994106  0.0
H  H18  1  0.94833308  0.77064130  0.79503839  1  0.124439  0.001156  0.966745  0.001  0.140893  0.000828  1.031656  0.001  0.14261  0.000572  1.031246  0.001  0.094765  0.139375  0.000952  1.032105  0.001
H  H19  1  0.05164193  0.22934597  0.20495641  1  0.124424  -0.001155  0.966652  -0.001  0.14089  -0.000829  1.031559  -0.001  0.142609  -0.000573  1.031147  -0.001  0.094728  0.139371  -0.000952  1.03201  -0.001
H  H20  1  0.04339088  0.60976929  0.88500689  1  0.166771  -5.5e-05  0.926628  0.0  0.184834  -4.3e-05  0.982254  0.0  0.187577  -1.1e-05  0.981548  0.0  0.109751  0.182832  -6.8e-05  0.982662  0.0
H  H21  1  0.95660424  0.39023349  0.11497278  1  0.166745  5.5e-05  0.926588  0.0  0.184841  4.3e-05  0.982175  0.0  0.187585  1.1e-05  0.98147  0.0  0.109808  0.182838  6.8e-05  0.982581  0.0
H  H22  1  0.98860841  0.75921277  0.93095021  1  0.132746  -0.000973  0.943641  -0.001  0.153083  -0.000698  0.999856  -0.001  0.154758  -0.00048  0.999582  -0.001  0.097778  0.15161  -0.000819  1.000233  -0.001
H  H23  1  0.01140904  0.24080129  0.06903289  1  0.132744  0.000974  0.943746  0.001  0.153064  0.000698  0.999968  0.001  0.154737  0.00048  0.999698  0.001  0.09776  0.151584  0.000819  1.00035  0.001
H  H24  1  0.16294140  0.91761313  0.67103143  1  0.110413  0.000915  0.946063  0.001  0.133143  0.000403  1.005868  0.0  0.136104  0.00037  1.004222  0.0  0.092546  0.130979  0.000425  1.007196  0.0
H  H25  1  0.83705952  0.08238332  0.32897716  1  0.110433  -0.000916  0.946011  -0.001  0.133156  -0.000403  1.005832  0.0  0.136117  -0.00037  1.004185  0.0  0.09254  0.130993  -0.000425  1.007162  0.0
H  H26  1  0.33791909  0.79949836  0.68630618  1  0.146479  -0.000697  0.964063  -0.001  0.16043  -0.00068  1.030904  -0.001  0.163423  -0.000543  1.028175  -0.001  0.098673  0.157965  -0.000773  1.033371  -0.001
H  H27  1  0.66208808  0.20050592  0.31370103  1  0.146462  0.000696  0.964139  0.001  0.160429  0.00068  1.03097  0.001  0.16342  0.000543  1.028246  0.001  0.098668  0.157966  0.000773  1.033434  0.001
H  H28  1  0.25387994  0.88301797  0.55623604  1  0.116218  0.000534  0.965164  0.001  0.131564  0.000111  1.037499  0.0  0.133724  7.4e-05  1.037001  0.0  0.094194  0.129728  0.000151  1.038177  0.0
H  H29  1  0.74612474  0.11698070  0.44377036  1  0.116245  -0.000535  0.965185  -0.001  0.131606  -0.00011  1.037448  0.0  0.133768  -7.4e-05  1.036942  0.0  0.094206  0.12977  -0.000151  1.038139  0.0
H  H30  1  0.79089147  0.17726506  0.77922288  1  0.129414  0.000675  0.932325  0.001  0.151369  0.000259  0.987672  0.0  0.154541  0.00024  0.985677  0.0  0.097585  0.14911  0.000268  0.989058  0.0
H  H31  1  0.20910709  0.82274477  0.22078162  1  0.129387  -0.000675  0.932252  -0.001  0.151402  -0.000259  0.987547  0.0  0.154572  -0.00024  0.985556  0.0  0.097611  0.149143  -0.000268  0.988933  0.0
H  H32  1  0.91755412  0.11422004  0.68942745  1  0.114793  0.000551  0.949527  0.001  0.133248  0.000115  1.014296  0.0  0.135827  0.000133  1.012726  0.0  0.090349  0.131255  8e-05  1.015663  0.0
H  H33  1  0.08244044  0.88576531  0.31058945  1  0.114795  -0.000552  0.949594  -0.001  0.133209  -0.000115  1.01443  0.0  0.135789  -0.000133  1.012866  0.0  0.090339  0.131218  -8e-05  1.015793  0.0
H  H34  1  0.79020453  0.98377793  0.79404815  1  0.116012  -0.000771  0.960212  -0.001  0.139114  -0.000821  1.016583  -0.001  0.140141  -0.000581  1.017303  -0.001  0.092173  0.138459  -0.001039  1.015976  -0.001
H  H35  1  0.20976539  0.01622857  0.20596327  1  0.115968  0.000774  0.960162  0.001  0.139094  0.000821  1.016512  0.001  0.140121  0.000581  1.017231  0.001  0.092175  0.138439  0.001039  1.015906  0.001
H  H36  1  0.80469379  0.74124436  0.28774667  1  0.121148  0.000169  0.963027  0.0  0.140225  -2.5e-05  1.02546  0.0  0.143705  -1.9e-05  1.023525  0.0  0.089886  0.137635  -2.6e-05  1.02717  0.0
H  H37  1  0.19531460  0.25874195  0.71225513  1  0.121121  -0.000167  0.963012  0.0  0.140229  2.5e-05  1.025435  0.0  0.143689  1.9e-05  1.023524  0.0  0.089865  0.137634  2.6e-05  1.027149  0.0
H  H38  1  0.61942772  0.78031448  0.21651430  1  0.138744  5e-06  0.94706  0.0  0.160275  -0.000118  1.006161  0.0  0.163339  -8.4e-05  1.005578  0.0  0.099757  0.158168  -0.000182  1.006622  0.0
H  H39  1  0.38057700  0.21967627  0.78348647  1  0.138753  -3e-06  0.947057  0.0  0.160327  0.000118  1.006128  0.0  0.163392  8.4e-05  1.005537  0.0  0.099801  0.158219  0.000182  1.006587  0.0
H  H40  1  0.78711024  0.69923664  0.16391141  1  0.143194  -0.000388  0.951765  0.0  0.161686  -0.000391  1.010239  0.0  0.16555  -0.000284  1.00783  0.0  0.09537  0.159109  -0.000484  1.011872  -0.001
H  H41  1  0.21289322  0.30075526  0.83609063  1  0.143248  0.000387  0.951686  0.0  0.161734  0.000391  1.010185  0.0  0.165587  0.000284  1.007787  0.0  0.095403  0.159157  0.000484  1.01182  0.001
H  H42  1  0.88500563  0.33145544  0.43182986  1  0.119779  -0.000811  0.970069  -0.001  0.135928  -0.000717  1.037348  -0.001  0.13664  -0.000445  1.038378  -0.001  0.091016  0.135142  -0.000947  1.036905  -0.001
H  H43  1  0.11501128  0.66853218  0.56818588  1  0.119645  0.000809  0.97019  0.001  0.135861  0.000717  1.037389  0.001  0.136574  0.000445  1.038415  0.001  0.09099  0.135072  0.000947  1.036953  0.001
H  H44  1  0.00679737  0.35408241  0.30953708  1  0.103125  0.000208  0.972675  0.0  0.126478  7.1e-05  1.032077  0.0  0.127041  5.1e-05  1.033419  0.0  0.088502  0.1261  8.3e-05  1.031073  0.0
H  H45  1  0.99320223  0.64590962  0.69047647  1  0.103153  -0.000208  0.972666  0.0  0.126488  -7.1e-05  1.032089  0.0  0.127051  -5.1e-05  1.033433  0.0  0.088459  0.126109  -8.3e-05  1.031084  0.0
H  H46  1  0.97521186  0.50670090  0.35631121  1  0.106734  0.000133  0.952218  0.0  0.130163  -0.00013  1.009334  0.0  0.130966  -9.9e-05  1.009526  0.0  0.090503  0.129483  -0.000151  1.009263  0.0
H  H47  1  0.02478284  0.49329780  0.64369925  1  0.106724  -0.000132  0.952358  0.0  0.130123  0.00013  1.009508  0.0  0.130924  9.9e-05  1.009707  0.0  0.090508  0.129446  0.000151  1.009431  0.0
H  H48  1  0.29215435  0.54146278  0.38278473  1  0.309035  0.000505  0.90093  0.002  0.297751  -0.000712  0.960015  0.0  0.304956  -0.000479  0.956103  0.001  0.294661  0.292556  -0.000871  0.963209  0.0
H  H49  1  0.70785781  0.45854374  0.61722177  1  0.309026  -0.000505  0.900977  -0.002  0.297733  0.000713  0.960066  0.0  0.304938  0.000479  0.956152  -0.001  0.294692  0.292539  0.000872  0.963259  0.0
H  H50  1  0.31482821  0.42461363  0.31195426  1  0.310926  0.000496  0.893101  0.002  0.301452  -0.000511  0.951617  0.0  0.308107  -0.000239  0.947682  0.001  0.296429  0.29684  -0.000724  0.954646  0.0
H  H51  1  0.68517897  0.57538278  0.68804959  1  0.310826  -0.000494  0.893177  -0.002  0.301365  0.000512  0.951687  0.0  0.308021  0.00024  0.947752  -0.001  0.296366  0.29675  0.000725  0.954717  0.0
C  C52  1  0.39346069  0.03483867  0.60793197  1  0.392099  0.010568  3.748364  0.012  0.391872  0.002489  4.003115  0.004  0.415845  0.003574  4.016321  0.005  0.131367  0.37594  0.001545  3.994245  0.003
C  C53  1  0.60654517  0.96515555  0.39207705  1  0.392103  -0.010577  3.74855  -0.012  0.391839  -0.00249  4.003383  -0.004  0.415811  -0.003575  4.016591  -0.005  0.131359  0.375918  -0.001546  3.994502  -0.003
C  C54  1  0.54027300  0.01838522  0.66724214  1  -0.430137  -0.007475  3.722457  -0.009  -0.456146  -0.002394  3.985655  -0.004  -0.480633  -0.001623  4.007504  -0.003  -0.155604  -0.43975  -0.003094  3.970386  -0.005
C  C55  1  0.45972165  0.98161805  0.33277481  1  -0.430197  0.007475  3.722647  0.009  -0.456187  0.002394  3.985796  0.004  -0.480682  0.001622  4.007646  0.003  -0.155649  -0.439797  0.003094  3.970526  0.005
C  C56  1  0.65784852  0.12847782  0.65768388  1  0.456916  0.008714  3.817269  0.011  0.451242  0.002122  4.088429  0.004  0.477889  0.002864  4.09825  0.005  0.095172  0.433327  0.001436  4.081028  0.004
C  C57  1  0.34214620  0.87152537  0.34232697  1  0.456779  -0.008713  3.817412  -0.011  0.451168  -0.00212  4.088477  -0.004  0.477812  -0.002862  4.098297  -0.005  0.095101  0.433257  -0.001433  4.081077  -0.004
C  C58  1  0.65063982  0.54996726  0.30332639  1  0.750304  0.001642  3.811588  0.004  0.723332  -0.000888  4.094058  0.001  0.761826  -0.000351  4.084862  0.001  0.212513  0.697355  -0.001321  4.099243  0.001
C  C59  1  0.34937118  0.45002792  0.69666928  1  0.750419  -0.001635  3.811429  -0.004  0.723401  0.000888  4.093963  -0.001  0.761907  0.000352  4.084743  -0.001  0.212546  0.697419  0.001322  4.099153  -0.001
C  C60  1  0.14994800  0.34676996  0.44719660  1  0.216235  0.001566  3.632723  0.004  0.205381  -0.000767  3.880082  0.001  0.211085  -0.000104  3.895353  0.002  -0.004648  0.201787  -0.001353  3.869508  0.001
C  C61  1  0.85005666  0.65322423  0.55280941  1  0.216055  -0.001563  3.632603  -0.004  0.205206  0.000767  3.880014  -0.001  0.210904  0.000106  3.895278  -0.002  -0.004687  0.201616  0.001354  3.869445  -0.001
C  C62  1  0.19460990  0.18139252  0.48204310  1  -0.019253  -0.003801  3.679181  -0.002  -0.073323  -0.003196  3.93872  -0.002  -0.068919  -0.002052  3.954407  -0.001  -0.067804  -0.075771  -0.004014  3.927976  -0.003
C  C63  1  0.80539360  0.81860609  0.51795876  1  -0.019237  0.003802  3.679198  0.002  -0.073345  0.003195  3.938811  0.002  -0.068914  0.002052  3.954458  0.001  -0.06783  -0.075819  0.004014  3.928107  0.003
C  C64  1  0.37439182  0.75735847  0.97616851  1  0.723075  -0.000155  3.830586  0.0  0.696269  -0.000236  4.127115  0.0  0.736961  -0.000219  4.122295  0.0  0.211757  0.668395  -0.000246  4.131015  0.0
C  C65  1  0.62560334  0.24265439  0.02381166  1  0.723277  0.000153  3.830644  0.0  0.696465  0.000236  4.127167  0.0  0.737158  0.000219  4.122344  0.0  0.211813  0.668591  0.000246  4.131073  0.0
C  C66  1  0.29444520  0.90742428  0.95957403  1  -0.437478  -0.000396  3.648359  -0.001  -0.512455  -0.000189  3.875581  0.0  -0.520987  -0.000137  3.879233  0.0  -0.236823  -0.50536  -0.000316  3.872837  -0.001
C  C67  1  0.70553742  0.09258644  0.04041540  1  -0.437597  0.000393  3.648256  0.001  -0.512484  0.000189  3.875479  0.0  -0.521015  0.000137  3.87913  0.0  -0.23681  -0.505394  0.000316  3.872735  0.001
C  C68  1  0.78260707  0.62498078  0.91991522  1  0.731832  0.000399  3.819489  0.0  0.705  0.000422  4.114028  0.001  0.745401  0.000403  4.108863  0.001  0.213881  0.67728  0.000377  4.118387  0.001
C  C69  1  0.21739170  0.37502208  0.08006967  1  0.731536  -0.000402  3.82008  0.0  0.704556  -0.000424  4.114824  -0.001  0.74496  -0.000405  4.109662  -0.001  0.213628  0.676837  -0.000378  4.119184  -0.001
C  C70  1  0.95045681  0.69677466  0.87960061  1  -0.445152  0.000325  3.639679  0.0  -0.521007  1.2e-05  3.868698  0.0  -0.52968  2.6e-05  3.871102  0.0  -0.241224  -0.513796  5e-05  3.866512  0.0
C  C71  1  0.04954803  0.30322384  0.12039286  1  -0.445047  -0.000326  3.639623  0.0  -0.520885  -9e-06  3.868639  0.0  -0.529559  -2.5e-05  3.871045  0.0  -0.241193  -0.513665  -4.6e-05  3.866454  0.0
C  C72  1  0.28200838  0.90055429  0.63221358  1  -0.389883  -0.011786  3.67377  -0.013  -0.470311  -0.006913  3.913778  -0.008  -0.475757  -0.005235  3.916058  -0.006  -0.241471  -0.466162  -0.008004  3.912476  -0.009
C  C73  1  0.71800129  0.09944999  0.36779279  1  -0.38996  0.011794  3.673625  0.013  -0.470347  0.006914  3.913597  0.008  -0.475792  0.005235  3.915883  0.006  -0.241475  -0.466209  0.008006  3.912294  0.009
C  C74  1  0.79683349  0.09732526  0.73510866  1  -0.394868  -0.01063  3.700423  -0.012  -0.472702  -0.00641  3.931827  -0.007  -0.478431  -0.004468  3.935914  -0.005  -0.243521  -0.468375  -0.007923  3.928585  -0.009
C  C75  1  0.20316368  0.90267796  0.26490442  1  -0.39475  0.010627  3.700349  0.012  -0.472638  0.006409  3.931741  0.007  -0.478372  0.004467  3.935833  0.005  -0.243512  -0.468309  0.007921  3.928497  0.009
C  C76  1  0.72282846  0.70168905  0.23885936  1  -0.460429  -0.005966  3.669924  -0.006  -0.54026  -0.003892  3.899145  -0.004  -0.549175  -0.002829  3.899409  -0.003  -0.250183  -0.533866  -0.004704  3.89854  -0.005
C  C77  1  0.27717880  0.29830952  0.76113861  1  -0.460474  0.005957  3.669888  0.006  -0.540394  0.003893  3.899128  0.004  -0.549281  0.00283  3.899418  0.003  -0.250245  -0.533998  0.004703  3.898529  0.005
C  C78  1  0.99527780  0.38587692  0.38245902  1  -0.346538  -0.005292  3.663643  -0.005  -0.423986  -0.003402  3.897028  -0.003  -0.426967  -0.002373  3.907813  -0.002  -0.249997  -0.421471  -0.004131  3.889383  -0.004
C  C79  1  0.00472927  0.61411735  0.61755301  1  -0.346334  0.005287  3.663613  0.005  -0.423788  0.003402  3.896996  0.003  -0.426771  0.002373  3.907778  0.002  -0.249871  -0.42127  0.004131  3.889351  0.004
N  N80  1  0.35199262  0.16219712  0.53526027  1  -0.433991  -0.102784  3.231152  -0.126  -0.393839  -0.066132  3.546734  -0.086  -0.431621  -0.056538  3.564386  -0.078  -0.406962  -0.371484  -0.070504  3.536748  -0.089
N  N81  1  0.64800956  0.83779818  0.46474628  1  -0.433941  0.102767  3.231364  0.126  -0.393778  0.066128  3.54696  0.086  -0.431554  0.056534  3.564603  0.078  -0.406963  -0.371422  0.070501  3.536981  0.089
N  N82  1  0.29819698  0.43118200  0.38839646  1  -0.622849  -0.104177  3.109957  -0.125  -0.603339  -0.072322  3.373159  -0.091  -0.635352  -0.059726  3.374218  -0.08  -0.637954  -0.583638  -0.078463  3.373663  -0.095
N  N83  1  0.70179907  0.56882109  0.61160676  1  -0.622774  0.104156  3.110154  0.125  -0.603251  0.072315  3.373337  0.091  -0.635256  0.059721  3.374395  0.079  -0.637981  -0.58355  0.078457  3.373842  0.095
O  O84  1  0.66180605  0.26263207  0.58622923  1  -0.568319  -0.083221  2.092623  -0.109  -0.526349  -0.057275  2.360928  -0.082  -0.565821  -0.045303  2.354927  -0.068  -0.328557  -0.500042  -0.064848  2.364889  -0.089
O  O85  1  0.33820605  0.73737000  0.41377993  1  -0.568225  0.083208  2.092813  0.109  -0.526287  0.05727  2.361064  0.082  -0.565747  0.0453  2.355058  0.068  -0.328475  -0.499981  0.064841  2.365026  0.089
O  O86  1  0.63045044  0.51840970  0.40714127  1  -0.656168  -0.064067  2.131759  -0.082  -0.621976  -0.044479  2.428506  -0.062  -0.660542  -0.036074  2.414915  -0.053  -0.340748  -0.596455  -0.050098  2.437739  -0.067
O  O87  1  0.36957058  0.48159777  0.59285103  1  -0.656332  0.064071  2.131998  0.082  -0.622033  0.044484  2.428604  0.062  -0.660603  0.036081  2.415012  0.053  -0.340793  -0.596509  0.050102  2.437838  0.067
O  O88  1  0.60968840  0.46012007  0.25718137  1  -0.643373  -0.00075  2.032927  -0.001  -0.599961  -0.000315  2.287175  0.0  -0.631975  2.9e-05  2.268077  0.0  -0.331546  -0.57916  -0.000667  2.298898  -0.001
O  O89  1  0.39031256  0.53986508  0.74281938  1  -0.643329  0.000747  2.032886  0.001  -0.599884  0.000315  2.287152  0.0  -0.631914  -3e-05  2.268069  0.0  -0.331554  -0.579077  0.000666  2.298862  0.001
O  O90  1  0.43302222  0.69066078  0.06861831  1  -0.593393  0.076609  2.030532  0.099  -0.570662  0.053136  2.292019  0.075  -0.617535  0.041994  2.283278  0.063  -0.322428  -0.54176  0.056193  2.297882  0.077
O  O91  1  0.56697293  0.30935997  0.93136597  1  -0.593441  -0.076616  2.030601  -0.099  -0.570703  -0.053141  2.292129  -0.075  -0.617581  -0.041998  2.283388  -0.063  -0.322473  -0.541799  -0.056196  2.297986  -0.077
O  O92  1  0.37426321  0.70945349  0.89651216  1  -0.582127  -0.077172  2.063429  -0.101  -0.556275  -0.053084  2.333577  -0.076  -0.604294  -0.041765  2.326673  -0.063  -0.30979  -0.526343  -0.056336  2.337797  -0.077
O  O93  1  0.62572315  0.29055048  0.10347430  1  -0.582225  0.077177  2.063319  0.101  -0.556443  0.053089  2.333563  0.076  -0.604463  0.041768  2.326661  0.063  -0.30984  -0.526509  0.056342  2.337785  0.077
O  O94  1  0.75008016  0.58737661  0.02187990  1  -0.602904  0.073962  2.080582  0.096  -0.577138  0.051621  2.347142  0.074  -0.62502  0.040929  2.338653  0.062  -0.315472  -0.547638  0.054089  2.352868  0.074
O  O95  1  0.24993602  0.41263523  0.97810456  1  -0.60275  -0.073959  2.080852  -0.096  -0.576924  -0.051617  2.347506  -0.074  -0.624809  -0.040927  2.339003  -0.062  -0.315363  -0.547422  -0.054081  2.353231  -0.074
O  O96  1  0.68743890  0.60601204  0.85061884  1  -0.594033  -0.074173  2.0306  -0.097  -0.567193  -0.052197  2.293371  -0.074  -0.612375  -0.041465  2.283127  -0.062  -0.315497  -0.539335  -0.054734  2.300297  -0.075
O  O97  1  0.31254739  0.39398301  0.14936989  1  -0.593964  0.074175  2.031091  0.097  -0.567031  0.052204  2.293838  0.074  -0.612209  0.041471  2.283606  0.062  -0.315439  -0.539174  0.054738  2.300764  0.075
