# generated using pymatgen
data_ZnH14C18Br3N3O4
_symmetry_space_group_name_H-M   'P 1'
_cell_length_a   8.78032874
_cell_length_b   16.45711844
_cell_length_c   16.89587785
_cell_angle_alpha   85.94679594
_cell_angle_beta   89.83143855
_cell_angle_gamma   77.41761655
_symmetry_Int_Tables_number   1
_chemical_formula_structural   ZnH14C18Br3N3O4
_chemical_formula_sum   'Zn2 H28 C36 Br6 N6 O8'
_cell_volume   2376.64758588
_cell_formula_units_Z   2
loop_
 _symmetry_equiv_pos_site_id
 _symmetry_equiv_pos_as_xyz
  1  'x, y, z'
loop_
 _atom_site_type_symbol
 _atom_site_label
 _atom_site_symmetry_multiplicity
 _atom_site_fract_x
 _atom_site_fract_y
 _atom_site_fract_z
 _atom_site_occupancy
 _atom_site_pbe_bader_charge
 _atom_site_pbe_bader_spin_density
 _atom_site_pbe_cm5_charge
 _atom_site_pbe_ddec_charge
 _atom_site_pbe_ddec_spin_density
 _atom_site_pbe_ddec_sum_bond_order
 _atom_site_pbe_magmom
Zn  Zn0  1  0.47480774  0.59664343  0.50381468  1  1.327405  0  0.68232  0.898056  0  2.278165  0
Zn  Zn1  1  0.52109684  0.40326994  0.50144468  1  1.323799  0  0.679605  0.892297  0  2.294081  0
H  H2  1  0.69871860  0.45511795  0.11822642  1  0.113342  0  0.108035  0.115321  0  1.009256  0
H  H3  1  0.01742319  0.43402159  0.77259056  1  0.023891  0  0.076435  0.105847  0  1.026696  0
H  H4  1  0.05709486  0.37736229  0.68619276  1  0.018986  0  0.08443  0.120205  0  1.01225  0
H  H5  1  0.88956330  0.31168642  0.78234368  1  0.038791  0  0.081968  0.080853  0  1.013  0
H  H6  1  0.79549283  0.34431612  0.68935950  1  0.066389  0  0.094339  0.103498  0  0.99656  0
H  H7  1  0.00948001  0.53687962  0.18685869  1  0.04349  0  0.073859  0.106886  0  1.035242  0
H  H8  1  0.08801247  0.48212146  0.27733930  1  0.05556  0  0.069802  0.097737  0  1.058522  0
H  H9  1  0.92962502  0.56948393  0.27921073  1  0.02842  0  0.081733  0.113533  0  1.021077  0
H  H10  1  0.17342268  0.61256477  0.31585048  1  0.079066  0  0.093547  0.105956  0  0.994248  0
H  H11  1  0.10402866  0.66281023  0.22293079  1  0.001417  0  0.082688  0.081528  0  1.00889  0
H  H12  1  0.79725223  0.78456932  0.35738487  1  -0.015436  0  0.08268  0.105529  0  1.012993  0
H  H13  1  0.34137292  0.55232690  0.88852567  1  0.1333  0  0.106618  0.111931  0  1.020743  0
H  H14  1  0.83697492  0.68102067  0.40278777  1  0.058189  0  0.082811  0.119396  0  1.035947  0
H  H15  1  0.79667119  0.69918356  0.29901795  1  0.038132  0  0.093221  0.12823  0  0.996379  0
H  H16  1  0.56341604  0.66801791  0.37168865  1  0.121987  0  0.101885  0.121049  0  1.033792  0
H  H17  1  0.52318626  0.76865001  0.32324264  1  0.052659  0  0.103639  0.108896  0  0.950233  0
H  H18  1  0.50197091  0.26601486  0.69969950  1  0.061732  0  0.090213  0.130385  0  1.008752  0
H  H19  1  0.30599436  0.28319174  0.73237049  1  0.040608  0  0.09317  0.126731  0  0.995423  0
H  H20  1  0.39979563  0.18300345  0.70325903  1  0.001771  0  0.082052  0.104571  0  1.013032  0
H  H21  1  0.31554414  0.34579440  0.59385191  1  0.120787  0  0.099226  0.117079  0  1.045871  0
H  H22  1  0.21313510  0.26485946  0.59690708  1  0.053249  0  0.096672  0.099213  0  0.97516  0
H  H23  1  0.67334865  0.44851299  0.26671188  1  0.075371  0  0.099243  0.107831  0  1.004676  0
H  H24  1  0.34095815  0.54414880  0.74033776  1  0.07478  0  0.099913  0.11117  0  0.994256  0
H  H25  1  0.58716765  0.88700273  0.40215326  1  0.124026  0  0.116906  0.128889  0  1.011256  0
H  H26  1  0.36613321  0.11703389  0.57879305  1  0.117566  0  0.117548  0.132582  0  1.00366  0
H  H27  1  0.69852070  0.11010862  0.39017069  1  0.129653  0  0.119624  0.144704  0  0.981306  0
H  H28  1  0.40461610  0.87838595  0.63845351  1  0.121489  0  0.120721  0.144767  0  0.982296  0
H  H29  1  0.91471364  0.47240077  0.68241156  1  0.032635  0  0.071768  0.102326  0  1.060183  0
C  C30  1  0.43744463  0.51350348  0.35290052  1  1.571436  0  0.222911  0.615392  0  4.141037  0
C  C31  1  0.44314109  0.84879690  0.58419370  1  0.079387  0  -0.078545  -0.237466  0  3.924786  0
C  C32  1  0.61663267  0.22758040  0.44333964  1  0.437524  0  0.120245  0.261703  0  3.975868  0
C  C33  1  0.43887683  0.76580172  0.57532125  1  0.440694  0  0.118455  0.254461  0  3.983959  0
C  C34  1  0.78797370  0.49027178  0.48357807  1  1.638091  0  0.206867  0.600825  0  4.213874  0
C  C35  1  0.20326250  0.53520839  0.52709068  1  1.639906  0  0.207236  0.60711  0  4.201363  0
C  C36  1  0.96107750  0.48613129  0.48681256  1  -0.032871  0  -0.017288  -0.041524  0  3.823469  0
C  C37  1  0.03094850  0.53806825  0.52470143  1  -0.02482  0  -0.021131  -0.053252  0  3.833584  0
C  C38  1  0.43706558  0.52067389  0.26352838  1  -0.014152  0  -0.006851  -0.055899  0  3.892151  0
C  C39  1  0.57012462  0.46376883  0.73960131  1  -0.12379  0  -0.00517  -0.048826  0  3.900647  0
C  C40  1  0.30839814  0.56519062  0.21700812  1  0.000499  0  -0.004561  0.067087  0  3.902794  0
C  C41  1  0.55893943  0.46325982  0.65086690  1  1.587734  0  0.224883  0.618632  0  4.134358  0
C  C42  1  0.70146679  0.41852561  0.78358633  1  0.10804  0  -0.005593  0.061758  0  3.907166  0
C  C43  1  0.32767544  0.56854625  0.13425085  1  -0.055893  0  -0.005935  0.003587  0  3.848122  0
C  C44  1  0.69926604  0.42634571  0.86593087  1  -0.104094  0  -0.005243  0.007146  0  3.85364  0
C  C45  1  0.46571300  0.52774119  0.09829363  1  0.347086  0  0.079562  0.121806  0  4.06904  0
C  C46  1  0.57123384  0.47481103  0.90392848  1  0.405275  0  0.077695  0.119598  0  4.060516  0
C  C47  1  0.59174104  0.48504488  0.14683659  1  -0.033916  0  -0.084073  -0.13534  0  3.980185  0
C  C48  1  0.44090791  0.51701640  0.85790023  1  -0.041806  0  -0.08525  -0.133677  0  3.980176  0
C  C49  1  0.57682222  0.48171636  0.22836585  1  0.022903  0  -0.090506  -0.095523  0  4.013749  0
C  C50  1  0.44158404  0.51202171  0.77663789  1  0.038568  0  -0.094034  -0.103828  0  4.025568  0
C  C51  1  0.83841714  0.36674951  0.74281565  1  -0.009915  0  -0.171108  -0.149017  0  3.979888  0
C  C52  1  0.43397562  0.23258457  0.54417533  1  0.462006  0  0.137731  0.311239  0  3.869296  0
C  C53  1  0.96431793  0.41555812  0.71983749  1  -0.056814  0  -0.250307  -0.344581  0  3.935927  0
C  C54  1  0.15406072  0.60173223  0.25376568  1  0.001781  0  -0.169588  -0.147679  0  3.971587  0
C  C55  1  0.03846934  0.54415952  0.24872935  1  -0.099942  0  -0.255479  -0.354869  0  3.957513  0
C  C56  1  0.59143967  0.72949855  0.37211582  1  -0.044056  0  -0.160845  -0.193911  0  3.937346  0
C  C57  1  0.76617218  0.72336339  0.35722734  1  -0.022378  0  -0.240746  -0.33888  0  3.925584  0
C  C58  1  0.32950897  0.27831931  0.60479698  1  -0.038724  0  -0.165262  -0.20863  0  3.965082  0
C  C59  1  0.38848967  0.25046012  0.69010412  1  -0.050732  0  -0.241452  -0.33986  0  3.93147  0
C  C60  1  0.53879014  0.76961855  0.44765241  1  0.490557  0  0.140791  0.313972  0  3.861365  0
C  C61  1  0.43827186  0.14780411  0.53970592  1  0.017861  0  -0.078496  -0.251102  0  3.881688  0
C  C62  1  0.54544981  0.85308047  0.45228713  1  0.013789  0  -0.077157  -0.24672  0  3.881714  0
C  C63  1  0.53399801  0.10258944  0.48460886  1  0.291542  0  0.104383  0.226608  0  4.053535  0
C  C64  1  0.49680591  0.89335220  0.52085716  1  0.278898  0  0.101553  0.222048  0  4.053236  0
C  C65  1  0.62391758  0.14337205  0.43425272  1  0.087447  0  -0.082052  -0.241748  0  3.923852  0
Br  Br66  1  0.07451491  0.39632393  0.43064472  1  -0.00675  0  0.068071  0.017138  0  1.557272  0
Br  Br67  1  0.91131289  0.62495892  0.58237969  1  -0.017563  0  0.051859  -0.006032  0  1.501962  0
Br  Br68  1  0.87650839  0.37202792  0.92963588  1  -0.06212  0  0.019064  -0.083131  0  1.41918  0
Br  Br69  1  0.15938517  0.62691596  0.06633629  1  -0.066608  0  0.020853  -0.083164  0  1.435446  0
Br  Br70  1  0.75015564  0.27860242  0.37855136  1  0.02066  0  0.078214  -0.022176  0  1.517247  0
Br  Br71  1  0.36287585  0.70910042  0.66251240  1  0.027607  0  0.087227  -0.006505  0  1.5091  0
N  N72  1  0.47043712  0.53137333  0.01496557  1  -0.480186  0  -0.150779  -0.115425  0  3.30935  0
N  N73  1  0.57355784  0.47441680  0.98720021  1  -0.498729  0  -0.148409  -0.115596  0  3.302082  0
N  N74  1  0.52425034  0.27249137  0.49573621  1  -1.192092  0  -0.298493  -0.300825  0  3.361522  0
N  N75  1  0.48469752  0.72586159  0.50952846  1  -1.19537  0  -0.298605  -0.303822  0  3.36773  0
N  N76  1  0.54430142  0.01680521  0.47405299  1  -0.438919  0  -0.126882  -0.105829  0  3.210616  0
N  N77  1  0.49333430  0.97845829  0.53209407  1  -0.435419  0  -0.126146  -0.106467  0  3.215587  0
O  O78  1  0.40773186  0.58067378  0.38829016  1  -1.165416  0  -0.308705  -0.544937  0  2.33329  0
O  O79  1  0.55672424  0.39426584  0.62186723  1  -1.157507  0  -0.304299  -0.525327  0  2.320613  0
O  O80  1  0.47604495  0.43952614  0.38524375  1  -1.168736  0  -0.321398  -0.571758  0  2.39338  0
O  O81  1  0.54759199  0.53353213  0.61244704  1  -1.18036  0  -0.319986  -0.585599  0  2.409701  0
O  O82  1  0.70139683  0.56188017  0.46710115  1  -1.168547  0  -0.308635  -0.541058  0  2.397196  0
O  O83  1  0.29208444  0.46355790  0.52694408  1  -1.190211  0  -0.310785  -0.558231  0  2.449767  0
O  O84  1  0.74680577  0.42175860  0.49709985  1  -1.150979  0  -0.312452  -0.548256  0  2.405478  0
O  O85  1  0.24433982  0.60448221  0.52837705  1  -1.142927  0  -0.322023  -0.550634  0  2.370415  0
