# generated using pymatgen
data_Zn3H20C28(NO)10
_symmetry_space_group_name_H-M   'P 1'
_cell_length_a   7.47739806
_cell_length_b   12.21217814
_cell_length_c   18.51362422
_cell_angle_alpha   98.45363585
_cell_angle_beta   89.99983384
_cell_angle_gamma   90.00010625
_symmetry_Int_Tables_number   1
_chemical_formula_structural   Zn3H20C28(NO)10
_chemical_formula_sum   'Zn6 H40 C56 N20 O20'
_cell_volume   1672.20959322
_cell_formula_units_Z   2
loop_
 _symmetry_equiv_pos_site_id
 _symmetry_equiv_pos_as_xyz
  1  'x, y, z'
loop_
 _atom_site_type_symbol
 _atom_site_label
 _atom_site_symmetry_multiplicity
 _atom_site_fract_x
 _atom_site_fract_y
 _atom_site_fract_z
 _atom_site_occupancy
 _atom_site_hle17_bader_spin_density
 _atom_site_hle17_ddec_charge
 _atom_site_hle17_ddec_spin_density
 _atom_site_hle17_ddec_sum_bond_order
 _atom_site_hle17_magmom
 _atom_site_hse06_10hf_bader_spin_density
 _atom_site_hse06_10hf_ddec_charge
 _atom_site_hse06_10hf_ddec_spin_density
 _atom_site_hse06_10hf_ddec_sum_bond_order
 _atom_site_hse06_10hf_magmom
 _atom_site_hse06_bader_spin_density
 _atom_site_hse06_ddec_charge
 _atom_site_hse06_ddec_spin_density
 _atom_site_hse06_ddec_sum_bond_order
 _atom_site_hse06_magmom
 _atom_site_pbe_bader_spin_density
 _atom_site_pbe_cm5_charge
 _atom_site_pbe_ddec_charge
 _atom_site_pbe_ddec_spin_density
 _atom_site_pbe_ddec_sum_bond_order
 _atom_site_pbe_magmom
Zn  Zn0  1  0.99953519  0.00004220  0.99996531  1  0  0.993343  0  1.850051  0  0  0.814715  0  2.29559  0  0  0.86117  0  2.245528  0  0  0.697375  0.782212  0  2.329788  0
Zn  Zn1  1  0.49943741  0.49995089  0.50003666  1  0  0.993109  0  1.850273  0  0  0.814445  0  2.295845  0  0  0.860896  0  2.245788  0  0  0.697206  0.781934  0  2.33004  0
Zn  Zn2  1  0.21251945  0.10643512  0.31993259  1  0  0.963078  0  1.954891  0  0  0.780088  0  2.413432  0  0  0.823867  0  2.365162  0  0  0.693238  0.74977  0  2.44636  0
Zn  Zn3  1  0.71251521  0.39356569  0.18006723  1  0  0.963159  0  1.954877  0  0  0.780125  0  2.413444  0  0  0.823905  0  2.365173  0  0  0.69322  0.749809  0  2.446361  0
Zn  Zn4  1  0.78746940  0.89355999  0.68004642  1  0  0.962853  0  1.954706  0  0  0.779856  0  2.413189  0  0  0.823646  0  2.364927  0  0  0.693186  0.749534  0  2.4461  0
Zn  Zn5  1  0.28746695  0.60643516  0.81995496  1  0  0.962834  0  1.95486  0  0  0.779873  0  2.413344  0  0  0.823655  0  2.365085  0  0  0.693197  0.749549  0  2.446262  0
H  H6  1  0.52045831  0.94117271  0.27060251  1  0  0.096367  0  0.933048  0  0  0.105078  0  0.992131  0  0  0.108335  0  0.989132  0  0  0.120337  0.102661  0  0.994346  0
H  H7  1  0.02046975  0.55883103  0.22939785  1  0  0.096395  0  0.932934  0  0  0.105077  0  0.992066  0  0  0.108336  0  0.989066  0  0  0.120306  0.102664  0  0.99428  0
H  H8  1  0.47953320  0.05882332  0.72938143  1  0  0.096317  0  0.933197  0  0  0.104953  0  0.992332  0  0  0.108211  0  0.989337  0  0  0.120303  0.102482  0  0.994615  0
H  H9  1  0.97953514  0.44116800  0.77061500  1  0  0.096218  0  0.933338  0  0  0.104933  0  0.992387  0  0  0.108227  0  0.98935  0  0  0.12029  0.102458  0  0.994669  0
H  H10  1  0.62505671  0.92807285  0.48906672  1  0  0.102357  0  0.960582  0  0  0.113348  0  1.019972  0  0  0.116173  0  1.0178  0  0  0.109272  0.11125  0  1.021625  0
H  H11  1  0.12505776  0.57192842  0.01093006  1  0  0.102307  0  0.960603  0  0  0.113276  0  1.020036  0  0  0.116087  0  1.017883  0  0  0.109261  0.111178  0  1.021683  0
H  H12  1  0.37497627  0.07193028  0.51094433  1  0  0.102406  0  0.960566  0  0  0.113328  0  1.020076  0  0  0.116147  0  1.017932  0  0  0.109196  0.111228  0  1.021724  0
H  H13  1  0.87496987  0.42806428  0.98905305  1  0  0.102367  0  0.960665  0  0  0.113283  0  1.020179  0  0  0.116094  0  1.018029  0  0  0.109221  0.111181  0  1.021831  0
H  H14  1  0.60021398  0.12411964  0.45898098  1  0  0.107881  0  0.979855  0  0  0.11724  0  1.03995  0  0  0.119887  0  1.039715  0  0  0.106637  0.115279  0  1.040338  0
H  H15  1  0.10021446  0.37588107  0.04101788  1  0  0.107862  0  0.97984  0  0  0.117229  0  1.039925  0  0  0.119878  0  1.039686  0  0  0.106623  0.115269  0  1.04031  0
H  H16  1  0.39982568  0.87587943  0.54103403  1  0  0.107866  0  0.979817  0  0  0.117233  0  1.039902  0  0  0.119911  0  1.039632  0  0  0.106617  0.115279  0  1.040268  0
H  H17  1  0.89982252  0.62410990  0.95896076  1  0  0.10781  0  0.979909  0  0  0.11718  0  1.039975  0  0  0.119846  0  1.039743  0  0  0.106598  0.115222  0  1.040338  0
H  H18  1  0.11809557  0.73110346  0.40990848  1  0  0.11299  0  0.944434  0  0  0.12624  0  0.997625  0  0  0.129501  0  0.996411  0  0  0.111998  0.123876  0  0.998674  0
H  H19  1  0.61809560  0.76889466  0.09009721  1  0  0.113048  0  0.944309  0  0  0.126285  0  0.997518  0  0  0.129541  0  0.996304  0  0  0.112002  0.123925  0  0.998564  0
H  H20  1  0.88193205  0.26890790  0.59010114  1  0  0.113278  0  0.944248  0  0  0.12658  0  0.997324  0  0  0.129825  0  0.996129  0  0  0.112141  0.124234  0  0.998353  0
H  H21  1  0.38194540  0.23110001  0.90990336  1  0  0.113307  0  0.944243  0  0  0.126582  0  0.997352  0  0  0.129828  0  0.996156  0  0  0.112127  0.124235  0  0.998383  0
H  H22  1  0.88270780  0.81491736  0.44605747  1  0  0.115037  0  0.943907  0  0  0.125181  0  1.00318  0  0  0.129109  0  1.000507  0  0  0.11242  0.122322  0  1.00528  0
H  H23  1  0.38271024  0.68508422  0.05394445  1  0  0.115004  0  0.943977  0  0  0.125172  0  1.003219  0  0  0.129099  0  1.000548  0  0  0.112409  0.122311  0  1.005318  0
H  H24  1  0.11732250  0.18507737  0.55394634  1  0  0.115056  0  0.943961  0  0  0.125247  0  1.00315  0  0  0.129174  0  1.00048  0  0  0.112464  0.122388  0  1.005253  0
H  H25  1  0.61730802  0.31491618  0.94605286  1  0  0.115086  0  0.943936  0  0  0.125286  0  1.003104  0  0  0.129212  0  1.000435  0  0  0.112481  0.122426  0  1.005209  0
H  H26  1  0.39963874  0.64123917  0.35889504  1  0  0.104448  0  0.97524  0  0  0.109089  0  1.042259  0  0  0.111939  0  1.039573  0  0  0.109535  0.106964  0  1.044245  0
H  H27  1  0.89963601  0.85876573  0.14110662  1  0  0.104445  0  0.97521  0  0  0.109104  0  1.042224  0  0  0.111928  0  1.039565  0  0  0.10953  0.106978  0  1.044209  0
H  H28  1  0.60041296  0.35877638  0.64111712  1  0  0.104596  0  0.975161  0  0  0.109302  0  1.042085  0  0  0.11215  0  1.0394  0  0  0.109576  0.107179  0  1.044061  0
H  H29  1  0.10042238  0.14122389  0.85888864  1  0  0.104578  0  0.975228  0  0  0.10927  0  1.042155  0  0  0.112108  0  1.039482  0  0  0.109604  0.107152  0  1.044135  0
H  H30  1  0.85240904  0.19513955  0.38852537  1  0  0.082229  0  0.941288  0  0  0.09134  0  1.002308  0  0  0.093395  0  1.001265  0  0  0.115755  0.089774  0  1.003164  0
H  H31  1  0.35239941  0.30486141  0.11147592  1  0  0.08223  0  0.941319  0  0  0.09131  0  1.002363  0  0  0.093364  0  1.00132  0  0  0.115771  0.089748  0  1.003213  0
H  H32  1  0.14759050  0.80485011  0.61147206  1  0  0.082092  0  0.941383  0  0  0.091124  0  1.002533  0  0  0.093184  0  1.001477  0  0  0.115688  0.089557  0  1.003391  0
H  H33  1  0.64759880  0.69514236  0.88852492  1  0  0.08211  0  0.941452  0  0  0.091184  0  1.002548  0  0  0.093249  0  1.00148  0  0  0.115695  0.08961  0  1.003419  0
H  H34  1  0.60434540  0.74474932  0.28702903  1  0  0.105502  0  0.953141  0  0  0.113903  0  1.01372  0  0  0.116481  0  1.014589  0  0  0.10722  0.112028  0  1.013335  0
H  H35  1  0.10435492  0.75525699  0.21297255  1  0  0.105524  0  0.952965  0  0  0.113867  0  1.013631  0  0  0.116446  0  1.014504  0  0  0.107195  0.111996  0  1.013242  0
H  H36  1  0.39568222  0.25525616  0.71297467  1  0  0.105532  0  0.953028  0  0  0.113931  0  1.013613  0  0  0.116499  0  1.014494  0  0  0.107231  0.112054  0  1.013227  0
H  H37  1  0.89568072  0.24473695  0.78703282  1  0  0.105539  0  0.953112  0  0  0.113932  0  1.0137  0  0  0.116493  0  1.014594  0  0  0.107222  0.11206  0  1.013315  0
H  H38  1  0.66381050  0.92630900  0.94039780  1  0  0.431194  0  0.810467  0  0  0.411075  0  0.870602  0  0  0.419466  0  0.860899  0  0  0.322993  0.405049  0  0.877638  0
H  H39  1  0.16380986  0.57369995  0.55959577  1  0  0.431338  0  0.810347  0  0  0.411191  0  0.870498  0  0  0.419585  0  0.860788  0  0  0.322966  0.405163  0  0.877533  0
H  H40  1  0.33626660  0.07355938  0.05970224  1  0  0.430667  0  0.811475  0  0  0.410285  0  0.87209  0  0  0.418662  0  0.8624  0  0  0.322314  0.40427  0  0.87911  0
H  H41  1  0.83627259  0.42645375  0.44028773  1  0  0.430482  0  0.811633  0  0  0.410079  0  0.872272  0  0  0.418451  0  0.862596  0  0  0.322184  0.404058  0  0.879305  0
H  H42  1  0.65107579  0.02801378  0.99985723  1  0  0.424051  0  0.83165  0  0  0.400589  0  0.899602  0  0  0.40957  0  0.888883  0  0  0.312819  0.394141  0  0.907352  0
H  H43  1  0.15091773  0.47202403  0.50012050  1  0  0.423934  0  0.831946  0  0  0.400463  0  0.899853  0  0  0.409445  0  0.88913  0  0  0.312681  0.394012  0  0.907612  0
H  H44  1  0.34737241  0.97158580  0.00036846  1  0  0.423641  0  0.832772  0  0  0.400187  0  0.900821  0  0  0.409146  0  0.890118  0  0  0.312122  0.393757  0  0.908564  0
H  H45  1  0.84721886  0.52845744  0.49960805  1  0  0.423445  0  0.83321  0  0  0.399952  0  0.901346  0  0  0.408916  0  0.890635  0  0  0.311949  0.393523  0  0.909075  0
C  C46  1  0.00913371  0.28645544  0.25694819  1  0  0.64086  0  3.955377  0  0  0.592093  0  4.25646  0  0  0.626669  0  4.247039  0  0  0.200856  0.568628  0  4.262171  0
C  C47  1  0.50913645  0.21354772  0.24305369  1  0  0.640888  0  3.955494  0  0  0.592169  0  4.256516  0  0  0.626747  0  4.247093  0  0  0.200784  0.568703  0  4.262231  0
C  C48  1  0.99089257  0.71352177  0.74304597  1  0  0.640653  0  3.956007  0  0  0.591891  0  4.257112  0  0  0.626474  0  4.247683  0  0  0.200953  0.568413  0  4.262829  0
C  C49  1  0.49088850  0.78647515  0.75695210  1  0  0.640595  0  3.955964  0  0  0.591883  0  4.257049  0  0  0.626469  0  4.247619  0  0  0.200903  0.568413  0  4.262762  0
C  C50  1  0.00858544  0.18538089  0.20082653  1  0  -0.010672  0  3.725754  0  0  -0.016559  0  3.976586  0  0  -0.01977  0  3.996206  0  0  0.082899  -0.014683  0  3.963602  0
C  C51  1  0.50860547  0.31461815  0.29917606  1  0  -0.010666  0  3.725678  0  0  -0.016568  0  3.976549  0  0  -0.019772  0  3.996154  0  0  0.08292  -0.014691  0  3.963563  0
C  C52  1  0.99142480  0.81460770  0.79915783  1  0  -0.011386  0  3.72618  0  0  -0.017523  0  3.97714  0  0  -0.020734  0  3.99676  0  0  0.082561  -0.015613  0  3.964134  0
C  C53  1  0.49141948  0.68538436  0.70084628  1  0  -0.010919  0  3.725626  0  0  -0.017137  0  3.976641  0  0  -0.020347  0  3.996257  0  0  0.082686  -0.015232  0  3.96364  0
C  C54  1  0.17198237  0.88395159  0.36680610  1  0  0.170738  0  3.771796  0  0  0.165284  0  4.01404  0  0  0.17188  0  4.035248  0  0  0.120579  0.160986  0  3.999558  0
C  C55  1  0.67197891  0.61605394  0.13319479  1  0  0.170727  0  3.771848  0  0  0.165377  0  4.013991  0  0  0.171971  0  4.035195  0  0  0.120575  0.161079  0  3.999512  0
C  C56  1  0.82802921  0.11605028  0.63318107  1  0  0.171186  0  3.771824  0  0  0.165538  0  4.014283  0  0  0.172134  0  4.035483  0  0  0.120624  0.161239  0  3.999813  0
C  C57  1  0.32802598  0.38394838  0.86681727  1  0  0.17085  0  3.771771  0  0  0.165398  0  4.014008  0  0  0.171993  0  4.035211  0  0  0.120565  0.161099  0  3.999533  0
C  C58  1  0.95863539  0.15917781  0.12756537  1  0  -0.018625  0  3.75127  0  0  -0.025644  0  4.000308  0  0  -0.027574  0  4.020264  0  0  0.078827  -0.024467  0  3.986957  0
C  C59  1  0.45864402  0.34082076  0.37243612  1  0  -0.018556  0  3.751275  0  0  -0.025621  0  4.000402  0  0  -0.027556  0  4.02036  0  0  0.078904  -0.024447  0  3.987053  0
C  C60  1  0.04141898  0.84086356  0.87241290  1  0  -0.018239  0  3.751252  0  0  -0.025029  0  3.999947  0  0  -0.026963  0  4.019901  0  0  0.079056  -0.023898  0  3.986642  0
C  C61  1  0.54142239  0.65912402  0.62759295  1  0  -0.018234  0  3.751121  0  0  -0.024972  0  3.999837  0  0  -0.026909  0  4.0198  0  0  0.079035  -0.023841  0  3.986526  0
C  C62  1  0.00844687  0.94491777  0.39452548  1  0  0.165942  0  3.768353  0  0  0.162907  0  4.006014  0  0  0.16837  0  4.027943  0  0  0.119944  0.159305  0  3.991077  0
C  C63  1  0.50844877  0.55509015  0.10547797  1  0  0.165924  0  3.768429  0  0  0.162786  0  4.006125  0  0  0.168251  0  4.028053  0  0  0.119938  0.159183  0  3.991194  0
C  C64  1  0.99155534  0.05508498  0.60546447  1  0  0.16551  0  3.768928  0  0  0.16259  0  4.006552  0  0  0.168057  0  4.028477  0  0  0.119825  0.158993  0  3.991619  0
C  C65  1  0.49155345  0.44491881  0.89453522  1  0  0.16567  0  3.768635  0  0  0.162697  0  4.006239  0  0  0.168164  0  4.028163  0  0  0.119843  0.159096  0  3.991303  0
C  C66  1  0.43656396  0.89044655  0.30077473  1  0  0.135017  0  3.692179  0  0  0.102672  0  3.944063  0  0  0.109395  0  3.961616  0  0  0.054766  0.098429  0  3.932068  0
C  C67  1  0.93655866  0.60955673  0.19922674  1  0  0.134953  0  3.69232  0  0  0.102628  0  3.944211  0  0  0.109354  0  3.961765  0  0  0.054754  0.098378  0  3.932219  0
C  C68  1  0.56345163  0.10955290  0.69921546  1  0  0.135002  0  3.692265  0  0  0.102727  0  3.944102  0  0  0.109446  0  3.961657  0  0  0.054715  0.098525  0  3.932132  0
C  C69  1  0.06345425  0.39044724  0.80078493  1  0  0.13518  0  3.692204  0  0  0.102836  0  3.944051  0  0  0.109527  0  3.961595  0  0  0.054805  0.098637  0  3.932074  0
C  C70  1  0.72645579  0.96351257  0.45736842  1  0  0.00574  0  3.70832  0  0  -0.016226  0  3.964689  0  0  -0.012757  0  3.982954  0  0  -0.064731  -0.018222  0  3.952186  0
C  C71  1  0.22646318  0.53649297  0.04263079  1  0  0.005963  0  3.708081  0  0  -0.015983  0  3.964431  0  0  -0.012516  0  3.98271  0  0  -0.064646  -0.01797  0  3.951906  0
C  C72  1  0.27356782  0.03648633  0.54263740  1  0  0.005746  0  3.708211  0  0  -0.016206  0  3.964649  0  0  -0.012754  0  3.982935  0  0  -0.064605  -0.01819  0  3.952131  0
C  C73  1  0.77356578  0.46350732  0.95736056  1  0  0.005856  0  3.708337  0  0  -0.01611  0  3.964786  0  0  -0.012641  0  3.983056  0  0  -0.064647  -0.018097  0  3.952269  0
C  C74  1  0.71443150  0.07154649  0.44194069  1  0  -0.119018  0  3.723071  0  0  -0.134119  0  3.978464  0  0  -0.14122  0  4.001053  0  0  -0.081619  -0.129545  0  3.963257  0
C  C75  1  0.21443069  0.42845761  0.05805834  1  0  -0.119118  0  3.723013  0  0  -0.134225  0  3.97843  0  0  -0.141326  0  4.001013  0  0  -0.081666  -0.129648  0  3.963222  0
C  C76  1  0.28559345  0.92845162  0.55806721  1  0  -0.119136  0  3.722898  0  0  -0.134246  0  3.978304  0  0  -0.141366  0  4.000872  0  0  -0.081624  -0.129665  0  3.963106  0
C  C77  1  0.78559426  0.57154264  0.94193085  1  0  -0.119107  0  3.723037  0  0  -0.134208  0  3.978463  0  0  -0.141339  0  4.001026  0  0  -0.081651  -0.129628  0  3.963261  0
C  C78  1  0.20890810  0.77561214  0.37859267  1  0  -0.146591  0  3.709118  0  0  -0.164597  0  3.952961  0  0  -0.172537  0  3.975096  0  0  -0.076933  -0.159417  0  3.93796  0
C  C79  1  0.70890775  0.72439182  0.12141182  1  0  -0.146722  0  3.709218  0  0  -0.164761  0  3.953075  0  0  -0.172694  0  3.975196  0  0  -0.076988  -0.15959  0  3.938077  0
C  C80  1  0.79112354  0.22439501  0.62141225  1  0  -0.14678  0  3.709443  0  0  -0.164744  0  3.95336  0  0  -0.172677  0  3.97549  0  0  -0.076962  -0.159583  0  3.938369  0
C  C81  1  0.29111720  0.27560291  0.87859200  1  0  -0.146862  0  3.709316  0  0  -0.164897  0  3.953201  0  0  -0.172827  0  3.975325  0  0  -0.077012  -0.159731  0  3.938213  0
C  C82  1  0.87434411  0.89901725  0.43341737  1  0  -0.127387  0  3.685463  0  0  -0.149314  0  3.936755  0  0  -0.155785  0  3.957462  0  0  -0.073862  -0.145038  0  3.922828  0
C  C83  1  0.37435421  0.60098595  0.06658255  1  0  -0.127371  0  3.685464  0  0  -0.149302  0  3.936759  0  0  -0.155769  0  3.957458  0  0  -0.07383  -0.145027  0  3.922833  0
C  C84  1  0.12567281  0.10097989  0.56658235  1  0  -0.127149  0  3.685694  0  0  -0.149101  0  3.93691  0  0  -0.155568  0  3.957615  0  0  -0.073805  -0.144832  0  3.922986  0
C  C85  1  0.62566940  0.39901781  0.93341776  1  0  -0.12727  0  3.685708  0  0  -0.14921  0  3.936915  0  0  -0.155678  0  3.95762  0  0  -0.073804  -0.144939  0  3.922993  0
C  C86  1  0.36558428  0.72483352  0.35009428  1  0  0.010335  0  3.704495  0  0  -0.007008  0  3.951218  0  0  -0.003019  0  3.969178  0  0  -0.061923  -0.00935  0  3.938915  0
C  C87  1  0.86557720  0.77517222  0.14990965  1  0  0.010494  0  3.704216  0  0  -0.006852  0  3.9509  0  0  -0.002842  0  3.96887  0  0  -0.06186  -0.009185  0  3.938589  0
C  C88  1  0.63445940  0.27517529  0.64991133  1  0  0.01022  0  3.704605  0  0  -0.007191  0  3.951366  0  0  -0.003197  0  3.969318  0  0  -0.061801  -0.009528  0  3.939054  0
C  C89  1  0.13444641  0.22482411  0.85009107  1  0  0.010352  0  3.704527  0  0  -0.007026  0  3.951246  0  0  -0.003023  0  3.969199  0  0  -0.061773  -0.009373  0  3.938954  0
C  C90  1  0.85277930  0.11153364  0.40279121  1  0  0.147333  0  3.689704  0  0  0.11624  0  3.939704  0  0  0.122213  0  3.958517  0  0  0.055308  0.112469  0  3.926846  0
C  C91  1  0.35278074  0.38846892  0.09720698  1  0  0.147243  0  3.689809  0  0  0.11613  0  3.939801  0  0  0.122105  0  3.958615  0  0  0.055202  0.112352  0  3.92695  0
C  C92  1  0.14720954  0.88845844  0.59720265  1  0  0.147326  0  3.689833  0  0  0.116286  0  3.939888  0  0  0.122264  0  3.958696  0  0  0.055187  0.112504  0  3.927039  0
C  C93  1  0.64722013  0.61153819  0.90279578  1  0  0.147167  0  3.690095  0  0  0.116114  0  3.940126  0  0  0.12209  0  3.958943  0  0  0.055176  0.112336  0  3.927278  0
C  C94  1  0.48105650  0.78257171  0.31001907  1  0  -0.117664  0  3.72551  0  0  -0.130264  0  3.976833  0  0  -0.137694  0  3.999146  0  0  -0.079357  -0.12552  0  3.961832  0
C  C95  1  0.98105831  0.71743244  0.18998297  1  0  -0.117739  0  3.725258  0  0  -0.130303  0  3.976581  0  0  -0.137735  0  3.998891  0  0  -0.079344  -0.125562  0  3.96158  0
C  C96  1  0.51896978  0.21743454  0.68998145  1  0  -0.117728  0  3.725248  0  0  -0.130289  0  3.976547  0  0  -0.13771  0  3.99887  0  0  -0.079418  -0.125533  0  3.961519  0
C  C97  1  0.01896531  0.28256642  0.81002068  1  0  -0.117735  0  3.725359  0  0  -0.130312  0  3.976634  0  0  -0.137731  0  3.998975  0  0  -0.079392  -0.125562  0  3.961618  0
C  C98  1  0.88194726  0.21690414  0.06926676  1  0  0.651005  0  3.91601  0  0  0.601018  0  4.211205  0  0  0.636342  0  4.200678  0  0  0.211538  0.576993  0  4.217713  0
C  C99  1  0.38196597  0.28309103  0.43073344  1  0  0.651109  0  3.916021  0  0  0.601117  0  4.211246  0  0  0.636441  0  4.200717  0  0  0.211505  0.577095  0  4.217757  0
C  C100  1  0.11820207  0.78321097  0.93072188  1  0  0.651159  0  3.916027  0  0  0.601374  0  4.210851  0  0  0.636692  0  4.200323  0  0  0.211881  0.57737  0  4.217369  0
C  C101  1  0.61821278  0.71677001  0.56928113  1  0  0.651541  0  3.915461  0  0  0.60167  0  4.210384  0  0  0.636986  0  4.199852  0  0  0.212047  0.577667  0  4.216903  0
N  N102  1  0.07728432  0.01042894  0.16390578  1  0  -0.036328  0  2.923493  0  0  -0.042924  0  3.209371  0  0  -0.037709  0  3.218999  0  0  -0.099686  -0.046312  0  3.202772  0
N  N103  1  0.57728326  0.48957183  0.33609797  1  0  -0.036211  0  2.923415  0  0  -0.042803  0  3.209285  0  0  -0.03759  0  3.218915  0  0  -0.099578  -0.046192  0  3.202686  0
N  N104  1  0.92274063  0.98957207  0.83603378  1  0  -0.036801  0  2.923913  0  0  -0.043564  0  3.209878  0  0  -0.038339  0  3.219507  0  0  -0.10003  -0.046965  0  3.203288  0
N  N105  1  0.42273902  0.51041824  0.66396810  1  0  -0.03664  0  2.924092  0  0  -0.043388  0  3.210031  0  0  -0.038164  0  3.21966  0  0  -0.100017  -0.046794  0  3.203436  0
N  N106  1  0.07925552  0.09134051  0.22006921  1  0  -0.247622  0  3.280364  0  0  -0.193141  0  3.580262  0  0  -0.204714  0  3.593361  0  0  -0.224881  -0.18505  0  3.571284  0
N  N107  1  0.57925460  0.40866436  0.27993220  1  0  -0.247686  0  3.28031  0  0  -0.193208  0  3.580238  0  0  -0.204782  0  3.593331  0  0  -0.224918  -0.185118  0  3.571257  0
N  N108  1  0.92075606  0.90863114  0.77989204  1  0  -0.246943  0  3.281051  0  0  -0.192212  0  3.580721  0  0  -0.203792  0  3.593838  0  0  -0.224601  -0.184118  0  3.57172  0
N  N109  1  0.42075162  0.59135837  0.72011139  1  0  -0.247294  0  3.280807  0  0  -0.192561  0  3.580539  0  0  -0.204141  0  3.59365  0  0  -0.224746  -0.184463  0  3.571534  0
N  N110  1  0.28640877  0.93955674  0.32887306  1  0  -0.32988  0  3.241237  0  0  -0.259416  0  3.505342  0  0  -0.27663  0  3.520473  0  0  -0.313505  -0.247841  0  3.494997  0
N  N111  1  0.78640485  0.56044970  0.17112778  1  0  -0.329852  0  3.241206  0  0  -0.259422  0  3.505274  0  0  -0.276638  0  3.520409  0  0  -0.31343  -0.24784  0  3.49492  0
N  N112  1  0.71358676  0.06043917  0.67110493  1  0  -0.329874  0  3.241022  0  0  -0.259368  0  3.505185  0  0  -0.276583  0  3.520314  0  0  -0.31342  -0.247781  0  3.494816  0
N  N113  1  0.21358667  0.43956187  0.82889320  1  0  -0.329761  0  3.240966  0  0  -0.259319  0  3.50509  0  0  -0.276537  0  3.520235  0  0  -0.313448  -0.247731  0  3.494714  0
N  N114  1  0.00328425  0.05091450  0.10778195  1  0  -0.298653  0  3.334759  0  0  -0.228141  0  3.627672  0  0  -0.244595  0  3.64284  0  0  -0.249165  -0.216737  0  3.617103  0
N  N115  1  0.50329869  0.44908044  0.39222244  1  0  -0.298699  0  3.334892  0  0  -0.228156  0  3.627834  0  0  -0.244609  0  3.643003  0  0  -0.249236  -0.21675  0  3.617267  0
N  N116  1  0.99677413  0.94913458  0.89216513  1  0  -0.298205  0  3.334353  0  0  -0.227749  0  3.627227  0  0  -0.244205  0  3.642402  0  0  -0.249019  -0.216331  0  3.61667  0
N  N117  1  0.49677708  0.55085501  0.60783875  1  0  -0.298406  0  3.334698  0  0  -0.227962  0  3.627585  0  0  -0.244416  0  3.642761  0  0  -0.248978  -0.216539  0  3.617016  0
N  N118  1  0.99545324  0.04987225  0.38011722  1  0  -0.337646  0  3.283051  0  0  -0.265997  0  3.541747  0  0  -0.283461  0  3.559012  0  0  -0.315112  -0.254248  0  3.529974  0
N  N119  1  0.49545205  0.45013458  0.11988227  1  0  -0.337598  0  3.283124  0  0  -0.265822  0  3.541717  0  0  -0.283287  0  3.558985  0  0  -0.315072  -0.254073  0  3.529944  0
N  N120  1  0.00453159  0.95012458  0.61986572  1  0  -0.337562  0  3.283302  0  0  -0.265964  0  3.542015  0  0  -0.283435  0  3.559284  0  0  -0.315044  -0.254208  0  3.530234  0
N  N121  1  0.50453680  0.54987856  0.88013399  1  0  -0.337479  0  3.283338  0  0  -0.265905  0  3.542068  0  0  -0.283379  0  3.559348  0  0  -0.315074  -0.254151  0  3.530285  0
O  O122  1  0.07664225  0.27517498  0.31849074  1  0  -0.624819  0  1.971601  0  0  -0.57553  0  2.215391  0  0  -0.600309  0  2.203651  0  0  -0.324959  -0.558257  0  2.222913  0
O  O123  1  0.57664413  0.22483234  0.18150982  1  0  -0.624912  0  1.971662  0  0  -0.575618  0  2.215435  0  0  -0.600398  0  2.203687  0  0  -0.32494  -0.558342  0  2.222956  0
O  O124  1  0.92339608  0.72478810  0.68149946  1  0  -0.6247  0  1.971691  0  0  -0.575417  0  2.215473  0  0  -0.600197  0  2.203743  0  0  -0.325006  -0.558143  0  2.222991  0
O  O125  1  0.42338081  0.77520381  0.81849932  1  0  -0.624769  0  1.971643  0  0  -0.57549  0  2.215413  0  0  -0.600273  0  2.203677  0  0  -0.32499  -0.558217  0  2.222935  0
O  O126  1  0.94611761  0.37639521  0.24074541  1  0  -0.627713  0  2.070813  0  0  -0.573095  0  2.334462  0  0  -0.598038  0  2.319568  0  0  -0.328178  -0.555653  0  2.34408  0
O  O127  1  0.44612101  0.12360741  0.25925214  1  0  -0.627661  0  2.070832  0  0  -0.573087  0  2.334486  0  0  -0.598018  0  2.319563  0  0  -0.328128  -0.555647  0  2.344107  0
O  O128  1  0.05389531  0.62358888  0.75926394  1  0  -0.627505  0  2.071219  0  0  -0.572852  0  2.334815  0  0  -0.597797  0  2.319918  0  0  -0.328173  -0.555409  0  2.344433  0
O  O129  1  0.55389057  0.87640429  0.74073051  1  0  -0.627451  0  2.071224  0  0  -0.572802  0  2.334816  0  0  -0.597741  0  2.319909  0  0  -0.328082  -0.555364  0  2.344435  0
O  O130  1  0.68550640  0.94978569  0.99242316  1  0  -0.790498  0  1.78464  0  0  -0.742406  0  1.958149  0  0  -0.760323  0  1.934892  0  0  -0.562969  -0.729738  0  1.974461  0
O  O131  1  0.18557962  0.55021264  0.50757592  1  0  -0.790317  0  1.785243  0  0  -0.742119  0  1.95887  0  0  -0.760035  0  1.935613  0  0  -0.56264  -0.72945  0  1.975186  0
O  O132  1  0.31537446  0.05021119  0.00760786  1  0  -0.79091  0  1.782243  0  0  -0.742812  0  1.955346  0  0  -0.760665  0  1.932162  0  0  -0.562895  -0.730178  0  1.971604  0
O  O133  1  0.81545905  0.44979461  0.49238904  1  0  -0.790625  0  1.782316  0  0  -0.742528  0  1.955516  0  0  -0.760384  0  1.932333  0  0  -0.562725  -0.729889  0  1.971774  0
O  O134  1  0.82444608  0.31532338  0.08309628  1  0  -0.601979  0  2.088917  0  0  -0.540408  0  2.353752  0  0  -0.565202  0  2.339114  0  0  -0.308764  -0.523123  0  2.363249  0
O  O135  1  0.32445655  0.18467502  0.41690212  1  0  -0.601981  0  2.088868  0  0  -0.540414  0  2.353713  0  0  -0.565209  0  2.339078  0  0  -0.308754  -0.523121  0  2.363188  0
O  O136  1  0.17554944  0.68475366  0.91693433  1  0  -0.601887  0  2.088063  0  0  -0.540626  0  2.352963  0  0  -0.565425  0  2.338341  0  0  -0.309025  -0.523307  0  2.362364  0
O  O137  1  0.67554834  0.81522974  0.58306234  1  0  -0.60212  0  2.087539  0  0  -0.54076  0  2.352377  0  0  -0.565608  0  2.337865  0  0  -0.309179  -0.523449  0  2.361783  0
O  O138  1  0.88266156  0.16160691  0.00473493  1  0  -0.633025  0  1.955817  0  0  -0.57512  0  2.202703  0  0  -0.601007  0  2.188149  0  0  -0.329393  -0.557016  0  2.212095  0
O  O139  1  0.38269869  0.33837347  0.49526989  1  0  -0.63309  0  1.956035  0  0  -0.575166  0  2.202934  0  0  -0.601054  0  2.188376  0  0  -0.329428  -0.557061  0  2.212327  0
O  O140  1  0.11773919  0.83862015  0.99522858  1  0  -0.633637  0  1.955688  0  0  -0.575758  0  2.202249  0  0  -0.601632  0  2.187671  0  0  -0.329482  -0.55767  0  2.211655  0
O  O141  1  0.61775822  0.66136580  0.50477433  1  0  -0.633781  0  1.955723  0  0  -0.57586  0  2.202281  0  0  -0.601727  0  2.187711  0  0  -0.329414  -0.557766  0  2.211679  0
