# generated using pymatgen
data_MnH10(C2O)8
_symmetry_space_group_name_H-M   'P 1'
_cell_length_a   5.79116268
_cell_length_b   7.37852196
_cell_length_c   18.54445999
_cell_angle_alpha   91.20359517
_cell_angle_beta   83.86047589
_cell_angle_gamma   83.41046474
_symmetry_Int_Tables_number   1
_chemical_formula_structural   MnH10(C2O)8
_chemical_formula_sum   'Mn2 H20 C32 O16'
_cell_volume   782.21473799
_cell_formula_units_Z   2
loop_
 _symmetry_equiv_pos_site_id
 _symmetry_equiv_pos_as_xyz
  1  'x, y, z'
loop_
 _atom_site_type_symbol
 _atom_site_label
 _atom_site_symmetry_multiplicity
 _atom_site_fract_x
 _atom_site_fract_y
 _atom_site_fract_z
 _atom_site_occupancy
 _atom_site_hle17_ddec_charge
 _atom_site_hle17_ddec_spin_density
 _atom_site_hle17_ddec_sum_bond_order
 _atom_site_hle17_magmom
 _atom_site_hse06_10hf_ddec_charge
 _atom_site_hse06_10hf_ddec_spin_density
 _atom_site_hse06_10hf_ddec_sum_bond_order
 _atom_site_hse06_10hf_magmom
 _atom_site_hse06_ddec_charge
 _atom_site_hse06_ddec_spin_density
 _atom_site_hse06_ddec_sum_bond_order
 _atom_site_hse06_magmom
 _atom_site_pbe_cm5_charge
 _atom_site_pbe_ddec_charge
 _atom_site_pbe_ddec_spin_density
 _atom_site_pbe_ddec_sum_bond_order
 _atom_site_pbe_magmom
Mn  Mn0  1  0.47130556  0.75310366  0.04339844  1  1.30924  4.80766  1.603267  4.698  1.150728  4.740038  2.096771  4.563  1.213844  4.777355  2.015376  4.62  0.611134  1.102112  4.700062  2.156452  4.505
Mn  Mn1  1  0.52869932  0.24692238  0.95660140  1  1.309235  4.807695  1.603414  4.698  1.150657  4.740079  2.096948  4.563  1.213776  4.777394  2.015544  4.62  0.61109  1.102034  4.7001  2.156636  4.505
H  H2  1  0.63237751  0.91437650  0.79867940  1  0.098772  -0.000229  0.962427  0.0  0.103231  -0.00021  1.034547  0.0  0.108115  -0.000249  1.030347  0.0  0.106804  0.099489  -0.000162  1.03797  0.0
H  H3  1  0.36762790  0.08561128  0.20131923  1  0.098788  -0.000224  0.962376  0.0  0.103285  -0.00021  1.034453  0.0  0.108155  -0.000249  1.030275  0.0  0.106819  0.099532  -0.000162  1.037875  0.0
H  H4  1  0.41562839  0.55462550  0.75102443  1  0.117699  -0.000148  0.927732  0.0  0.125047  -0.000145  0.989365  0.0  0.129589  -0.000152  0.985959  0.0  0.114072  0.121732  -0.000133  0.992004  0.0
H  H5  1  0.58438157  0.44536641  0.24897515  1  0.117661  -0.00016  0.927827  0.0  0.124983  -0.000145  0.989485  0.0  0.129524  -0.000152  0.986078  0.0  0.113999  0.121666  -0.000133  0.992126  0.0
H  H6  1  0.36992073  0.59973945  0.48538758  1  0.104192  3e-06  0.982983  0.0  0.10899  -3e-06  1.054158  0.0  0.113107  -1e-06  1.050454  0.0  0.104992  0.105982  -4e-06  1.056971  0.0
H  H7  1  0.63006614  0.40023209  0.51461478  1  0.104176  1e-06  0.983056  0.0  0.108966  -3e-06  1.054262  0.0  0.113084  -1e-06  1.050556  0.0  0.104994  0.10595  -4e-06  1.057081  0.0
H  H8  1  0.15012482  0.69854330  0.38388995  1  0.10123  -4e-06  0.923391  0.0  0.113487  -0.0  0.975635  0.0  0.116549  -1e-06  0.974454  0.0  0.108876  0.111128  2e-06  0.976757  0.0
H  H9  1  0.84987013  0.30142130  0.61610946  1  0.101189  -4e-06  0.92349  0.0  0.113413  -0.0  0.97577  0.0  0.116474  -1e-06  0.97459  0.0  0.108882  0.111062  2e-06  0.976891  0.0
H  H10  1  0.73774275  0.85143769  0.40840777  1  0.103386  1e-06  0.936077  0.0  0.113205  1e-06  0.994336  0.0  0.116694  1e-06  0.99214  0.0  0.106538  0.110619  4e-06  0.996096  0.0
H  H11  1  0.26225544  0.14854050  0.59158996  1  0.103438  -5e-06  0.936002  0.0  0.113251  2e-06  0.994269  0.0  0.116737  1e-06  0.992075  0.0  0.106561  0.110665  4e-06  0.996024  0.0
H  H12  1  0.56236958  0.91398245  0.53731760  1  0.093543  -6e-06  0.97578  0.0  0.101651  -2e-06  1.04348  0.0  0.104507  -1e-06  1.042017  0.0  0.105491  0.099606  -3e-06  1.044567  0.0
H  H13  1  0.43761648  0.08599574  0.46267995  1  0.093603  -4e-06  0.975723  0.0  0.101713  -2e-06  1.043431  0.0  0.10457  -1e-06  1.041965  0.0  0.105484  0.099663  -3e-06  1.044537  0.0
H  H14  1  0.72680204  0.02418832  0.08987934  1  0.427931  -0.000763  0.877929  0.0  0.390178  -0.000352  0.953362  0.001  0.401116  -0.000551  0.937852  0.001  0.297667  0.382493  -0.000151  0.964212  0.001
H  H15  1  0.27319954  0.97583637  0.91012114  1  0.428032  -0.000763  0.877836  0.0  0.390256  -0.000351  0.953251  0.001  0.401194  -0.000551  0.937743  0.001  0.297682  0.382575  -0.000151  0.964094  0.001
H  H16  1  0.70225516  0.89508283  0.15786336  1  0.426082  2e-06  0.808177  0.001  0.413413  0.000794  0.852719  0.001  0.420135  0.000459  0.846031  0.001  0.335203  0.408803  0.001119  0.857362  0.001
H  H17  1  0.29774731  0.10493634  0.84213545  1  0.426165  2e-06  0.808334  0.001  0.41355  0.000793  0.852776  0.001  0.420277  0.000459  0.846077  0.001  0.335244  0.408938  0.001119  0.857426  0.001
H  H18  1  0.00559961  0.73333473  0.08634226  1  0.437107  -0.000608  0.852979  0.001  0.407732  -0.000129  0.913586  0.002  0.417765  -0.000386  0.899116  0.001  0.299557  0.400549  0.000121  0.923892  0.002
H  H19  1  0.99440272  0.26669676  0.91365767  1  0.436947  -0.000608  0.853136  0.001  0.407575  -0.000129  0.913802  0.002  0.417607  -0.000386  0.899333  0.001  0.299475  0.400393  0.000121  0.924108  0.002
H  H20  1  0.14508300  0.53159138  0.07243765  1  0.423796  -8.4e-05  0.880455  0.001  0.389716  0.000879  0.949719  0.002  0.400571  0.000491  0.934133  0.001  0.293176  0.382018  0.001252  0.960705  0.002
H  H21  1  0.85492621  0.46844017  0.92756370  1  0.423776  -8.4e-05  0.880482  0.001  0.389672  0.000879  0.949795  0.002  0.400526  0.000491  0.934211  0.001  0.293155  0.381978  0.001253  0.960775  0.002
C  C22  1  0.80474298  0.83642442  0.78905176  1  -0.064398  -4e-06  3.685967  0.0  -0.097021  0.000907  3.936805  0.001  -0.097693  0.000315  3.954667  0.0  -0.07009  -0.096649  0.001557  3.925596  0.001
C  C23  1  0.19525846  0.16357837  0.21094703  1  -0.064675  -5.8e-05  3.686032  0.0  -0.097318  0.000905  3.936851  0.001  -0.097989  0.000319  3.954717  0.0  -0.070199  -0.096932  0.001557  3.925629  0.001
C  C24  1  0.92816983  0.78296839  0.84699202  1  -0.050631  0.001128  3.705034  0.002  -0.038919  0.002055  3.944998  0.002  -0.041414  0.001225  3.961313  0.002  -0.000102  -0.038309  0.003423  3.93561  0.003
C  C25  1  0.07183404  0.21705345  0.15300514  1  -0.050356  0.001168  3.704791  0.002  -0.038635  0.002056  3.944859  0.002  -0.041119  0.001225  3.961182  0.002  -2.6e-05  -0.038031  0.003423  3.935473  0.003
C  C26  1  0.15082123  0.68124914  0.83338565  1  -0.058428  0.001438  3.713301  0.002  -0.046387  0.002221  3.955314  0.002  -0.049528  0.001202  3.971899  0.002  -0.001155  -0.045208  0.003544  3.945609  0.003
C  C27  1  0.84918994  0.31878102  0.16661509  1  -0.058545  0.001383  3.713586  0.002  -0.046488  0.002221  3.955518  0.002  -0.049636  0.001195  3.972107  0.002  -0.001173  -0.045303  0.003543  3.945812  0.003
C  C28  1  0.24393363  0.63349673  0.76222274  1  -0.059975  0.00087  3.671455  0.001  -0.096242  0.001546  3.926651  0.001  -0.095986  0.001107  3.943495  0.001  -0.066823  -0.096372  0.002071  3.915647  0.002
C  C29  1  0.75607292  0.36650614  0.23777806  1  -0.059951  0.000938  3.671804  0.001  -0.096142  0.001541  3.926973  0.001  -0.095885  0.001117  3.943824  0.001  -0.066752  -0.09628  0.002071  3.915977  0.002
C  C30  1  0.12030733  0.68803205  0.70402213  1  -0.031959  -0.00013  3.734117  0.0  -0.02301  0.00062  3.971338  0.0  -0.027193  0.00017  3.993716  0.0  -0.005739  -0.019946  0.001359  3.956022  0.001
C  C31  1  0.87969077  0.31195843  0.29597564  1  -0.031969  -0.000194  3.73423  0.0  -0.023101  0.000624  3.971586  0.0  -0.02732  0.000162  3.993949  0.0  -0.005736  -0.020043  0.001359  3.956277  0.001
C  C32  1  0.22782786  0.63878451  0.62875567  1  0.382122  1.6e-05  3.754388  0.0  0.361679  0.00013  4.017714  0.0  0.383428  2.5e-05  4.020582  0.0  0.160057  0.346468  0.000441  4.016133  0.0
C  C33  1  0.77215899  0.36118823  0.37124238  1  0.382411  2.6e-05  3.754352  0.0  0.361875  0.000132  4.017845  0.0  0.383722  2.5e-05  4.02056  0.0  0.16011  0.346671  0.000441  4.016267  0.0
C  C34  1  0.09466291  0.70448045  0.56862647  1  -0.059532  6.6e-05  3.760077  0.0  -0.048018  6.4e-05  3.993801  0.0  -0.054382  4e-05  4.019693  0.0  -0.012305  -0.043672  0.000185  3.976333  0.0
C  C35  1  0.90531936  0.29548700  0.43137602  1  -0.059628  4e-05  3.76009  0.0  -0.048015  6.9e-05  3.993719  0.0  -0.054409  3.3e-05  4.019593  0.0  -0.012229  -0.04367  0.000185  3.976251  0.0
C  C36  1  0.19416923  0.67068711  0.49672476  1  -0.052879  -9.3e-05  3.688008  0.0  -0.080491  3e-06  3.944386  0.0  -0.081575  -4.8e-05  3.965466  0.0  -0.072235  -0.07956  4e-05  3.92988  0.0
C  C37  1  0.80581700  0.32928855  0.50327817  1  -0.052889  -4.1e-05  3.688193  0.0  -0.080491  -4e-06  3.944471  0.0  -0.081588  -3.6e-05  3.96557  0.0  -0.072242  -0.07955  4e-05  3.929963  0.0
C  C38  1  0.06832522  0.72538035  0.43940898  1  -0.038469  7.5e-05  3.701795  0.0  -0.054865  8.6e-05  3.958442  0.0  -0.057022  4.4e-05  3.979859  0.0  -0.072383  -0.053305  0.000243  3.943723  0.0
C  C39  1  0.93166910  0.27458837  0.56059100  1  -0.038284  4.3e-05  3.701714  0.0  -0.054644  8.7e-05  3.958391  0.0  -0.056798  4e-05  3.979806  0.0  -0.072358  -0.053095  0.000243  3.94368  0.0
C  C40  1  0.83886764  0.81162097  0.45314306  1  -0.046644  -7.4e-05  3.704731  0.0  -0.062711  1.4e-05  3.961866  0.0  -0.064725  -1.7e-05  3.982884  0.0  -0.073237  -0.061178  3.1e-05  3.94745  0.0
C  C41  1  0.16112697  0.18835732  0.54685747  1  -0.04681  -1.3e-05  3.704724  0.0  -0.062878  1.5e-05  3.961918  0.0  -0.064892  -1.7e-05  3.982934  0.0  -0.073326  -0.061342  3.1e-05  3.947501  0.0
C  C42  1  0.73983013  0.84711345  0.52453235  1  -0.052282  6.3e-05  3.702064  0.0  -0.078501  6.6e-05  3.956126  0.0  -0.079648  1.7e-05  3.977632  0.0  -0.072191  -0.077657  0.000226  3.941388  0.0
C  C43  1  0.26015590  0.15286357  0.47547060  1  -0.052303  3.3e-05  3.702357  0.0  -0.078545  6.3e-05  3.956431  0.0  -0.079691  2.4e-05  3.97793  0.0  -0.072227  -0.077701  0.000226  3.941698  0.0
C  C44  1  0.86645834  0.79756363  0.58259372  1  -0.048827  -4e-05  3.75452  0.0  -0.038361  4e-06  3.986189  0.0  -0.044483  -1e-06  4.011817  0.0  -0.010073  -0.034057  -7e-06  3.96882  0.0
C  C45  1  0.13353135  0.20241204  0.41740965  1  -0.048865  -1e-05  3.754632  0.0  -0.038369  7e-06  3.986246  0.0  -0.044491  -9e-06  4.011885  0.0  -0.01  -0.034062  -7e-06  3.968878  0.0
C  C46  1  0.75961956  0.84907290  0.65739494  1  0.383897  -1.5e-05  3.75135  0.0  0.366263  0.000265  4.012253  0.0  0.388058  -2.6e-05  4.015034  0.0  0.158573  0.351079  0.000939  4.010711  0.0
C  C47  1  0.24037768  0.15091087  0.34260607  1  0.383874  -3.6e-05  3.751242  0.0  0.366214  0.000265  4.012142  0.0  0.388007  -2.6e-05  4.014925  0.0  0.158569  0.351019  0.000939  4.01062  0.0
C  C48  1  0.89792614  0.78981117  0.71758611  1  -0.036756  0.001  3.740414  0.001  -0.027985  0.001732  3.974637  0.001  -0.032335  0.001182  3.997545  0.001  -0.007293  -0.025053  0.002968  3.959159  0.002
C  C49  1  0.10207132  0.21018342  0.28241224  1  -0.036663  0.001031  3.7404  0.001  -0.027815  0.001734  3.974584  0.001  -0.032156  0.001178  3.997484  0.001  -0.00725  -0.024883  0.002968  3.959108  0.002
C  C50  1  0.80957787  0.82313021  0.92250965  1  0.68981  0.007344  3.872503  0.008  0.630501  0.012551  4.172302  0.012  0.666641  0.009713  4.163551  0.01  0.22947  0.605628  0.015465  4.177292  0.014
C  C51  1  0.19044115  0.17689440  0.07748868  1  0.689785  0.00734  3.872235  0.008  0.630334  0.012552  4.172287  0.012  0.666448  0.009714  4.163574  0.01  0.229363  0.605456  0.015465  4.177278  0.014
C  C52  1  0.29128539  0.63176955  0.89514430  1  0.686293  0.005445  3.872203  0.006  0.628436  0.010565  4.173319  0.01  0.664309  0.007912  4.164735  0.008  0.231672  0.603637  0.01332  4.178382  0.012
C  C53  1  0.70873494  0.36825663  0.10485939  1  0.686498  0.005444  3.872233  0.006  0.628743  0.010562  4.173186  0.01  0.664617  0.007909  4.164595  0.008  0.231825  0.603931  0.013316  4.178269  0.012
O  O54  1  0.56555781  0.94102811  0.66990585  1  -0.459971  0.000322  1.887844  0.0  -0.422149  0.000748  2.087047  0.001  -0.438  0.000481  2.083174  0.001  -0.265919  -0.411764  0.001681  2.0901  0.002
O  O55  1  0.43445545  0.05896514  0.33009309  1  -0.459986  0.000349  1.887762  0.0  -0.422171  0.000746  2.086987  0.001  -0.438022  0.000487  2.083115  0.001  -0.265959  -0.411779  0.001681  2.090044  0.002
O  O56  1  0.42027040  0.54467055  0.61758019  1  -0.447134  5.7e-05  1.932139  0.0  -0.404582  0.000316  2.141197  0.0  -0.421607  0.000125  2.138649  0.0  -0.248232  -0.393014  0.000946  2.143133  0.001
O  O57  1  0.57972047  0.45529816  0.38241935  1  -0.447263  3.8e-05  1.932237  0.0  -0.404712  0.000314  2.1414  0.0  -0.421773  0.000125  2.138805  0.0  -0.248287  -0.393133  0.000946  2.143313  0.001
O  O58  1  0.72041236  0.98373139  0.94024844  1  -0.651076  0.034299  2.090119  0.019  -0.583964  0.044801  2.368219  0.027  -0.615326  0.040046  2.352265  0.023  -0.297206  -0.560524  0.049308  2.378304  0.031
O  O59  1  0.27960304  0.01629573  0.05974408  1  -0.650973  0.034298  2.089845  0.019  -0.583933  0.044804  2.368157  0.027  -0.615271  0.040047  2.35218  0.023  -0.297182  -0.560498  0.049313  2.378249  0.031
O  O60  1  0.79248858  0.68746699  0.96382498  1  -0.652253  0.027436  2.043663  0.018  -0.579192  0.03406  2.289891  0.022  -0.61076  0.029945  2.277072  0.019  -0.287723  -0.556109  0.038008  2.297902  0.026
O  O61  1  0.20752881  0.31255634  0.03617555  1  -0.652338  0.027446  2.043742  0.018  -0.579148  0.034062  2.28994  0.022  -0.610712  0.02995  2.277131  0.019  -0.287713  -0.556054  0.038011  2.297948  0.026
O  O62  1  0.31109830  0.76350550  0.93943841  1  -0.671525  0.028152  2.112465  0.018  -0.597396  0.034732  2.365187  0.022  -0.629909  0.030972  2.353576  0.019  -0.289952  -0.57364  0.038244  2.372567  0.025
O  O63  1  0.68890506  0.23653017  0.06056366  1  -0.671573  0.028153  2.112323  0.018  -0.597512  0.034735  2.365086  0.022  -0.630018  0.030973  2.353453  0.019  -0.289984  -0.573758  0.038247  2.372476  0.025
O  O64  1  0.37998269  0.46888638  0.89826531  1  -0.626017  0.031022  2.054121  0.018  -0.561518  0.039855  2.325007  0.023  -0.592071  0.035306  2.308942  0.019  -0.293499  -0.538742  0.044127  2.335261  0.027
O  O65  1  0.62001943  0.53113428  0.10173675  1  -0.626151  0.031021  2.054112  0.018  -0.561771  0.039862  2.325023  0.023  -0.592327  0.035314  2.308953  0.019  -0.29365  -0.538963  0.044134  2.335221  0.027
O  O66  1  0.72959072  0.89348897  0.10512744  1  -0.819984  0.022456  1.929191  0.013  -0.762653  0.030446  2.134028  0.019  -0.784842  0.027179  2.104352  0.016  -0.537228  -0.746248  0.033515  2.154231  0.021
O  O67  1  0.27041265  0.10653568  0.89487190  1  -0.820152  0.022455  1.929298  0.013  -0.762877  0.030446  2.134117  0.019  -0.785085  0.02718  2.104468  0.016  -0.537264  -0.746468  0.033516  2.154326  0.021
O  O68  1  0.15428788  0.65745158  0.09154504  1  -0.856375  0.033319  1.895745  0.024  -0.800207  0.041311  2.102294  0.028  -0.825833  0.036089  2.066589  0.024  -0.579835  -0.780266  0.046232  2.126941  0.033
O  O69  1  0.84571456  0.34257863  0.90845704  1  -0.85619  0.03332  1.895817  0.024  -0.800007  0.041311  2.102419  0.028  -0.825629  0.03609  2.066721  0.024  -0.579759  -0.78006  0.046232  2.127059  0.033
