# generated using pymatgen
data_YbAgH8C14(NO4)2
_symmetry_space_group_name_H-M   'P 1'
_cell_length_a   9.37238493
_cell_length_b   11.97161009
_cell_length_c   16.46507560
_cell_angle_alpha   97.06352401
_cell_angle_beta   89.99679651
_cell_angle_gamma   113.02452189
_symmetry_Int_Tables_number   1
_chemical_formula_structural   YbAgH8C14(NO4)2
_chemical_formula_sum   'Yb4 Ag4 H32 C56 N8 O32'
_cell_volume   1685.01309881
_cell_formula_units_Z   4
loop_
 _symmetry_equiv_pos_site_id
 _symmetry_equiv_pos_as_xyz
  1  'x, y, z'
loop_
 _atom_site_type_symbol
 _atom_site_label
 _atom_site_symmetry_multiplicity
 _atom_site_fract_x
 _atom_site_fract_y
 _atom_site_fract_z
 _atom_site_occupancy
 _atom_site_hle17_bader_spin_density
 _atom_site_hle17_ddec_charge
 _atom_site_hle17_ddec_spin_density
 _atom_site_hle17_ddec_sum_bond_order
 _atom_site_hle17_magmom
 _atom_site_hse06_10hf_bader_spin_density
 _atom_site_hse06_10hf_ddec_charge
 _atom_site_hse06_10hf_ddec_spin_density
 _atom_site_hse06_10hf_ddec_sum_bond_order
 _atom_site_hse06_10hf_magmom
 _atom_site_hse06_bader_spin_density
 _atom_site_hse06_ddec_charge
 _atom_site_hse06_ddec_spin_density
 _atom_site_hse06_ddec_sum_bond_order
 _atom_site_hse06_magmom
 _atom_site_pbe_bader_spin_density
 _atom_site_pbe_cm5_charge
 _atom_site_pbe_ddec_charge
 _atom_site_pbe_ddec_spin_density
 _atom_site_pbe_ddec_sum_bond_order
 _atom_site_pbe_magmom
Ag  Ag0  1  0.78181849  0.32455040  0.58396801  1  0  0.528249  0  1.379953  0  0  0.365939  0  1.79993  0  0  0.39907  0  1.755402  0  0  0.48469  0.344199  0  1.830194  0
Ag  Ag1  1  0.45773641  0.67533851  0.91601436  1  0  0.527382  0  1.382135  0  0  0.365816  0  1.802072  0  0  0.398854  0  1.757585  0  0  0.484979  0.344134  0  1.832314  0
Ag  Ag2  1  0.21818112  0.67545149  0.41603400  1  0  0.528313  0  1.380018  0  0  0.365986  0  1.800031  0  0  0.399113  0  1.755501  0  0  0.484741  0.344249  0  1.830287  0
Ag  Ag3  1  0.54225798  0.32465507  0.08398210  1  0  0.527393  0  1.382172  0  0  0.3658  0  1.802142  0  0  0.398838  0  1.757656  0  0  0.484971  0.344112  0  1.832376  0
C  C4  1  0.21031545  0.36702890  0.53787346  1  0  -0.11464  0  3.7461  0  0  -0.087298  0  3.976306  0  0  -0.099516  0  3.99841  0  0  -0.011774  -0.079182  0  3.960111  0
C  C5  1  0.84312826  0.63304028  0.96234841  1  0  -0.114135  0  3.743994  0  0  -0.087961  0  3.976156  0  0  -0.100139  0  3.998194  0  0  -0.012071  -0.07989  0  3.960043  0
C  C6  1  0.78968633  0.63297094  0.46212732  1  0  -0.11455  0  3.746146  0  0  -0.087191  0  3.976298  0  0  -0.099411  0  3.998408  0  0  -0.011757  -0.079074  0  3.9601  0
C  C7  1  0.15687155  0.36695774  0.03765236  1  0  -0.114012  0  3.743814  0  0  -0.08794  0  3.976126  0  0  -0.10012  0  3.998162  0  0  -0.012011  -0.079866  0  3.960009  0
C  C8  1  0.27017245  0.12818776  0.31540732  1  0  -0.010733  0  3.685101  0  0  0.007535  0  3.914765  0  0  0.00606  0  3.931864  0  0  0.006849  0.00882  0  3.901934  0
C  C9  1  0.14254862  0.87234422  0.18472197  1  0  -0.010002  0  3.683064  0  0  0.00816  0  3.912534  0  0  0.00671  0  3.929669  0  0  0.006568  0.009427  0  3.899682  0
C  C10  1  0.72982744  0.87181470  0.68459286  1  0  -0.010661  0  3.684977  0  0  0.007555  0  3.914769  0  0  0.006078  0  3.931868  0  0  0.006871  0.008841  0  3.901937  0
C  C11  1  0.85745042  0.12765653  0.81527881  1  0  -0.010083  0  3.682982  0  0  0.008073  0  3.912455  0  0  0.006615  0  3.929588  0  0  0.006538  0.009346  0  3.899602  0
C  C12  1  0.17343255  0.05213918  0.37786334  1  0  0.711679  0  3.871486  0  0  0.663465  0  4.167641  0  0  0.700018  0  4.160287  0  0  0.226335  0.6393  0  4.175257  0
C  C13  1  0.12154123  0.94819366  0.12220574  1  0  0.710298  0  3.870112  0  0  0.664402  0  4.164046  0  0  0.700846  0  4.156813  0  0  0.227404  0.640295  0  4.171587  0
C  C14  1  0.82657022  0.94786690  0.62213686  1  0  0.711682  0  3.871459  0  0  0.663383  0  4.167798  0  0  0.699941  0  4.160434  0  0  0.226286  0.639218  0  4.175414  0
C  C15  1  0.87845940  0.05181027  0.87779751  1  0  0.710244  0  3.870119  0  0  0.664368  0  4.164023  0  0  0.700835  0  4.156749  0  0  0.227312  0.640242  0  4.171592  0
C  C16  1  0.41959895  0.13458895  0.29938843  1  0  -0.115214  0  3.701674  0  0  -0.136001  0  3.950327  0  0  -0.14086  0  3.970823  0  0  -0.072561  -0.132655  0  3.936079  0
C  C17  1  0.28555297  0.86586927  0.20067832  1  0  -0.115378  0  3.6995  0  0  -0.136444  0  3.948325  0  0  -0.141301  0  3.968799  0  0  -0.073079  -0.133124  0  3.93413  0
C  C18  1  0.58040060  0.86541282  0.70061297  1  0  -0.115258  0  3.701756  0  0  -0.136016  0  3.950425  0  0  -0.140879  0  3.970924  0  0  -0.072572  -0.132668  0  3.93618  0
C  C19  1  0.71444449  0.13413046  0.79932185  1  0  -0.115264  0  3.699588  0  0  -0.136337  0  3.948398  0  0  -0.141194  0  3.968874  0  0  -0.07303  -0.133017  0  3.9342  0
C  C20  1  0.11241592  0.23180727  0.52521806  1  0  0.710493  0  3.900059  0  0  0.660146  0  4.197795  0  0  0.696631  0  4.192669  0  0  0.226643  0.636078  0  4.204119  0
C  C21  1  0.88068924  0.76832894  0.97496059  1  0  0.708693  0  3.900613  0  0  0.659755  0  4.19846  0  0  0.696197  0  4.193401  0  0  0.226846  0.63569  0  4.20477  0
C  C22  1  0.88758882  0.76818996  0.47478331  1  0  0.710339  0  3.900257  0  0  0.660005  0  4.197952  0  0  0.696489  0  4.192829  0  0  0.22661  0.63594  0  4.204276  0
C  C23  1  0.11931125  0.23167045  0.02504264  1  0  0.708792  0  3.900353  0  0  0.659818  0  4.19831  0  0  0.696257  0  4.193253  0  0  0.226844  0.635754  0  4.204617  0
C  C24  1  0.17107736  0.44433503  0.49398107  1  0  0.094514  0  3.704368  0  0  0.054388  0  3.94559  0  0  0.063108  0  3.962867  0  0  0.048236  0.048643  0  3.93389  0
C  C25  1  0.72646955  0.55583497  0.00621945  1  0  0.09321  0  3.70449  0  0  0.053406  0  3.946058  0  0  0.062256  0  3.963092  0  0  0.048262  0.04766  0  3.934456  0
C  C26  1  0.82892324  0.55566458  0.50601848  1  0  0.094438  0  3.704368  0  0  0.054314  0  3.94561  0  0  0.063041  0  3.962875  0  0  0.048203  0.048569  0  3.933915  0
C  C27  1  0.27353273  0.44416373  0.99378010  1  0  0.093162  0  3.704432  0  0  0.053373  0  3.946035  0  0  0.062242  0  3.963064  0  0  0.048219  0.047619  0  3.93444  0
C  C28  1  0.38431680  0.61398477  0.55188952  1  0  0.137941  0  3.656669  0  0  0.104091  0  3.900676  0  0  0.112909  0  3.918664  0  0  0.053354  0.098479  0  3.888248  0
C  C29  1  0.76982975  0.38603012  0.94823310  1  0  0.137307  0  3.656342  0  0  0.104026  0  3.899558  0  0  0.112787  0  3.917608  0  0  0.053111  0.098451  0  3.887087  0
C  C30  1  0.61568106  0.38601575  0.44811004  1  0  0.137928  0  3.656733  0  0  0.104095  0  3.900735  0  0  0.112913  0  3.918725  0  0  0.053316  0.098488  0  3.888291  0
C  C31  1  0.23016810  0.61396823  0.05176461  1  0  0.13721  0  3.656418  0  0  0.103939  0  3.899634  0  0  0.1127  0  3.917687  0  0  0.053081  0.098364  0  3.887166  0
C  C32  1  0.42983001  0.54291527  0.59861769  1  0  -0.120255  0  3.744205  0  0  -0.13038  0  3.994073  0  0  -0.139491  0  4.018434  0  0  -0.081678  -0.124646  0  3.977781  0
C  C33  1  0.88647616  0.45700408  0.90151939  1  0  -0.121047  0  3.744767  0  0  -0.130683  0  3.994564  0  0  -0.139844  0  4.018923  0  0  -0.082281  -0.124918  0  3.978256  0
C  C34  1  0.57017262  0.45708627  0.40138248  1  0  -0.120252  0  3.744225  0  0  -0.130393  0  3.994093  0  0  -0.139504  0  4.018456  0  0  -0.081703  -0.124658  0  3.977792  0
C  C35  1  0.11352545  0.54299541  0.09847954  1  0  -0.120971  0  3.744634  0  0  -0.130617  0  3.994421  0  0  -0.139781  0  4.018788  0  0  -0.082248  -0.124851  0  3.978107  0
C  C36  1  0.34380071  0.41694251  0.59045101  1  0  -0.008183  0  3.66796  0  0  -0.035006  0  3.908446  0  0  -0.029106  0  3.924007  0  0  -0.053078  -0.038355  0  3.897238  0
C  C37  1  0.92649400  0.58299454  0.90969115  1  0  -0.007275  0  3.667209  0  0  -0.034086  0  3.907574  0  0  -0.02823  0  3.923179  0  0  -0.052148  -0.037406  0  3.896367  0
C  C38  1  0.65620242  0.58305790  0.40954793  1  0  -0.008212  0  3.667929  0  0  -0.035033  0  3.908382  0  0  -0.029137  0  3.923949  0  0  -0.053077  -0.038386  0  3.897182  0
C  C39  1  0.07350514  0.41700428  0.09030901  1  0  -0.007346  0  3.667192  0  0  -0.034098  0  3.907568  0  0  -0.028239  0  3.92317  0  0  -0.052149  -0.037414  0  3.896346  0
C  C40  1  0.29704092  0.25833380  0.21134234  1  0  0.117798  0  3.702101  0  0  0.088485  0  3.944969  0  0  0.0952  0  3.963157  0  0  0.044252  0.084086  0  3.932379  0
C  C41  1  0.03942010  0.74217289  0.28879081  1  0  0.118797  0  3.701547  0  0  0.089329  0  3.944448  0  0  0.096072  0  3.962596  0  0  0.045087  0.084898  0  3.931886  0
C  C42  1  0.70296103  0.74166638  0.78865538  1  0  0.117804  0  3.702251  0  0  0.088503  0  3.945108  0  0  0.095215  0  3.963284  0  0  0.044267  0.084106  0  3.932514  0
C  C43  1  0.96058006  0.25782797  0.71121059  1  0  0.11884  0  3.701411  0  0  0.089375  0  3.944332  0  0  0.096121  0  3.96248  0  0  0.045092  0.084914  0  3.931771  0
C  C44  1  0.53465678  0.06989331  0.51127951  1  0  0.55925  0  3.949936  0  0  0.510569  0  4.253693  0  0  0.540961  0  4.252944  0  0  0.198958  0.489211  0  4.26111  0
C  C45  1  0.46483462  0.93007941  0.98869542  1  0  0.559054  0  3.949113  0  0  0.511722  0  4.252263  0  0  0.542122  0  4.251449  0  0  0.199533  0.490381  0  4.259682  0
C  C46  1  0.46534919  0.93011277  0.48872069  1  0  0.559084  0  3.950102  0  0  0.510419  0  4.253837  0  0  0.540816  0  4.253088  0  0  0.198849  0.489063  0  4.261253  0
C  C47  1  0.53516196  0.06991214  0.01130470  1  0  0.558861  0  3.949064  0  0  0.511409  0  4.252394  0  0  0.541777  0  4.251625  0  0  0.199404  0.490066  0  4.259814  0
C  C48  1  0.49892253  0.19929278  0.23745029  1  0  0.114443  0  3.665604  0  0  0.084196  0  3.910038  0  0  0.089999  0  3.928746  0  0  0.04623  0.080388  0  3.897139  0
C  C49  1  0.30022348  0.80109685  0.26257608  1  0  0.11498  0  3.666667  0  0  0.085264  0  3.911246  0  0  0.091167  0  3.929977  0  0  0.046362  0.081396  0  3.898303  0
C  C50  1  0.50107762  0.80070592  0.76254926  1  0  0.114432  0  3.665666  0  0  0.084205  0  3.910072  0  0  0.090006  0  3.928784  0  0  0.046229  0.080395  0  3.89718  0
C  C51  1  0.69977475  0.19890015  0.73742406  1  0  0.114911  0  3.666853  0  0  0.085227  0  3.911411  0  0  0.091126  0  3.930153  0  0  0.046339  0.081358  0  3.898465  0
C  C52  1  0.20978361  0.19384154  0.27117353  1  0  -0.10406  0  3.670744  0  0  -0.124196  0  3.911003  0  0  -0.128341  0  3.928914  0  0  -0.069814  -0.12128  0  3.898196  0
C  C53  1  0.01662924  0.80673266  0.22900106  1  0  -0.106051  0  3.670613  0  0  -0.125166  0  3.910873  0  0  -0.129337  0  3.9288  0  0  -0.070803  -0.122239  0  3.898077  0
C  C54  1  0.79021780  0.80616182  0.72882665  1  0  -0.104042  0  3.670891  0  0  -0.124136  0  3.911159  0  0  -0.128284  0  3.929077  0  0  -0.06981  -0.121219  0  3.898349  0
C  C55  1  0.98336991  0.19326832  0.77100095  1  0  -0.105898  0  3.670562  0  0  -0.125033  0  3.910837  0  0  -0.129206  0  3.928767  0  0  -0.070776  -0.12211  0  3.898052  0
C  C56  1  0.20798309  0.92909589  0.74412544  1  0  0.546538  0  3.964629  0  0  0.502466  0  4.275749  0  0  0.531883  0  4.275754  0  0  0.19932  0.482095  0  4.282317  0
C  C57  1  0.27890755  0.07054557  0.75574337  1  0  0.547623  0  3.963687  0  0  0.503466  0  4.274974  0  0  0.532879  0  4.274987  0  0  0.200435  0.483093  0  4.28154  0
C  C58  1  0.79201551  0.07090610  0.25587229  1  0  0.546736  0  3.964385  0  0  0.502555  0  4.27569  0  0  0.531973  0  4.275693  0  0  0.199389  0.482182  0  4.282261  0
C  C59  1  0.72109073  0.92946006  0.24425438  1  0  0.547445  0  3.9639  0  0  0.503323  0  4.275174  0  0  0.532733  0  4.275191  0  0  0.200245  0.482951  0  4.281739  0
H  H60  1  0.47283803  0.08766268  0.33393208  1  0  0.123039  0  0.939483  0  0  0.131824  0  1.000531  0  0  0.134854  0  0.999792  0  0  0.117243  0.129673  0  1.000998  0
H  H61  1  0.38569367  0.91276230  0.16614056  1  0  0.122321  0  0.940323  0  0  0.131493  0  1.001124  0  0  0.134501  0  1.000407  0  0  0.1175  0.12936  0  1.00159  0
H  H62  1  0.52715893  0.91233819  0.66606932  1  0  0.123063  0  0.939446  0  0  0.131843  0  1.0005  0  0  0.134875  0  0.99976  0  0  0.117262  0.129691  0  1.000965  0
H  H63  1  0.61430642  0.08723628  0.83385837  1  0  0.12229  0  0.940392  0  0  0.131453  0  1.001215  0  0  0.134462  0  1.000497  0  0  0.117482  0.129319  0  1.001682  0
H  H64  1  0.06843810  0.40645646  0.45211102  1  0  0.094999  0  0.929786  0  0  0.103218  0  0.993849  0  0  0.106963  0  0.989222  0  0  0.123204  0.100574  0  0.99698  0
H  H65  1  0.66171524  0.59377824  0.04809520  1  0  0.095254  0  0.930265  0  0  0.1039  0  0.99374  0  0  0.10752  0  0.989311  0  0  0.123191  0.101301  0  0.996768  0
H  H66  1  0.93156137  0.59354088  0.54789097  1  0  0.095004  0  0.92975  0  0  0.103214  0  0.993825  0  0  0.106958  0  0.989198  0  0  0.123183  0.100574  0  0.996946  0
H  H67  1  0.33828361  0.40621785  0.95190495  1  0  0.095241  0  0.930261  0  0  0.103895  0  0.993741  0  0  0.107506  0  0.989317  0  0  0.123186  0.101303  0  0.996766  0
H  H68  1  0.44967284  0.71232259  0.55483696  1  0  0.097692  0  0.938347  0  0  0.105674  0  1.001245  0  0  0.1083  0  0.998745  0  0  0.122637  0.10384  0  1.002785  0
H  H69  1  0.73676606  0.28767872  0.94526752  1  0  0.09819  0  0.937831  0  0  0.106177  0  1.000488  0  0  0.108813  0  0.998015  0  0  0.122717  0.104303  0  1.002086  0
H  H70  1  0.55032591  0.28767759  0.44516076  1  0  0.097681  0  0.93837  0  0  0.105659  0  1.001269  0  0  0.108285  0  0.998769  0  0  0.122629  0.10382  0  1.002806  0
H  H71  1  0.26323380  0.71231941  0.05472896  1  0  0.09823  0  0.937835  0  0  0.106217  0  1.000487  0  0  0.108854  0  0.998016  0  0  0.122717  0.104344  0  1.002088  0
H  H72  1  0.53335666  0.58657839  0.63960584  1  0  0.099818  0  0.962003  0  0  0.110077  0  1.020347  0  0  0.111914  0  1.022611  0  0  0.105763  0.108756  0  1.018975  0
H  H73  1  0.94627525  0.41327087  0.86052747  1  0  0.100099  0  0.961911  0  0  0.109854  0  1.020653  0  0  0.111745  0  1.022862  0  0  0.106005  0.108518  0  1.019291  0
H  H74  1  0.46664734  0.41342588  0.36039435  1  0  0.099828  0  0.962003  0  0  0.110096  0  1.020334  0  0  0.111933  0  1.022598  0  0  0.105788  0.108772  0  1.018962  0
H  H75  1  0.05372514  0.58673045  0.13947148  1  0  0.100088  0  0.961851  0  0  0.109845  0  1.020602  0  0  0.111736  0  1.022809  0  0  0.105992  0.108506  0  1.01924  0
H  H76  1  0.37673974  0.35592003  0.62320960  1  0  0.126851  0  0.911635  0  0  0.13808  0  0.966724  0  0  0.142343  0  0.962009  0  0  0.123824  0.134965  0  0.96999  0
H  H77  1  0.02028431  0.64396177  0.87684428  1  0  0.12631  0  0.91283  0  0  0.138304  0  0.967023  0  0  0.142598  0  0.96226  0  0  0.123619  0.135172  0  0.970311  0
H  H78  1  0.62326155  0.64408095  0.37679240  1  0  0.126856  0  0.911647  0  0  0.138093  0  0.966716  0  0  0.142357  0  0.962002  0  0  0.123835  0.134982  0  0.969985  0
H  H79  1  0.97971484  0.35603921  0.12315772  1  0  0.126305  0  0.912844  0  0  0.138286  0  0.967047  0  0  0.14258  0  0.962283  0  0  0.123603  0.13515  0  0.97033  0
H  H80  1  0.25267126  0.30956957  0.17554046  1  0  0.069596  0  0.960166  0  0  0.082479  0  1.020007  0  0  0.083728  0  1.019377  0  0  0.114656  0.08154  0  1.020438  0
H  H81  1  0.94386252  0.69096333  0.32461261  1  0  0.06935  0  0.959659  0  0  0.082202  0  1.019654  0  0  0.083456  0  1.018996  0  0  0.114424  0.081281  0  1.020084  0
H  H82  1  0.74732866  0.69042867  0.82445664  1  0  0.069576  0  0.960196  0  0  0.082451  0  1.020052  0  0  0.083709  0  1.019404  0  0  0.114634  0.081514  0  1.020479  0
H  H83  1  0.05613709  0.30903856  0.67538940  1  0  0.069281  0  0.959739  0  0  0.082143  0  1.019727  0  0  0.083399  0  1.019065  0  0  0.114426  0.081254  0  1.020127  0
H  H84  1  0.61310262  0.20228408  0.22131858  1  0  0.098055  0  0.936564  0  0  0.1089  0  0.995053  0  0  0.111755  0  0.992385  0  0  0.1225  0.106888  0  0.996799  0
H  H85  1  0.41138045  0.79800430  0.27863965  1  0  0.097533  0  0.937794  0  0  0.107867  0  0.996874  0  0  0.110623  0  0.994297  0  0  0.12225  0.105921  0  0.998562  0
H  H86  1  0.38689713  0.79771383  0.77868158  1  0  0.098084  0  0.936517  0  0  0.108906  0  0.995038  0  0  0.111761  0  0.992369  0  0  0.122509  0.106898  0  0.996788  0
H  H87  1  0.58861934  0.20199157  0.72135927  1  0  0.097534  0  0.937819  0  0  0.107856  0  0.996909  0  0  0.110611  0  0.994331  0  0  0.122244  0.105908  0  0.998596  0
H  H88  1  0.09471306  0.19258196  0.28225886  1  0  0.133141  0  0.943879  0  0  0.143689  0  0.999555  0  0  0.147507  0  0.997179  0  0  0.120777  0.141079  0  1.00092  0
H  H89  1  0.90287682  0.80808573  0.21799240  1  0  0.13412  0  0.943118  0  0  0.143973  0  0.999521  0  0  0.147771  0  0.997186  0  0  0.121199  0.141369  0  1.000883  0
H  H90  1  0.90528610  0.80742117  0.71774010  1  0  0.133107  0  0.943943  0  0  0.14364  0  0.999631  0  0  0.147454  0  0.997263  0  0  0.120761  0.141029  0  1.000992  0
H  H91  1  0.09712121  0.19191513  0.78200899  1  0  0.134022  0  0.943199  0  0  0.143891  0  0.999587  0  0  0.147688  0  0.997255  0  0  0.121186  0.141287  0  1.000949  0
N  N92  1  0.25785587  0.56537870  0.49954247  1  0  -0.29607  0  3.36848  0  0  -0.202512  0  3.647274  0  0  -0.223353  0  3.663918  0  0  -0.347158  -0.188428  0  3.635308  0
N  N93  1  0.69204783  0.43473752  0.00058648  1  0  -0.295604  0  3.368447  0  0  -0.202121  0  3.646932  0  0  -0.222924  0  3.663553  0  0  -0.346833  -0.188076  0  3.634983  0
N  N94  1  0.74214187  0.43462159  0.50045586  1  0  -0.295986  0  3.368379  0  0  -0.20245  0  3.64716  0  0  -0.223295  0  3.663811  0  0  -0.347039  -0.188367  0  3.635192  0
N  N95  1  0.30795108  0.56526084  0.99941123  1  0  -0.295559  0  3.368489  0  0  -0.202085  0  3.646963  0  0  -0.222892  0  3.663584  0  0  -0.346808  -0.188045  0  3.635029  0
N  N96  1  0.43785367  0.25927792  0.19297874  1  0  -0.29748  0  3.374752  0  0  -0.207854  0  3.661078  0  0  -0.225915  0  3.675887  0  0  -0.34967  -0.195501  0  3.650337  0
N  N97  1  0.17924091  0.74110189  0.30706558  1  0  -0.2975  0  3.374039  0  0  -0.207987  0  3.660153  0  0  -0.226067  0  3.674965  0  0  -0.349475  -0.195609  0  3.649403  0
N  N98  1  0.56214744  0.74072055  0.80701958  1  0  -0.297501  0  3.374792  0  0  -0.207871  0  3.661091  0  0  -0.225931  0  3.675901  0  0  -0.349666  -0.195518  0  3.650356  0
N  N99  1  0.82075784  0.25889829  0.69293704  1  0  -0.297468  0  3.374025  0  0  -0.207977  0  3.660137  0  0  -0.226059  0  3.674948  0  0  -0.349468  -0.195601  0  3.649403  0
O  O100  1  0.03191095  0.03674405  0.37693707  1  0  -0.739276  0  2.124629  0  0  -0.699266  0  2.382345  0  0  -0.74088  0  2.371018  0  0  -0.399468  -0.680636  0  2.38763  0
O  O101  1  0.99542978  0.96362185  0.12325291  1  0  -0.737543  0  2.121353  0  0  -0.699216  0  2.381456  0  0  -0.740575  0  2.369949  0  0  -0.398744  -0.680673  0  2.386778  0
O  O102  1  0.96808912  0.96326089  0.62306190  1  0  -0.739259  0  2.124714  0  0  -0.699214  0  2.382491  0  0  -0.74083  0  2.371159  0  0  -0.399409  -0.680578  0  2.387772  0
O  O103  1  0.00456945  0.03638141  0.87675156  1  0  -0.737531  0  2.1213  0  0  -0.69922  0  2.381403  0  0  -0.740586  0  2.36988  0  0  -0.398741  -0.680676  0  2.386737  0
O  O104  1  0.97552991  0.19820390  0.49451801  1  0  -0.710263  0  2.080489  0  0  -0.668822  0  2.342142  0  0  -0.707306  0  2.326135  0  0  -0.385657  -0.651135  0  2.350336  0
O  O105  1  0.77765012  0.80214392  0.00579583  1  0  -0.70952  0  2.079012  0  0  -0.668864  0  2.342427  0  0  -0.707279  0  2.326451  0  0  -0.386791  -0.651221  0  2.350602  0
O  O106  1  0.02447232  0.80179470  0.50548582  1  0  -0.710206  0  2.080611  0  0  -0.668757  0  2.342226  0  0  -0.707243  0  2.326229  0  0  -0.385626  -0.65107  0  2.350429  0
O  O107  1  0.22235239  0.19785524  0.99420616  1  0  -0.709633  0  2.078959  0  0  -0.668923  0  2.342339  0  0  -0.707338  0  2.326361  0  0  -0.386833  -0.651283  0  2.350519  0
O  O108  1  0.17633985  0.16352364  0.54561959  1  0  -0.717572  0  2.135603  0  0  -0.678417  0  2.396699  0  0  -0.718929  0  2.382675  0  0  -0.401726  -0.660796  0  2.404056  0
O  O109  1  0.01279791  0.83635170  0.95434341  1  0  -0.715936  0  2.133337  0  0  -0.677482  0  2.396428  0  0  -0.717927  0  2.382367  0  0  -0.401111  -0.659884  0  2.403799  0
O  O110  1  0.82367432  0.83648177  0.45438183  1  0  -0.717555  0  2.135597  0  0  -0.678397  0  2.396656  0  0  -0.718905  0  2.382634  0  0  -0.401779  -0.660782  0  2.404022  0
O  O111  1  0.98720436  0.16364484  0.04565428  1  0  -0.715932  0  2.133276  0  0  -0.677434  0  2.396335  0  0  -0.717875  0  2.382272  0  0  -0.401081  -0.659838  0  2.403703  0
O  O112  1  0.24064729  0.01104977  0.42594618  1  0  -0.704742  0  2.054287  0  0  -0.663139  0  2.301709  0  0  -0.701535  0  2.291045  0  0  -0.371012  -0.644489  0  2.306245  0
O  O113  1  0.22956586  0.98906972  0.07394535  1  0  -0.70495  0  2.051229  0  0  -0.664305  0  2.299668  0  0  -0.702614  0  2.288969  0  0  -0.372169  -0.645744  0  2.304281  0
O  O114  1  0.75934844  0.98895075  0.57405338  1  0  -0.704762  0  2.054261  0  0  -0.663126  0  2.301738  0  0  -0.701518  0  2.291066  0  0  -0.370995  -0.644478  0  2.306271  0
O  O115  1  0.77043131  0.01092728  0.92605480  1  0  -0.704869  0  2.051299  0  0  -0.664203  0  2.299675  0  0  -0.70252  0  2.28896  0  0  -0.37208  -0.645636  0  2.304295  0
O  O116  1  0.46176824  0.11643675  0.55937770  1  0  -0.654322  0  2.080642  0  0  -0.617917  0  2.336336  0  0  -0.652956  0  2.323144  0  0  -0.375686  -0.601372  0  2.34332  0
O  O117  1  0.34558106  0.88355521  0.94047666  1  0  -0.655712  0  2.078118  0  0  -0.619988  0  2.335323  0  0  -0.654965  0  2.322052  0  0  -0.376937  -0.603494  0  2.342282  0
O  O118  1  0.53823581  0.88356547  0.44062126  1  0  -0.654288  0  2.080507  0  0  -0.617907  0  2.336222  0  0  -0.652937  0  2.323007  0  0  -0.375695  -0.601368  0  2.343217  0
O  O119  1  0.65440976  0.11644191  0.05952410  1  0  -0.655583  0  2.078069  0  0  -0.619831  0  2.335329  0  0  -0.654798  0  2.322077  0  0  -0.376873  -0.603335  0  2.342281  0
O  O120  1  0.66138283  0.12810919  0.47967744  1  0  -0.650335  0  2.136581  0  0  -0.596627  0  2.395702  0  0  -0.633339  0  2.382692  0  0  -0.376584  -0.578652  0  2.403116  0
O  O121  1  0.53336924  0.87189667  0.02033073  1  0  -0.649471  0  2.136044  0  0  -0.596513  0  2.396804  0  0  -0.633145  0  2.383828  0  0  -0.376046  -0.578576  0  2.40417  0
O  O122  1  0.33862576  0.87189360  0.52031968  1  0  -0.650302  0  2.136895  0  0  -0.596579  0  2.395992  0  0  -0.633295  0  2.38299  0  0  -0.376527  -0.578601  0  2.403403  0
O  O123  1  0.46662540  0.12809954  0.97967003  1  0  -0.649473  0  2.135996  0  0  -0.596429  0  2.396734  0  0  -0.633055  0  2.383771  0  0  -0.376056  -0.578493  0  2.404102  0
O  O124  1  0.19570334  0.87561190  0.67146710  1  0  -0.657054  0  2.033462  0  0  -0.623523  0  2.272787  0  0  -0.657314  0  2.257965  0  0  -0.394365  -0.608262  0  2.280047  0
O  O125  1  0.32026295  0.12401852  0.82838980  1  0  -0.656918  0  2.030669  0  0  -0.624771  0  2.27197  0  0  -0.658475  0  2.257091  0  0  -0.39506  -0.609551  0  2.27923  0
O  O126  1  0.80429501  0.12438748  0.32853122  1  0  -0.65714  0  2.033343  0  0  -0.623582  0  2.272745  0  0  -0.657365  0  2.257905  0  0  -0.394356  -0.608324  0  2.280002  0
O  O127  1  0.67972913  0.87598325  0.17161160  1  0  -0.65683  0  2.030787  0  0  -0.624677  0  2.272064  0  0  -0.658376  0  2.257182  0  0  -0.39498  -0.60946  0  2.279328  0
O  O128  1  0.16827546  0.87868173  0.80822750  1  0  -0.639342  0  2.052907  0  0  -0.605969  0  2.299237  0  0  -0.639288  0  2.286157  0  0  -0.375855  -0.590374  0  2.305868  0
O  O129  1  0.28971777  0.12100722  0.69165892  1  0  -0.64057  0  2.054443  0  0  -0.605736  0  2.298783  0  0  -0.639101  0  2.285728  0  0  -0.375871  -0.590121  0  2.305434  0
O  O130  1  0.83172172  0.12131743  0.19176960  1  0  -0.63936  0  2.052799  0  0  -0.605957  0  2.299196  0  0  -0.639285  0  2.286131  0  0  -0.37587  -0.590362  0  2.305825  0
O  O131  1  0.71028187  0.87899261  0.30833696  1  0  -0.640557  0  2.054406  0  0  -0.605731  0  2.298736  0  0  -0.639096  0  2.285684  0  0  -0.375804  -0.590119  0  2.305388  0
Yb  Yb132  1  0.19936776  0.99009553  0.56745235  1  0  2.174116  0  1.809973  0  0  2.111563  0  2.123853  0  0  2.254814  0  1.904433  0  0  1.580154  2.076948  0  2.151346  0
Yb  Yb133  1  0.20922740  0.00963873  0.93241918  1  0  2.178409  0  1.79461  0  0  2.112322  0  2.122889  0  0  2.255103  0  1.904091  0  0  1.580384  2.078049  0  2.149853  0
Yb  Yb134  1  0.80063831  0.00990862  0.43254722  1  0  2.174171  0  1.809838  0  0  2.111635  0  2.123707  0  0  2.254869  0  1.904312  0  0  1.580183  2.077054  0  2.151161  0
Yb  Yb135  1  0.79077162  0.99035985  0.06757975  1  0  2.178379  0  1.794559  0  0  2.112321  0  2.122788  0  0  2.255099  0  1.903999  0  0  1.580399  2.078045  0  2.149745  0
