# generated using pymatgen
data_Co3H46C52(NO2)8
_symmetry_space_group_name_H-M   'P 1'
_cell_length_a   11.16067142
_cell_length_b   10.98688260
_cell_length_c   12.86440000
_cell_angle_alpha   69.38881545
_cell_angle_beta   83.54495603
_cell_angle_gamma   59.04598494
_symmetry_Int_Tables_number   1
_chemical_formula_structural   Co3H46C52(NO2)8
_chemical_formula_sum   'Co3 H46 C52 N8 O16'
_cell_volume   1261.55754478
_cell_formula_units_Z   1
loop_
 _symmetry_equiv_pos_site_id
 _symmetry_equiv_pos_as_xyz
  1  'x, y, z'
loop_
 _atom_site_type_symbol
 _atom_site_label
 _atom_site_symmetry_multiplicity
 _atom_site_fract_x
 _atom_site_fract_y
 _atom_site_fract_z
 _atom_site_occupancy
 _atom_site_pbe_bader_charge
 _atom_site_pbe_bader_spin_density
 _atom_site_pbe_cm5_charge
 _atom_site_pbe_ddec_charge
 _atom_site_pbe_ddec_spin_density
 _atom_site_pbe_ddec_sum_bond_order
 _atom_site_pbe_magmom
Co  Co0  1  0.44564809  0.06005026  0.78970294  1  1.157404  -0.988571  0.616089  0.753376  -1.173149  2.839976  -0.98
Co  Co1  1  0.55410529  0.94026281  0.21029202  1  1.157808  0.988982  0.615836  0.753433  1.093657  2.839986  0.98
Co  Co2  1  0.00004667  0.99990778  0.99999502  1  1.109543  0.9818  0.682251  0.52195  1.080214  2.975517  0.97
H  H3  1  0.19099783  0.30863483  0.80862132  1  0.119935  -0.000128  0.119508  0.096452  3.1e-05  1.011171  0.0
H  H4  1  0.97248806  0.49164819  0.68853053  1  0.058114  -2.3e-05  0.10204  0.102733  -5.5e-05  1.033216  0.0
H  H5  1  0.20658804  0.37879842  0.41076913  1  0.084576  -8.8e-05  0.107547  0.114359  -0.000102  1.006479  0.0
H  H6  1  0.41208807  0.19366995  0.54267595  1  0.132824  -2.9e-05  0.120197  0.092358  0.00012  1.015942  0.0
H  H7  1  0.80005547  0.32930437  0.91390147  1  0.107865  5e-06  0.117617  0.084925  -5.6e-05  1.056271  0.0
H  H8  1  0.79689546  0.55768507  0.90500759  1  0.078923  0.0  0.106141  0.109761  3.4e-05  1.032717  0.0
H  H9  1  0.20762279  0.26296474  0.08605478  1  0.122532  -3.4e-05  0.108815  0.117357  -2.1e-05  1.044447  0.0
H  H10  1  0.19427335  0.04911322  0.08470195  1  0.130024  -2.5e-05  0.126326  0.101049  -0.000109  0.999599  0.0
H  H11  1  0.83152821  0.11123092  0.17022107  1  0.09929  -5e-05  0.121335  0.090761  -0.000126  1.025984  0.0
H  H12  1  0.84373776  0.03218376  0.37485474  1  0.124303  -7e-05  0.110408  0.121104  -2.3e-05  1.01686  0.0
H  H13  1  0.25808812  0.65344870  0.37966169  1  0.111608  -2.4e-05  0.1144  0.125584  5e-06  0.993112  0.0
H  H14  1  0.22961478  0.75346297  0.17594269  1  0.128174  -0.000169  0.118867  0.093328  -0.000174  1.058299  0.0
H  H15  1  0.88555249  0.78496635  0.74922326  1  0.080166  -0.000122  0.103082  0.072755  -4.2e-05  1.03313  0.0
H  H16  1  0.84717580  0.87512323  0.54409005  1  0.086007  -0.0001  0.108737  0.116173  -5.3e-05  1.003258  0.0
H  H17  1  0.29701066  0.67363536  0.53451212  1  0.086985  0.000153  0.112014  0.122466  7.4e-05  0.989276  0.0
H  H18  1  0.31693505  0.58775758  0.73845991  1  0.067548  1e-05  0.10722  0.079891  8e-06  1.013742  0.0
H  H19  1  0.58589998  0.62108094  0.86030499  1  0.044714  0.000476  0.101824  0.126848  0.000186  0.988264  0.0
H  H20  1  0.40631335  0.68347059  0.86527784  1  0.055946  0.000163  0.106336  0.132046  4.6e-05  0.984139  0.0
H  H21  1  0.64191398  0.58434616  0.05634930  1  0.079771  -0.000668  0.106181  0.136619  -0.000296  0.986727  0.0
H  H22  1  0.47334622  0.60388766  0.07845757  1  0.04616  4.5e-05  0.107028  0.138501  3.5e-05  0.991321  0.0
H  H23  1  0.63153704  0.07568314  0.63000272  1  0.610667  -0.000235  0.317222  0.395134  -0.000301  0.889678  0.0
H  H24  1  0.60450763  0.16539359  0.71154596  1  0.654036  0.000289  0.284005  0.365512  -4.9e-05  0.988324  0.0
H  H25  1  0.56727502  0.87355274  0.98234947  1  0.65411  -8.7e-05  0.311339  0.35601  -4.5e-05  0.944413  0.0
H  H26  1  0.80868844  0.69161934  0.19121483  1  0.116819  0.000136  0.119614  0.096839  -5.8e-05  1.011385  0.0
H  H27  1  0.02724420  0.50851559  0.31126637  1  0.059558  -4.3e-05  0.102231  0.103379  9e-06  1.032959  0.0
H  H28  1  0.79330233  0.62152677  0.58904502  1  0.084154  8.8e-05  0.107662  0.114495  9.2e-05  1.006846  0.0
H  H29  1  0.58775654  0.80664575  0.45720202  1  0.128504  2.3e-05  0.120242  0.092598  -0.000149  1.015823  0.0
H  H30  1  0.20036001  0.67063436  0.08578394  1  0.104663  -0.000253  0.117631  0.085162  -0.000235  1.056534  0.0
H  H31  1  0.20370514  0.44208559  0.09479423  1  0.07238  -4.2e-05  0.106075  0.109819  5e-06  1.033538  0.0
H  H32  1  0.79246767  0.73649127  0.91454035  1  0.116478  1.1e-05  0.109284  0.117808  7.8e-05  1.044423  0.0
H  H33  1  0.80581191  0.95045859  0.91554923  1  0.127605  5.8e-05  0.126555  0.102111  -8e-06  0.998133  0.0
H  H34  1  0.16836641  0.88847175  0.82972908  1  0.102272  5.4e-05  0.12119  0.090742  -4.6e-05  1.025985  0.0
H  H35  1  0.15605915  0.96752370  0.62510759  1  0.122684  -4.5e-05  0.110344  0.120819  5e-06  1.017479  0.0
H  H36  1  0.74200587  0.34663059  0.62034705  1  0.112123  -3.2e-05  0.114495  0.125709  8e-06  0.992856  0.0
H  H37  1  0.77047480  0.24649153  0.82407531  1  0.128663  -0.000115  0.1188  0.093383  -0.000143  1.058156  0.0
H  H38  1  0.11479524  0.21422915  0.25097237  1  0.078756  5.5e-05  0.10332  0.073098  5e-06  1.033662  0.0
H  H39  1  0.15289620  0.12431803  0.45608391  1  0.083425  0.000108  0.108593  0.115879  5.5e-05  1.002835  0.0
H  H40  1  0.70293741  0.32685813  0.46528583  1  0.088967  -0.000141  0.112063  0.122856  -7e-05  0.988812  0.0
H  H41  1  0.68328184  0.41260877  0.26133619  1  0.062642  -1.1e-05  0.107351  0.080054  -0.0  1.013817  0.0
H  H42  1  0.41442982  0.37919575  0.13974177  1  0.041526  0.000174  0.101784  0.126965  7.7e-05  0.988032  0.0
H  H43  1  0.59405587  0.31651002  0.13454870  1  0.057358  -0.000157  0.106618  0.132805  -7.5e-05  0.984443  0.0
H  H44  1  0.35776362  0.41585381  0.94377509  1  0.077128  0.000569  0.106303  0.136622  0.000216  0.986474  0.0
H  H45  1  0.52624523  0.39652264  0.92144457  1  0.044353  0.000195  0.106935  0.13841  7.5e-05  0.991444  0.0
H  H46  1  0.36833899  0.92372081  0.37061740  1  0.61312  0.000265  0.317186  0.395399  0.000258  0.889826  0.0
H  H47  1  0.39550685  0.83443773  0.28873605  1  0.653819  -0.000287  0.2837  0.365165  6e-06  0.988887  0.0
H  H48  1  0.43228626  0.12689139  0.01778201  1  0.655355  6.9e-05  0.311329  0.355642  3.3e-05  0.945041  0.0
C  C49  1  0.18892911  0.32739728  0.71994455  1  0.48892  0.013717  0.041145  0.096272  0.007237  3.917192  0.009
C  C50  1  0.06660941  0.42943183  0.65112121  1  -0.024601  -0.007195  -0.087359  -0.172192  -0.003936  3.972381  -0.005
C  C51  1  0.06465114  0.44948749  0.53686511  1  -0.032007  0.020086  -0.001123  0.083014  0.010382  4.003288  0.014
C  C52  1  0.19504917  0.36650781  0.49839939  1  -0.023548  -0.010475  -0.085104  -0.1702  -0.005702  3.957969  -0.007
C  C53  1  0.31329149  0.26285628  0.57214143  1  0.404032  0.016285  0.043788  0.085337  0.008453  3.936851  0.01
C  C54  1  0.88991548  0.32001605  0.94821744  1  0.46852  -0.006081  0.043568  0.079154  -0.003423  3.942082  -0.004
C  C55  1  0.88838508  0.44766479  0.94575560  1  -0.026103  -0.000678  -0.085528  -0.180806  -0.000446  3.973724  0.0
C  C56  1  0.00101725  0.43369224  0.99749738  1  0.011462  -0.007677  0.013472  0.105389  -0.004337  3.991117  -0.004
C  C57  1  0.11400910  0.28634053  0.04556260  1  -0.046676  -0.001673  -0.077219  -0.160148  -0.000971  3.915813  -0.001
C  C58  1  0.10891321  0.16365233  0.04440053  1  0.492414  -0.00638  0.058381  0.114678  -0.00364  3.891406  -0.004
C  C59  1  0.92197813  0.00779953  0.22027480  1  0.471166  -0.004699  0.049434  0.101392  -0.00268  3.898391  -0.003
C  C60  1  0.93098542  0.96235922  0.33550483  1  -0.064479  0.001137  -0.075629  -0.155114  0.000523  3.903709  0.001
C  C61  1  0.05235006  0.83217173  0.39785942  1  -0.013111  -0.005414  0.013245  0.105028  -0.003003  3.984075  -0.004
C  C62  1  0.15993435  0.75488636  0.33796297  1  -0.060476  0.001443  -0.080041  -0.166659  0.000711  3.946314  0.001
C  C63  1  0.14329906  0.80747644  0.22268321  1  0.485891  -0.005156  0.043559  0.076881  -0.002902  3.929255  -0.003
C  C64  1  0.97551687  0.75957723  0.69941913  1  0.495693  0.000117  0.033405  0.08333  6e-06  4.02287  0.0
C  C65  1  0.95332037  0.81267412  0.58387979  1  -0.075596  -0.001073  -0.086738  -0.178162  -0.000637  3.955336  -0.001
C  C66  1  0.06929640  0.78092536  0.52023753  1  -0.026276  0.000359  0.00605  0.090007  0.000175  4.00605  0.0
C  C67  1  0.20220943  0.69851445  0.57810900  1  0.041912  -0.00138  -0.080823  -0.167352  -0.000734  3.92849  -0.001
C  C68  1  0.21330435  0.65060082  0.69407859  1  0.465628  0.000338  0.040717  0.095728  0.000197  4.001357  0.0
C  C69  1  0.45684363  0.82417047  0.72712284  1  1.57514  0.002183  0.194487  0.621169  0.001462  4.158214  0.002
C  C70  1  0.48178374  0.72255090  0.85091778  1  -0.048825  0.000145  -0.163543  -0.373701  0.000158  3.871333  0.0
C  C71  1  0.47311235  0.78739127  0.94071465  1  0.401956  0.004969  0.063025  0.232613  0.002902  3.8045  0.004
C  C72  1  0.52981840  0.66540947  0.05684320  1  -0.026821  -0.000176  -0.166859  -0.396198  -0.0002  3.89352  0.0
C  C73  1  0.51302541  0.73320169  0.14644991  1  1.54167  -0.003182  0.217306  0.63021  -0.002094  4.09694  -0.002
C  C74  1  0.31823939  0.90830901  0.94264814  1  1.590875  0.001537  0.197466  0.492759  0.000595  4.202323  0.001
C  C75  1  0.81081468  0.67284989  0.27989154  1  0.4863  -0.013651  0.041335  0.096278  -0.007743  3.916668  -0.009
C  C76  1  0.93315841  0.57078219  0.34868802  1  -0.023966  0.00718  -0.0879  -0.173745  0.00357  3.972721  0.005
C  C77  1  0.93515339  0.55077426  0.46293306  1  0.016435  -0.019974  -0.000712  0.084288  -0.011117  4.003394  -0.014
C  C78  1  0.80479166  0.63380673  0.50141321  1  -0.021133  0.010542  -0.085281  -0.170841  0.005285  3.959532  0.007
C  C79  1  0.68652195  0.73745974  0.42770684  1  0.407715  -0.016205  0.043904  0.085682  -0.00904  3.93783  -0.01
C  C80  1  0.11044147  0.67978374  0.05169351  1  0.494693  -0.006247  0.043544  0.07923  -0.003546  3.942841  -0.004
C  C81  1  0.11206180  0.55205922  0.05423077  1  -0.0471  0.000129  -0.085361  -0.181246  -0.0  3.974595  0.001
C  C82  1  0.99932365  0.56588993  0.00274185  1  -0.028841  -0.008005  0.013324  0.106017  -0.004484  3.990913  -0.005
C  C83  1  0.88619308  0.71318974  0.95481207  1  -0.022141  -0.000172  -0.077701  -0.160557  -0.00019  3.91697  0.0
C  C84  1  0.89124054  0.83596639  0.95583195  1  0.478814  -0.006146  0.057983  0.113403  -0.00343  3.891127  -0.004
C  C85  1  0.07795908  0.99199036  0.77969596  1  0.471897  -0.00522  0.049723  0.101596  -0.002966  3.898272  -0.004
C  C86  1  0.06891144  0.03743800  0.66446916  1  -0.064678  0.001013  -0.076013  -0.155487  0.000479  3.905062  0.001
C  C87  1  0.94761297  0.16773979  0.60212704  1  -0.011886  -0.006293  0.01355  0.105613  -0.00357  3.984164  -0.004
C  C88  1  0.84010414  0.24509514  0.66203530  1  -0.059807  0.000773  -0.080157  -0.166796  0.000297  3.94578  0.001
C  C89  1  0.85674840  0.19245169  0.77731695  1  0.484382  -0.005436  0.043664  0.076913  -0.003099  3.929044  -0.004
C  C90  1  0.02473106  0.23995358  0.30066651  1  0.451559  0.000422  0.033066  0.081906  0.00024  4.024775  0.0
C  C91  1  0.04677690  0.18698430  0.41620116  1  0.004397  -0.001123  -0.086586  -0.177226  -0.00058  3.955265  -0.001
C  C92  1  0.93070856  0.21902310  0.47974580  1  -0.031374  0.000367  0.005901  0.089445  0.000163  4.007127  0.001
C  C93  1  0.79782518  0.30171494  0.42177863  1  0.042952  -0.001449  -0.080692  -0.167193  -0.00084  3.928779  -0.001
C  C94  1  0.78688178  0.34954243  0.30580948  1  0.471317  0.000294  0.040411  0.095136  0.000126  4.002166  0.0
C  C95  1  0.54350059  0.17593494  0.27282526  1  1.576406  -0.002099  0.195053  0.621835  -0.00152  4.157183  -0.002
C  C96  1  0.51843207  0.27761977  0.14903065  1  -0.04766  0.000185  -0.163713  -0.374682  -7e-06  3.872598  0.0
C  C97  1  0.52675573  0.21288026  0.05925125  1  0.402467  0.006608  0.062543  0.23168  0.003489  3.805881  0.005
C  C98  1  0.46985748  0.33491118  0.94315725  1  -0.022616  0.000273  -0.167244  -0.39614  0.00024  3.892273  0.0
C  C99  1  0.48656290  0.26708567  0.85358775  1  1.542021  0.003248  0.216901  0.629666  0.001951  4.096933  0.002
C  C100  1  0.68154629  0.09186065  0.05717105  1  1.599708  -0.001443  0.197517  0.492577  0.000478  4.203413  -0.002
N  N101  1  0.31061323  0.23857305  0.68296766  1  -1.162692  0.000421  -0.354017  -0.208601  -0.001442  3.673409  -0.002
N  N102  1  0.99831500  0.17839332  0.99656974  1  -1.18773  -0.010223  -0.334127  -0.171254  -0.004881  3.637967  -0.007
N  N103  1  0.02492143  0.93074001  0.16306142  1  -1.180629  -0.006855  -0.329839  -0.175588  -0.003079  3.622002  -0.004
N  N104  1  0.10271000  0.67879839  0.75545373  1  -1.173824  -0.001393  -0.330841  -0.290833  -0.000784  3.344907  -0.001
N  N105  1  0.68917425  0.76170367  0.31689428  1  -1.163684  -0.000291  -0.354347  -0.209082  0.000898  3.674522  0.002
N  N106  1  0.00189108  0.82135417  0.00346195  1  -1.185437  -0.009976  -0.334322  -0.171506  -0.004721  3.639416  -0.007
N  N107  1  0.97508953  0.06910434  0.83692857  1  -1.183345  -0.006891  -0.329909  -0.175665  -0.003113  3.621961  -0.004
N  N108  1  0.89757966  0.32097459  0.24453318  1  -1.204786  -0.001932  -0.33082  -0.290056  -0.001099  3.345577  -0.001
O  O109  1  0.64079650  0.06239711  0.70812817  1  -1.249877  -0.050334  -0.571232  -0.749277  -0.029507  2.050766  -0.04
O  O110  1  0.44777751  0.95433614  0.69899146  1  -1.097356  0.009814  -0.321098  -0.534479  0.004072  2.417692  0.008
O  O111  1  0.44996661  0.77251256  0.65725529  1  -1.167425  0.006692  -0.350087  -0.567275  0.003412  2.030566  0.006
O  O112  1  0.55702667  0.86012915  0.91044656  1  -1.097362  0.001382  -0.368581  -0.466765  -1.1e-05  2.422479  0.001
O  O113  1  0.24071827  0.86136007  0.00038231  1  -1.185029  0.050104  -0.3007  -0.535908  0.02704  2.361994  0.044
O  O114  1  0.28012703  0.04340337  0.88405931  1  -1.141445  -0.065329  -0.291574  -0.511813  -0.038201  2.394878  -0.058
O  O115  1  0.46877734  0.69095958  0.23751916  1  -1.173928  -0.001866  -0.300741  -0.524052  -0.001061  2.156786  -0.001
O  O116  1  0.54786396  0.83707415  0.11699944  1  -1.128397  -0.005229  -0.311268  -0.542578  -0.002118  2.436501  -0.003
O  O117  1  0.35920374  0.93731561  0.29240615  1  -1.252237  0.049992  -0.571156  -0.749779  0.027227  2.050372  0.039
O  O118  1  0.55245139  0.04582883  0.30094725  1  -1.098389  -0.009812  -0.320851  -0.534307  -0.004561  2.417546  -0.008
O  O119  1  0.55066309  0.22744684  0.34268869  1  -1.168168  -0.006708  -0.350486  -0.567553  -0.003683  2.029837  -0.006
O  O120  1  0.44273552  0.14025719  0.08965633  1  -1.098167  0.00215  -0.368179  -0.46637  0.00164  2.424255  0.001
O  O121  1  0.75917448  0.13873295  0.99954787  1  -1.18624  0.062196  -0.30058  -0.535621  0.033408  2.360987  0.054
O  O122  1  0.71948696  0.95674949  0.11557015  1  -1.149393  0.066304  -0.291548  -0.511598  0.035618  2.394553  0.059
O  O123  1  0.53104053  0.30907303  0.76257579  1  -1.172802  0.001746  -0.300282  -0.523687  0.000942  2.157142  0.001
O  O124  1  0.45146952  0.16340912  0.88304059  1  -1.129666  0.005209  -0.311224  -0.54238  0.001776  2.435903  0.003
