# generated using pymatgen
data_Nd2H24C24S3(NO8)2
_symmetry_space_group_name_H-M   'P 1'
_cell_length_a   9.68006420
_cell_length_b   11.04763767
_cell_length_c   19.07778876
_cell_angle_alpha   84.38657889
_cell_angle_beta   76.62084543
_cell_angle_gamma   63.43291226
_symmetry_Int_Tables_number   1
_chemical_formula_structural   Nd2H24C24S3(NO8)2
_chemical_formula_sum   'Nd4 H48 C48 S6 N4 O32'
_cell_volume   1775.22801136
_cell_formula_units_Z   2
loop_
 _symmetry_equiv_pos_site_id
 _symmetry_equiv_pos_as_xyz
  1  'x, y, z'
loop_
 _atom_site_type_symbol
 _atom_site_label
 _atom_site_symmetry_multiplicity
 _atom_site_fract_x
 _atom_site_fract_y
 _atom_site_fract_z
 _atom_site_occupancy
 _atom_site_pbe_bader_charge
 _atom_site_pbe_bader_spin_density
 _atom_site_pbe_cm5_charge
 _atom_site_pbe_ddec_charge
 _atom_site_pbe_ddec_spin_density
 _atom_site_pbe_ddec_sum_bond_order
 _atom_site_pbe_magmom
Nd  Nd0  1  0.70663343  0.02808988  0.49771708  1  2.264847  0  1.48319  2.132652  0  2.166199  0
Nd  Nd1  1  0.29337409  0.97190806  0.50228190  1  2.264889  0  1.483199  2.132773  0  2.165977  0
Nd  Nd2  1  0.24750520  0.48305390  0.99514988  1  2.282116  0  1.480399  2.165825  0  2.138026  0
Nd  Nd3  1  0.75249170  0.51694610  0.00484975  1  2.282048  0  1.480432  2.165828  0  2.138  0
H  H4  1  0.86540202  0.27140153  0.20115219  1  0.100886  0  0.108666  0.134022  0  1.014017  0
H  H5  1  0.13459211  0.72859757  0.79884468  1  0.101135  0  0.108661  0.133984  0  1.013984  0
H  H6  1  0.89982640  0.12469590  0.25769230  1  0.090038  0  0.110848  0.132358  0  0.999388  0
H  H7  1  0.10018275  0.87529227  0.74229648  1  0.090172  0  0.110892  0.132433  0  0.999365  0
H  H8  1  0.02709479  0.20628898  0.24577345  1  0.045201  0  0.103731  0.117553  0  0.975402  0
H  H9  1  0.97290500  0.79370722  0.75421868  1  0.045337  0  0.103745  0.117528  0  0.97545  0
H  H10  1  0.79119775  0.96397779  0.63525627  1  0.62815  0  0.31168  0.400207  0  0.907877  0
H  H11  1  0.20880047  0.03602607  0.36474877  1  0.628291  0  0.311649  0.400182  0  0.907932  0
H  H12  1  0.94518417  0.97680609  0.59387454  1  0.621562  0  0.300622  0.384093  0  0.954332  0
H  H13  1  0.05481446  0.02319686  0.40612736  1  0.621531  0  0.3005  0.383885  0  0.954568  0
H  H14  1  0.94247565  0.66742903  0.39498258  1  0.121087  0  0.112659  0.123315  0  1.006532  0
H  H15  1  0.05753063  0.33257574  0.60502354  1  0.12093  0  0.112653  0.123309  0  1.006486  0
H  H16  1  0.06995180  0.39678355  0.40162338  1  0.115676  0  0.113747  0.131107  0  0.986318  0
H  H17  1  0.93006328  0.60321836  0.59837605  1  0.115222  0  0.113729  0.131067  0  0.986266  0
H  H18  1  0.10440371  0.12846494  0.68434029  1  0.121083  0  0.112449  0.122866  0  1.031249  0
H  H19  1  0.89558799  0.87154524  0.31565789  1  0.120831  0  0.112481  0.122876  0  1.031279  0
H  H20  1  0.71737111  0.49721318  0.26056448  1  0.049692  0  0.103155  0.119247  0  1.010206  0
H  H21  1  0.28261406  0.50277457  0.73944243  1  0.049448  0  0.103137  0.11924  0  1.010084  0
H  H22  1  0.88000702  0.46074352  0.30070501  1  0.035301  0  0.106309  0.124814  0  0.972083  0
H  H23  1  0.11997980  0.53924931  0.69930039  1  0.035186  0  0.106294  0.124753  0  0.972071  0
H  H24  1  0.68846022  0.50418035  0.35663785  1  0.058681  0  0.105706  0.114104  0  1.017711  0
H  H25  1  0.31152847  0.49579423  0.64336980  1  0.058987  0  0.105742  0.11404  0  1.01765  0
H  H26  1  0.95080890  0.25668561  0.81166894  1  0.131105  0  0.113004  0.130551  0  0.997826  0
H  H27  1  0.04918490  0.74331843  0.18833139  1  0.131172  0  0.113039  0.130596  0  0.997828  0
H  H28  1  0.60078943  0.48465199  0.67832807  1  0.085502  0  0.097387  0.106016  0  1.042719  0
H  H29  1  0.39920598  0.51535511  0.32167086  1  0.085494  0  0.097383  0.105997  0  1.042688  0
H  H30  1  0.72381048  0.49482231  0.73214248  1  0.073916  0  0.105593  0.126138  0  0.98986  0
H  H31  1  0.27618443  0.50518579  0.26785699  1  0.073949  0  0.105582  0.126139  0  0.989845  0
H  H32  1  0.51383398  0.57672051  0.76200255  1  0.073389  0  0.114882  0.136547  0  0.980895  0
H  H33  1  0.48616040  0.42328862  0.23799641  1  0.073486  0  0.114859  0.136493  0  0.980918  0
H  H34  1  0.41891284  0.44962838  0.11848941  1  0.631173  0  0.303628  0.389057  0  0.947195  0
H  H35  1  0.58108307  0.55037773  0.88150899  1  0.631158  0  0.303627  0.389094  0  0.947146  0
H  H36  1  0.35349081  0.34090560  0.12194612  1  0.613211  0  0.326432  0.412646  0  0.8739  0
H  H37  1  0.64650937  0.65909637  0.87805459  1  0.61319  0  0.326424  0.412671  0  0.873871  0
H  H38  1  0.12479534  0.87383108  0.89866304  1  0.089984  0  0.114094  0.127981  0  0.9819  0
H  H39  1  0.87520147  0.12616492  0.10133575  1  0.090007  0  0.114041  0.127853  0  0.981881  0
H  H40  1  0.97430357  0.13865286  0.92766281  1  0.115216  0  0.111946  0.129074  0  1.012495  0
H  H41  1  0.02570014  0.86134416  0.07233404  1  0.114811  0  0.111933  0.12909  0  1.012464  0
H  H42  1  0.83192020  0.22437945  0.71381847  1  0.058234  0  0.106372  0.127523  0  1.003114  0
H  H43  1  0.16807911  0.77563261  0.28618236  1  0.058267  0  0.106374  0.127527  0  1.003159  0
H  H44  1  0.66236547  0.23460170  0.68650539  1  0.090861  0  0.104878  0.128141  0  1.006924  0
H  H45  1  0.33763846  0.76540536  0.31349303  1  0.090825  0  0.1049  0.128124  0  1.006995  0
H  H46  1  0.70953174  0.15498591  0.76958387  1  0.05003  0  0.109507  0.123774  0  0.997545  0
H  H47  1  0.29046907  0.84502315  0.23041588  1  0.049889  0  0.109507  0.123766  0  0.99748  0
H  H48  1  0.53427172  0.27456629  0.85917415  1  0.128924  0  0.127894  0.051989  0  1.03323  0
H  H49  1  0.46572582  0.72544080  0.14082452  1  0.128819  0  0.127886  0.052027  0  1.033248  0
H  H50  1  0.66532691  0.33360977  0.41474793  1  0.117816  0  0.116809  0.029301  0  1.056465  0
H  H51  1  0.33469245  0.66635873  0.58525422  1  0.117431  0  0.11681  0.029245  0  1.056536  0
C  C52  1  0.90452341  0.22238276  0.25049055  1  0.244176  0  -0.134367  -0.271866  0  3.881806  0
C  C53  1  0.09547743  0.77760934  0.74950323  1  0.243811  0  -0.134394  -0.271813  0  3.881996  0
C  C54  1  0.10192263  0.79600556  0.45161769  1  1.575017  0  0.227998  0.645614  0  4.21847  0
C  C55  1  0.89808247  0.20399523  0.54838720  1  1.575175  0  0.227949  0.645578  0  4.218717  0
C  C56  1  0.94036157  0.72293924  0.92779373  1  1.625281  0  0.222387  0.643625  0  4.242915  0
C  C57  1  0.05962951  0.27706179  0.07220656  1  1.625338  0  0.22237  0.643699  0  4.242715  0
C  C58  1  0.04806038  0.60331243  0.41558130  1  -0.014029  0  -0.087099  -0.101136  0  3.989028  0
C  C59  1  0.95194837  0.39668739  0.58442162  1  -0.01393  0  -0.087068  -0.101213  0  3.988813  0
C  C60  1  0.16999985  0.25839730  0.81903828  1  -0.192262  0  -0.016796  -0.112762  0  3.937855  0
C  C61  1  0.82999759  0.74159962  0.18096301  1  -0.192267  0  -0.016753  -0.112718  0  3.93782  0
C  C62  1  0.89618432  0.86999381  0.93007942  1  -0.244408  0  -0.021747  -0.132457  0  3.94808  0
C  C63  1  0.10381041  0.13000625  0.06991890  1  -0.24448  0  -0.021763  -0.132451  0  3.948149  0
C  C64  1  0.42747523  0.08940921  0.63385596  1  1.597298  0  0.219947  0.650036  0  4.213721  0
C  C65  1  0.57252125  0.91059378  0.36614515  1  1.597414  0  0.219803  0.649734  0  4.21402  0
C  C66  1  0.63675462  0.25338153  0.98110410  1  1.585549  0  0.220011  0.644583  0  4.239427  0
C  C67  1  0.36324446  0.74661842  0.01889685  1  1.585621  0  0.220062  0.644662  0  4.239583  0
C  C68  1  0.53028091  0.37211434  0.83804289  1  1.363934  0  0.183329  0.310361  0  4.082689  0
C  C69  1  0.46971234  0.62789280  0.16195525  1  1.363812  0  0.183325  0.310248  0  4.082823  0
C  C70  1  0.11561143  0.46068085  0.41841825  1  -0.021789  0  -0.09093  -0.106686  0  3.986789  0
C  C71  1  0.88440101  0.53932208  0.58158145  1  -0.021231  0  -0.090877  -0.10652  0  3.986459  0
C  C72  1  0.24874732  0.40678358  0.44809374  1  -0.23134  0  -0.019199  -0.119761  0  3.961275  0
C  C73  1  0.75126660  0.59321844  0.55190268  1  -0.231446  0  -0.019372  -0.120123  0  3.961492  0
C  C74  1  0.13098415  0.65526041  0.44335795  1  -0.176015  0  -0.021072  -0.139929  0  3.983227  0
C  C75  1  0.86902254  0.34474346  0.55664502  1  -0.176215  0  -0.021109  -0.139896  0  3.983217  0
C  C76  1  0.34503055  0.26352884  0.46413217  1  1.630508  0  0.224809  0.649646  0  4.216439  0
C  C77  1  0.65497588  0.73647119  0.53586474  1  1.630223  0  0.224926  0.649879  0  4.216068  0
C  C78  1  0.31010782  0.14400577  0.70123117  1  -0.197909  0  -0.024219  -0.128836  0  3.96543  0
C  C79  1  0.68988862  0.85599520  0.29877004  1  -0.198309  0  -0.024165  -0.128681  0  3.965292  0
C  C80  1  0.15442599  0.16244178  0.71951044  1  -0.049765  0  -0.093414  -0.113846  0  3.992809  0
C  C81  1  0.84556888  0.83756226  0.28048976  1  -0.049501  0  -0.093484  -0.11389  0  3.992966  0
C  C82  1  0.75713846  0.11541653  0.95700737  1  -0.235064  0  -0.029113  -0.146554  0  3.972821  0
C  C83  1  0.24286479  0.88458349  0.04299044  1  -0.235034  0  -0.029143  -0.146545  0  3.972656  0
C  C84  1  0.76967391  0.45048396  0.30739661  1  0.323149  0  -0.128652  -0.27662  0  3.924139  0
C  C85  1  0.23031765  0.54950582  0.69260837  1  0.323477  0  -0.128619  -0.276373  0  3.924193  0
C  C86  1  0.74300724  0.25815935  0.37192127  1  1.360188  0  0.181261  0.324862  0  4.098097  0
C  C87  1  0.25700571  0.74181536  0.62807715  1  1.36108  0  0.181285  0.325075  0  4.097735  0
C  C88  1  0.07407318  0.22899752  0.78662443  1  -0.080759  0  -0.096281  -0.114863  0  3.987466  0
C  C89  1  0.92592062  0.77100652  0.21337590  1  -0.080715  0  -0.096304  -0.114929  0  3.987594  0
C  C90  1  0.13137104  0.32994102  0.88791780  1  1.637682  0  0.228196  0.653789  0  4.223188  0
C  C91  1  0.86862211  0.67005801  0.11208181  1  1.637765  0  0.228151  0.653774  0  4.223243  0
C  C92  1  0.61339384  0.48805971  0.73370464  1  0.236642  0  -0.134242  -0.268523  0  3.880379  0
C  C93  1  0.38660055  0.51194941  0.26629432  1  0.236824  0  -0.134229  -0.268483  0  3.880306  0
C  C94  1  0.99762965  0.93119816  0.91654480  1  0.069439  0  -0.093252  -0.104633  0  3.993059  0
C  C95  1  0.00237029  0.06879788  0.08345204  1  0.069817  0  -0.093181  -0.104431  0  3.992964  0
C  C96  1  0.91851358  0.07108750  0.93193307  1  -0.027401  0  -0.095145  -0.10505  0  3.995651  0
C  C97  1  0.08148542  0.92891048  0.06806641  1  -0.027132  0  -0.095101  -0.105084  0  3.995444  0
C  C98  1  0.70986824  0.23787861  0.73300526  1  0.284181  0  -0.132248  -0.286864  0  3.896531  0
C  C99  1  0.29013307  0.76212945  0.26699396  1  0.284566  0  -0.132267  -0.286862  0  3.89651  0
S  S100  1  0.29200405  0.52960609  0.47193122  1  0.254189  0  0.110954  0.158578  0  2.981657  0
S  S101  1  0.70800937  0.47039281  0.52806804  1  0.254603  0  0.111055  0.15877  0  2.981793  0
S  S102  1  0.35739648  0.20509838  0.76707740  1  0.279164  0  0.107389  0.159947  0  2.982981  0
S  S103  1  0.64260044  0.79489750  0.23292505  1  0.279297  0  0.107359  0.159907  0  2.982904  0
S  S104  1  0.70302844  0.98536663  0.96048720  1  0.280037  0  0.104872  0.17303  0  2.892837  0
S  S105  1  0.29696639  0.01463744  0.03951195  1  0.279827  0  0.104833  0.172936  0  2.892959  0
N  N106  1  0.61450133  0.36651699  0.77128840  1  -1.217661  0  -0.277761  0.033884  0  3.715317  0
N  N107  1  0.38549359  0.63349110  0.22871107  1  -1.218187  0  -0.277737  0.033952  0  3.715364  0
N  N108  1  0.80145445  0.30865193  0.31222354  1  -1.206813  0  -0.280529  0.02993  0  3.714799  0
N  N109  1  0.19854910  0.69132881  0.68777782  1  -1.207523  0  -0.280577  0.029676  0  3.715185  0
O  O110  1  0.56228332  0.08954889  0.62639034  1  -1.192647  0  -0.383695  -0.663562  0  2.228366  0
O  O111  1  0.43770840  0.91046127  0.37360837  1  -1.192727  0  -0.383641  -0.663446  0  2.228476  0
O  O112  1  0.49269155  0.27474789  0.99253577  1  -1.192636  0  -0.397616  -0.675054  0  2.308406  0
O  O113  1  0.50731289  0.72525612  0.00746327  1  -1.192679  0  -0.397652  -0.675098  0  2.308246  0
O  O114  1  0.24330492  0.34459444  0.90403325  1  -1.184824  0  -0.389922  -0.664441  0  2.318178  0
O  O115  1  0.75669151  0.65540655  0.09596744  1  -1.184937  0  -0.389902  -0.664421  0  2.318394  0
O  O116  1  0.77122196  0.13592607  0.37991486  1  -1.178563  0  -0.359223  -0.536023  0  2.345777  0
O  O117  1  0.22879992  0.86404358  0.62008221  1  -1.178836  0  -0.359276  -0.536148  0  2.345664  0
O  O118  1  0.29016620  0.18173732  0.45669196  1  -1.190917  0  -0.401439  -0.650018  0  2.306492  0
O  O119  1  0.70983513  0.81827072  0.54330778  1  -1.190986  0  -0.401472  -0.650136  0  2.306232  0
O  O120  1  0.98016200  0.89233988  0.43298982  1  -1.206334  0  -0.384403  -0.669618  0  2.28793  0
O  O121  1  0.01984100  0.10765883  0.56701752  1  -1.206535  0  -0.384323  -0.669645  0  2.287981  0
O  O122  1  0.20396773  0.81275235  0.47572295  1  -1.196958  0  -0.395231  -0.659912  0  2.316907  0
O  O123  1  0.79604413  0.18724960  0.52427582  1  -1.196744  0  -0.395202  -0.659855  0  2.317059  0
O  O124  1  0.45068729  0.47875755  0.87558669  1  -1.189164  0  -0.33079  -0.540133  0  2.341793  0
O  O125  1  0.54930764  0.52125053  0.12441330  1  -1.188953  0  -0.33079  -0.540073  0  2.341848  0
O  O126  1  0.08760509  0.64295309  0.91717071  1  -1.207825  0  -0.405402  -0.684617  0  2.293307  0
O  O127  1  0.91238344  0.35704886  0.08283298  1  -1.208026  0  -0.405411  -0.684654  0  2.293092  0
O  O128  1  0.88358278  0.92463007  0.59598338  1  -1.238365  0  -0.607975  -0.801929  0  2.023264  0
O  O129  1  0.11641484  0.07537488  0.40401906  1  -1.238451  0  -0.607823  -0.801696  0  2.023447  0
O  O130  1  0.47200076  0.23559641  0.48489082  1  -1.195239  0  -0.391107  -0.665797  0  2.283107  0
O  O131  1  0.52801091  0.76439956  0.51510565  1  -1.195157  0  -0.391169  -0.665798  0  2.282931  0
O  O132  1  0.99165054  0.37103085  0.92506381  1  -1.210608  0  -0.394646  -0.680336  0  2.322218  0
O  O133  1  0.00834849  0.62896504  0.07493786  1  -1.210532  0  -0.394619  -0.680339  0  2.322085  0
O  O134  1  0.83006638  0.68626888  0.93758756  1  -1.203431  0  -0.391101  -0.665206  0  2.275098  0
O  O135  1  0.16992463  0.31373427  0.06240948  1  -1.203311  0  -0.391048  -0.665218  0  2.275046  0
O  O136  1  0.68250907  0.34216488  0.98821064  1  -1.217547  0  -0.409251  -0.690831  0  2.305528  0
O  O137  1  0.31749957  0.65783506  0.01178862  1  -1.217662  0  -0.409235  -0.690866  0  2.305836  0
O  O138  1  0.32257311  0.43793090  0.11962351  1  -1.225504  0  -0.613753  -0.8116  0  2.029426  0
O  O139  1  0.67742542  0.56207215  0.88037525  1  -1.225463  0  -0.613746  -0.811663  0  2.029323  0
O  O140  1  0.38930994  0.04846994  0.58463572  1  -1.214227  0  -0.405161  -0.709385  0  2.393736  0
O  O141  1  0.61068489  0.95153002  0.41536573  1  -1.2143  0  -0.405107  -0.709272  0  2.393829  0
